data_str_m3_o10_o16_pcu_sym.153
_audit_creation_date              2020-01-03
_audit_creation_method            'Materials Studio'
_symmetry_space_group_name_H-M    'P1'
_symmetry_Int_Tables_number       1
_symmetry_cell_setting            triclinic
loop_
_symmetry_equiv_pos_as_xyz
  x,y,z
_cell_length_a                    23.4333
_cell_length_b                    25.9292
_cell_length_c                    24.5781
_cell_angle_alpha                 91.6584
_cell_angle_beta                  101.2446
_cell_angle_gamma                 94.3373
loop_
_atom_site_label
_atom_site_type_symbol
_atom_site_fract_x
_atom_site_fract_y
_atom_site_fract_z
_atom_site_U_iso_or_equiv
_atom_site_adp_type
_atom_site_occupancy
C1     C     0.01450   0.26463   0.24687   0.00000  Uiso   1.00
C2     C     0.13515   0.16715   0.49337   0.00000  Uiso   1.00
C3     C     0.10767   0.14978   0.43908   0.00000  Uiso   1.00
C4     C     0.19337   0.15543   0.01285   0.00000  Uiso   1.00
C5     C     0.22208   0.12443   0.47967   0.00000  Uiso   1.00
C6     C     0.19297   0.10559   0.42733   0.00000  Uiso   1.00
C7     C     0.13515   0.11521   0.40905   0.00000  Uiso   1.00
C8     C     0.22442   0.17441   0.06433   0.00000  Uiso   1.00
C9     C     0.30586   0.12529   0.05460   0.00000  Uiso   1.00
C10    C     0.05444   0.16929   0.41507   0.00000  Uiso   1.00
C11    C     0.02223   0.31857   0.24144   0.00000  Uiso   1.00
C12    C     0.03558   0.16789   0.35490   0.00000  Uiso   1.00
C13    C     0.31083   0.01368   0.24734   0.00000  Uiso   1.00
C14    C     0.31827   0.06837   0.24998   0.00000  Uiso   1.00
C15    C     0.29758   0.16359   0.14541   0.00000  Uiso   1.00
C16    C     0.27891   0.11084   0.00047   0.00000  Uiso   1.00
C17    C     0.27769   0.15637   0.08648   0.00000  Uiso   1.00
C18    C     0.02402   0.19761   0.44783   0.00000  Uiso   1.00
C19    C     0.04818   0.21013   0.00306   0.00000  Uiso   1.00
C20    C     0.10324   0.19553   0.02583   0.00000  Uiso   1.00
H21    H     0.01432   0.11118   0.07185   0.00000  Uiso   1.00
H22    H     0.26828   0.32980   0.25137   0.00000  Uiso   1.00
H23    H     0.15661   0.12775   0.20654   0.00000  Uiso   1.00
H24    H     0.17612   0.20473   0.29373   0.00000  Uiso   1.00
H25    H     0.30150   0.08702   0.47614   0.00000  Uiso   1.00
H26    H     0.20724   0.20162   0.08956   0.00000  Uiso   1.00
H27    H     0.31543   0.21113   0.43060   0.00000  Uiso   1.00
H28    H     0.11881   0.20637   0.06911   0.00000  Uiso   1.00
H29    H     0.02446   0.23198   0.02820   0.00000  Uiso   1.00
H30    H     0.11287   0.09600   0.37029   0.00000  Uiso   1.00
N31    N     0.14493   0.15223   0.23542   0.00000  Uiso   1.00
N32    N     0.18840   0.18110   0.26457   0.00000  Uiso   1.00
O33    O     0.29769   0.24629   0.25358   0.00000  Uiso   1.00
O34    O     0.05742   0.23704   0.24423   0.00000  Uiso   1.00
O35    O     0.31490   0.17358   0.33380   0.00000  Uiso   1.00
O36    O     0.07463   0.16433   0.32446   0.00000  Uiso   1.00
O37    O     0.27592   0.09629   0.25577   0.00000  Uiso   1.00
O38    O     0.03565   0.08704   0.24642   0.00000  Uiso   1.00
O39    O     0.25870   0.16901   0.17554   0.00000  Uiso   1.00
O40    O     0.01843   0.15976   0.16620   0.00000  Uiso   1.00
Zn41   Zn    0.27119   0.17284   0.25624   0.00000  Uiso   1.00
Zn42   Zn    0.06214   0.16049   0.24376   0.00000  Uiso   1.00
O43    O     0.22355   0.08374   0.39125   0.00000  Uiso   1.00
C44    C     0.20757   0.03022   0.38308   0.00000  Uiso   1.00
H45    H     0.17772   0.02347   0.34193   0.00000  Uiso   1.00
H46    H     0.18512   0.01313   0.41539   0.00000  Uiso   1.00
C47    C     0.26321   0.00315   0.38367   0.00000  Uiso   1.00
H48    H     0.29120   0.02483   0.35894   0.00000  Uiso   1.00
H49    H     0.28812   0.00234   0.42697   0.00000  Uiso   1.00
C50    C     0.24936   0.28163   0.35934   0.00000  Uiso   1.00
H51    H     0.22366   0.28240   0.31649   0.00000  Uiso   1.00
H52    H     0.22442   0.25790   0.38514   0.00000  Uiso   1.00
H53    H     0.29086   0.26458   0.35767   0.00000  Uiso   1.00
O54    O     0.07731   0.00596   0.23635   0.00000  Uiso   1.00
C55    C     0.08231   0.00264   0.17991   0.00000  Uiso   1.00
H56    H     0.06300   0.03632   0.15846   0.00000  Uiso   1.00
H57    H     0.05991   0.29965   0.15752   0.00000  Uiso   1.00
C58    C     0.14698   0.00388   0.17698   0.00000  Uiso   1.00
H59    H     0.17135   0.03751   0.20244   0.00000  Uiso   1.00
H60    H     0.16489   0.30135   0.19441   0.00000  Uiso   1.00
C61    C     0.15620   0.00778   0.11740   0.00000  Uiso   1.00
H62    H     0.13251   0.30763   0.09113   0.00000  Uiso   1.00
H63    H     0.20348   0.00774   0.11690   0.00000  Uiso   1.00
H64    H     0.14038   0.04430   0.09984   0.00000  Uiso   1.00
C65    C     0.34783   0.26463   0.24687   0.00000  Uiso   1.00
C66    C     0.46848   0.16715   0.49337   0.00000  Uiso   1.00
C67    C     0.44100   0.14978   0.43908   0.00000  Uiso   1.00
C68    C     0.52670   0.15543   0.01285   0.00000  Uiso   1.00
C69    C     0.55541   0.12443   0.47967   0.00000  Uiso   1.00
C70    C     0.52630   0.10559   0.42733   0.00000  Uiso   1.00
C71    C     0.46848   0.11521   0.40905   0.00000  Uiso   1.00
C72    C     0.55775   0.17441   0.06433   0.00000  Uiso   1.00
C73    C     0.63919   0.12529   0.05460   0.00000  Uiso   1.00
C74    C     0.38777   0.16929   0.41507   0.00000  Uiso   1.00
C75    C     0.35556   0.31857   0.24144   0.00000  Uiso   1.00
C76    C     0.36891   0.16789   0.35490   0.00000  Uiso   1.00
C77    C     0.64417   0.01368   0.24734   0.00000  Uiso   1.00
C78    C     0.65161   0.06837   0.24998   0.00000  Uiso   1.00
C79    C     0.63091   0.16359   0.14541   0.00000  Uiso   1.00
C80    C     0.61224   0.11084   0.00047   0.00000  Uiso   1.00
C81    C     0.61102   0.15637   0.08648   0.00000  Uiso   1.00
C82    C     0.35736   0.19761   0.44783   0.00000  Uiso   1.00
C83    C     0.38151   0.21013   0.00306   0.00000  Uiso   1.00
C84    C     0.43658   0.19553   0.02583   0.00000  Uiso   1.00
H85    H     0.34765   0.11118   0.07185   0.00000  Uiso   1.00
H86    H     0.60161   0.32980   0.25137   0.00000  Uiso   1.00
H87    H     0.48994   0.12775   0.20654   0.00000  Uiso   1.00
H88    H     0.50945   0.20473   0.29373   0.00000  Uiso   1.00
H89    H     0.63484   0.08702   0.47614   0.00000  Uiso   1.00
H90    H     0.54057   0.20162   0.08956   0.00000  Uiso   1.00
H91    H     0.64877   0.21113   0.43060   0.00000  Uiso   1.00
H92    H     0.45215   0.20637   0.06911   0.00000  Uiso   1.00
H93    H     0.35780   0.23198   0.02820   0.00000  Uiso   1.00
H94    H     0.44620   0.09600   0.37029   0.00000  Uiso   1.00
N95    N     0.47827   0.15223   0.23542   0.00000  Uiso   1.00
N96    N     0.52173   0.18110   0.26457   0.00000  Uiso   1.00
O97    O     0.63102   0.24629   0.25358   0.00000  Uiso   1.00
O98    O     0.39075   0.23704   0.24423   0.00000  Uiso   1.00
O99    O     0.64823   0.17358   0.33380   0.00000  Uiso   1.00
O100   O     0.40796   0.16433   0.32446   0.00000  Uiso   1.00
O101   O     0.60925   0.09629   0.25577   0.00000  Uiso   1.00
O102   O     0.36898   0.08704   0.24642   0.00000  Uiso   1.00
O103   O     0.59204   0.16901   0.17554   0.00000  Uiso   1.00
O104   O     0.35177   0.15976   0.16620   0.00000  Uiso   1.00
Zn105  Zn    0.60453   0.17284   0.25624   0.00000  Uiso   1.00
Zn106  Zn    0.39547   0.16049   0.24376   0.00000  Uiso   1.00
O107   O     0.55688   0.08374   0.39125   0.00000  Uiso   1.00
C108   C     0.54090   0.03022   0.38308   0.00000  Uiso   1.00
H109   H     0.51106   0.02347   0.34193   0.00000  Uiso   1.00
H110   H     0.51845   0.01313   0.41539   0.00000  Uiso   1.00
C111   C     0.59654   0.00315   0.38367   0.00000  Uiso   1.00
H112   H     0.62453   0.02483   0.35894   0.00000  Uiso   1.00
H113   H     0.62145   0.00234   0.42697   0.00000  Uiso   1.00
C114   C     0.58269   0.28163   0.35934   0.00000  Uiso   1.00
H115   H     0.55699   0.28240   0.31649   0.00000  Uiso   1.00
H116   H     0.55776   0.25790   0.38514   0.00000  Uiso   1.00
H117   H     0.62420   0.26458   0.35767   0.00000  Uiso   1.00
O118   O     0.41065   0.00596   0.23635   0.00000  Uiso   1.00
C119   C     0.41565   0.00264   0.17991   0.00000  Uiso   1.00
H120   H     0.39633   0.03632   0.15846   0.00000  Uiso   1.00
H121   H     0.39325   0.29965   0.15752   0.00000  Uiso   1.00
C122   C     0.48031   0.00388   0.17698   0.00000  Uiso   1.00
H123   H     0.50469   0.03751   0.20244   0.00000  Uiso   1.00
H124   H     0.49823   0.30135   0.19441   0.00000  Uiso   1.00
C125   C     0.48953   0.00778   0.11740   0.00000  Uiso   1.00
H126   H     0.46584   0.30763   0.09113   0.00000  Uiso   1.00
H127   H     0.53682   0.00774   0.11690   0.00000  Uiso   1.00
H128   H     0.47371   0.04430   0.09984   0.00000  Uiso   1.00
C129   C     0.68117   0.26463   0.24687   0.00000  Uiso   1.00
C130   C     0.80181   0.16715   0.49337   0.00000  Uiso   1.00
C131   C     0.77434   0.14978   0.43908   0.00000  Uiso   1.00
C132   C     0.86003   0.15543   0.01285   0.00000  Uiso   1.00
C133   C     0.88874   0.12443   0.47967   0.00000  Uiso   1.00
C134   C     0.85964   0.10559   0.42733   0.00000  Uiso   1.00
C135   C     0.80182   0.11521   0.40905   0.00000  Uiso   1.00
C136   C     0.89108   0.17441   0.06433   0.00000  Uiso   1.00
C137   C     0.97253   0.12529   0.05460   0.00000  Uiso   1.00
C138   C     0.72110   0.16929   0.41507   0.00000  Uiso   1.00
C139   C     0.68889   0.31857   0.24144   0.00000  Uiso   1.00
C140   C     0.70224   0.16789   0.35490   0.00000  Uiso   1.00
C141   C     0.97750   0.01368   0.24734   0.00000  Uiso   1.00
C142   C     0.98494   0.06837   0.24998   0.00000  Uiso   1.00
C143   C     0.96425   0.16359   0.14541   0.00000  Uiso   1.00
C144   C     0.94557   0.11084   0.00047   0.00000  Uiso   1.00
C145   C     0.94435   0.15637   0.08648   0.00000  Uiso   1.00
C146   C     0.69069   0.19761   0.44783   0.00000  Uiso   1.00
C147   C     0.71484   0.21013   0.00306   0.00000  Uiso   1.00
C148   C     0.76991   0.19553   0.02583   0.00000  Uiso   1.00
H149   H     0.68099   0.11118   0.07185   0.00000  Uiso   1.00
H150   H     0.93495   0.32980   0.25137   0.00000  Uiso   1.00
H151   H     0.82328   0.12775   0.20654   0.00000  Uiso   1.00
H152   H     0.84278   0.20473   0.29373   0.00000  Uiso   1.00
H153   H     0.96817   0.08702   0.47614   0.00000  Uiso   1.00
H154   H     0.87391   0.20162   0.08956   0.00000  Uiso   1.00
H155   H     0.98210   0.21113   0.43060   0.00000  Uiso   1.00
H156   H     0.78548   0.20637   0.06911   0.00000  Uiso   1.00
H157   H     0.69113   0.23198   0.02820   0.00000  Uiso   1.00
H158   H     0.77954   0.09600   0.37029   0.00000  Uiso   1.00
N159   N     0.81160   0.15223   0.23542   0.00000  Uiso   1.00
N160   N     0.85507   0.18110   0.26457   0.00000  Uiso   1.00
O161   O     0.96435   0.24629   0.25358   0.00000  Uiso   1.00
O162   O     0.72408   0.23704   0.24423   0.00000  Uiso   1.00
O163   O     0.98157   0.17358   0.33380   0.00000  Uiso   1.00
O164   O     0.74130   0.16433   0.32446   0.00000  Uiso   1.00
O165   O     0.94258   0.09629   0.25577   0.00000  Uiso   1.00
O166   O     0.70231   0.08704   0.24642   0.00000  Uiso   1.00
O167   O     0.92537   0.16901   0.17554   0.00000  Uiso   1.00
O168   O     0.68510   0.15976   0.16620   0.00000  Uiso   1.00
Zn169  Zn    0.93786   0.17284   0.25624   0.00000  Uiso   1.00
Zn170  Zn    0.72881   0.16049   0.24376   0.00000  Uiso   1.00
O171   O     0.89021   0.08374   0.39125   0.00000  Uiso   1.00
C172   C     0.87423   0.03022   0.38308   0.00000  Uiso   1.00
H173   H     0.84439   0.02347   0.34193   0.00000  Uiso   1.00
H174   H     0.85179   0.01313   0.41539   0.00000  Uiso   1.00
C175   C     0.92987   0.00315   0.38367   0.00000  Uiso   1.00
H176   H     0.95786   0.02483   0.35894   0.00000  Uiso   1.00
H177   H     0.95479   0.00234   0.42697   0.00000  Uiso   1.00
C178   C     0.91602   0.28163   0.35934   0.00000  Uiso   1.00
H179   H     0.89032   0.28240   0.31649   0.00000  Uiso   1.00
H180   H     0.89109   0.25790   0.38514   0.00000  Uiso   1.00
H181   H     0.95753   0.26458   0.35767   0.00000  Uiso   1.00
O182   O     0.74398   0.00596   0.23635   0.00000  Uiso   1.00
C183   C     0.74898   0.00264   0.17991   0.00000  Uiso   1.00
H184   H     0.72966   0.03632   0.15846   0.00000  Uiso   1.00
H185   H     0.72658   0.29965   0.15752   0.00000  Uiso   1.00
C186   C     0.81364   0.00388   0.17698   0.00000  Uiso   1.00
H187   H     0.83802   0.03751   0.20244   0.00000  Uiso   1.00
H188   H     0.83156   0.30135   0.19441   0.00000  Uiso   1.00
C189   C     0.82286   0.00778   0.11740   0.00000  Uiso   1.00
H190   H     0.79918   0.30763   0.09113   0.00000  Uiso   1.00
H191   H     0.87015   0.00774   0.11690   0.00000  Uiso   1.00
H192   H     0.80704   0.04430   0.09984   0.00000  Uiso   1.00
C193   C     0.01450   0.59796   0.24687   0.00000  Uiso   1.00
C194   C     0.13515   0.50048   0.49337   0.00000  Uiso   1.00
C195   C     0.10767   0.48311   0.43908   0.00000  Uiso   1.00
C196   C     0.19337   0.48877   0.01285   0.00000  Uiso   1.00
C197   C     0.22208   0.45776   0.47967   0.00000  Uiso   1.00
C198   C     0.19297   0.43893   0.42733   0.00000  Uiso   1.00
C199   C     0.13515   0.44854   0.40905   0.00000  Uiso   1.00
C200   C     0.22442   0.50774   0.06433   0.00000  Uiso   1.00
C201   C     0.30586   0.45862   0.05460   0.00000  Uiso   1.00
C202   C     0.05444   0.50263   0.41507   0.00000  Uiso   1.00
C203   C     0.02223   0.65190   0.24144   0.00000  Uiso   1.00
C204   C     0.03558   0.50123   0.35490   0.00000  Uiso   1.00
C205   C     0.31083   0.34701   0.24734   0.00000  Uiso   1.00
C206   C     0.31827   0.40170   0.24998   0.00000  Uiso   1.00
C207   C     0.29758   0.49692   0.14541   0.00000  Uiso   1.00
C208   C     0.27891   0.44417   0.00047   0.00000  Uiso   1.00
C209   C     0.27769   0.48971   0.08648   0.00000  Uiso   1.00
C210   C     0.02402   0.53094   0.44783   0.00000  Uiso   1.00
C211   C     0.04818   0.54346   0.00306   0.00000  Uiso   1.00
C212   C     0.10324   0.52887   0.02583   0.00000  Uiso   1.00
H213   H     0.01432   0.44451   0.07185   0.00000  Uiso   1.00
H214   H     0.26828   0.66313   0.25137   0.00000  Uiso   1.00
H215   H     0.15661   0.46109   0.20654   0.00000  Uiso   1.00
H216   H     0.17612   0.53806   0.29373   0.00000  Uiso   1.00
H217   H     0.30150   0.42036   0.47614   0.00000  Uiso   1.00
H218   H     0.20724   0.53496   0.08956   0.00000  Uiso   1.00
H219   H     0.31543   0.54447   0.43060   0.00000  Uiso   1.00
H220   H     0.11881   0.53970   0.06911   0.00000  Uiso   1.00
H221   H     0.02446   0.56532   0.02820   0.00000  Uiso   1.00
H222   H     0.11287   0.42933   0.37029   0.00000  Uiso   1.00
N223   N     0.14493   0.48556   0.23542   0.00000  Uiso   1.00
N224   N     0.18840   0.51444   0.26457   0.00000  Uiso   1.00
O225   O     0.29769   0.57963   0.25358   0.00000  Uiso   1.00
O226   O     0.05742   0.57038   0.24423   0.00000  Uiso   1.00
O227   O     0.31490   0.50691   0.33380   0.00000  Uiso   1.00
O228   O     0.07463   0.49766   0.32446   0.00000  Uiso   1.00
O229   O     0.27592   0.42962   0.25577   0.00000  Uiso   1.00
O230   O     0.03565   0.42037   0.24642   0.00000  Uiso   1.00
O231   O     0.25870   0.50234   0.17554   0.00000  Uiso   1.00
O232   O     0.01843   0.49309   0.16620   0.00000  Uiso   1.00
Zn233  Zn    0.27119   0.50618   0.25624   0.00000  Uiso   1.00
Zn234  Zn    0.06214   0.49382   0.24376   0.00000  Uiso   1.00
O235   O     0.22355   0.41707   0.39125   0.00000  Uiso   1.00
C236   C     0.20757   0.36355   0.38308   0.00000  Uiso   1.00
H237   H     0.17772   0.35680   0.34193   0.00000  Uiso   1.00
H238   H     0.18512   0.34646   0.41539   0.00000  Uiso   1.00
C239   C     0.26321   0.33648   0.38367   0.00000  Uiso   1.00
H240   H     0.29120   0.35816   0.35894   0.00000  Uiso   1.00
H241   H     0.28812   0.33568   0.42697   0.00000  Uiso   1.00
C242   C     0.24936   0.61496   0.35934   0.00000  Uiso   1.00
H243   H     0.22366   0.61573   0.31649   0.00000  Uiso   1.00
H244   H     0.22442   0.59124   0.38514   0.00000  Uiso   1.00
H245   H     0.29086   0.59791   0.35767   0.00000  Uiso   1.00
O246   O     0.07731   0.33929   0.23635   0.00000  Uiso   1.00
C247   C     0.08231   0.33597   0.17991   0.00000  Uiso   1.00
H248   H     0.06300   0.36965   0.15846   0.00000  Uiso   1.00
H249   H     0.05991   0.63298   0.15752   0.00000  Uiso   1.00
C250   C     0.14698   0.33721   0.17698   0.00000  Uiso   1.00
H251   H     0.17135   0.37085   0.20244   0.00000  Uiso   1.00
H252   H     0.16489   0.63468   0.19441   0.00000  Uiso   1.00
C253   C     0.15620   0.34111   0.11740   0.00000  Uiso   1.00
H254   H     0.13251   0.64096   0.09113   0.00000  Uiso   1.00
H255   H     0.20348   0.34108   0.11690   0.00000  Uiso   1.00
H256   H     0.14038   0.37763   0.09984   0.00000  Uiso   1.00
C257   C     0.34783   0.59796   0.24687   0.00000  Uiso   1.00
C258   C     0.46848   0.50048   0.49337   0.00000  Uiso   1.00
C259   C     0.44100   0.48311   0.43908   0.00000  Uiso   1.00
C260   C     0.52670   0.48877   0.01285   0.00000  Uiso   1.00
C261   C     0.55541   0.45776   0.47967   0.00000  Uiso   1.00
C262   C     0.52630   0.43893   0.42733   0.00000  Uiso   1.00
C263   C     0.46848   0.44854   0.40905   0.00000  Uiso   1.00
C264   C     0.55775   0.50774   0.06433   0.00000  Uiso   1.00
C265   C     0.63919   0.45862   0.05460   0.00000  Uiso   1.00
C266   C     0.38777   0.50263   0.41507   0.00000  Uiso   1.00
C267   C     0.35556   0.65190   0.24144   0.00000  Uiso   1.00
C268   C     0.36891   0.50123   0.35490   0.00000  Uiso   1.00
C269   C     0.64417   0.34701   0.24734   0.00000  Uiso   1.00
C270   C     0.65161   0.40170   0.24998   0.00000  Uiso   1.00
C271   C     0.63091   0.49692   0.14541   0.00000  Uiso   1.00
C272   C     0.61224   0.44417   0.00047   0.00000  Uiso   1.00
C273   C     0.61102   0.48971   0.08648   0.00000  Uiso   1.00
C274   C     0.35736   0.53094   0.44783   0.00000  Uiso   1.00
C275   C     0.38151   0.54346   0.00306   0.00000  Uiso   1.00
C276   C     0.43658   0.52887   0.02583   0.00000  Uiso   1.00
H277   H     0.34765   0.44451   0.07185   0.00000  Uiso   1.00
H278   H     0.60161   0.66313   0.25137   0.00000  Uiso   1.00
H279   H     0.48994   0.46109   0.20654   0.00000  Uiso   1.00
H280   H     0.50945   0.53806   0.29373   0.00000  Uiso   1.00
H281   H     0.63484   0.42036   0.47614   0.00000  Uiso   1.00
H282   H     0.54057   0.53496   0.08956   0.00000  Uiso   1.00
H283   H     0.64877   0.54447   0.43060   0.00000  Uiso   1.00
H284   H     0.45215   0.53970   0.06911   0.00000  Uiso   1.00
H285   H     0.35780   0.56532   0.02820   0.00000  Uiso   1.00
H286   H     0.44620   0.42933   0.37029   0.00000  Uiso   1.00
N287   N     0.47827   0.48556   0.23542   0.00000  Uiso   1.00
N288   N     0.52173   0.51444   0.26457   0.00000  Uiso   1.00
O289   O     0.63102   0.57963   0.25358   0.00000  Uiso   1.00
O290   O     0.39075   0.57038   0.24423   0.00000  Uiso   1.00
O291   O     0.64823   0.50691   0.33380   0.00000  Uiso   1.00
O292   O     0.40796   0.49766   0.32446   0.00000  Uiso   1.00
O293   O     0.60925   0.42962   0.25577   0.00000  Uiso   1.00
O294   O     0.36898   0.42037   0.24642   0.00000  Uiso   1.00
O295   O     0.59204   0.50234   0.17554   0.00000  Uiso   1.00
O296   O     0.35177   0.49309   0.16620   0.00000  Uiso   1.00
Zn297  Zn    0.60453   0.50618   0.25624   0.00000  Uiso   1.00
Zn298  Zn    0.39547   0.49382   0.24376   0.00000  Uiso   1.00
O299   O     0.55688   0.41707   0.39125   0.00000  Uiso   1.00
C300   C     0.54090   0.36355   0.38308   0.00000  Uiso   1.00
H301   H     0.51106   0.35680   0.34193   0.00000  Uiso   1.00
H302   H     0.51845   0.34646   0.41539   0.00000  Uiso   1.00
C303   C     0.59654   0.33648   0.38367   0.00000  Uiso   1.00
H304   H     0.62453   0.35816   0.35894   0.00000  Uiso   1.00
H305   H     0.62145   0.33568   0.42697   0.00000  Uiso   1.00
C306   C     0.58269   0.61496   0.35934   0.00000  Uiso   1.00
H307   H     0.55699   0.61573   0.31649   0.00000  Uiso   1.00
H308   H     0.55776   0.59124   0.38514   0.00000  Uiso   1.00
H309   H     0.62420   0.59791   0.35767   0.00000  Uiso   1.00
O310   O     0.41065   0.33929   0.23635   0.00000  Uiso   1.00
C311   C     0.41565   0.33597   0.17991   0.00000  Uiso   1.00
H312   H     0.39633   0.36965   0.15846   0.00000  Uiso   1.00
H313   H     0.39325   0.63298   0.15752   0.00000  Uiso   1.00
C314   C     0.48031   0.33721   0.17698   0.00000  Uiso   1.00
H315   H     0.50469   0.37085   0.20244   0.00000  Uiso   1.00
H316   H     0.49823   0.63468   0.19441   0.00000  Uiso   1.00
C317   C     0.48953   0.34111   0.11740   0.00000  Uiso   1.00
H318   H     0.46584   0.64096   0.09113   0.00000  Uiso   1.00
H319   H     0.53682   0.34108   0.11690   0.00000  Uiso   1.00
H320   H     0.47371   0.37763   0.09984   0.00000  Uiso   1.00
C321   C     0.68117   0.59796   0.24687   0.00000  Uiso   1.00
C322   C     0.80181   0.50048   0.49337   0.00000  Uiso   1.00
C323   C     0.77434   0.48311   0.43908   0.00000  Uiso   1.00
C324   C     0.86003   0.48877   0.01285   0.00000  Uiso   1.00
C325   C     0.88874   0.45776   0.47967   0.00000  Uiso   1.00
C326   C     0.85964   0.43893   0.42733   0.00000  Uiso   1.00
C327   C     0.80182   0.44854   0.40905   0.00000  Uiso   1.00
C328   C     0.89108   0.50774   0.06433   0.00000  Uiso   1.00
C329   C     0.97253   0.45862   0.05460   0.00000  Uiso   1.00
C330   C     0.72110   0.50263   0.41507   0.00000  Uiso   1.00
C331   C     0.68889   0.65190   0.24144   0.00000  Uiso   1.00
C332   C     0.70224   0.50123   0.35490   0.00000  Uiso   1.00
C333   C     0.97750   0.34701   0.24734   0.00000  Uiso   1.00
C334   C     0.98494   0.40170   0.24998   0.00000  Uiso   1.00
C335   C     0.96425   0.49692   0.14541   0.00000  Uiso   1.00
C336   C     0.94557   0.44417   0.00047   0.00000  Uiso   1.00
C337   C     0.94435   0.48971   0.08648   0.00000  Uiso   1.00
C338   C     0.69069   0.53094   0.44783   0.00000  Uiso   1.00
C339   C     0.71484   0.54346   0.00306   0.00000  Uiso   1.00
C340   C     0.76991   0.52887   0.02583   0.00000  Uiso   1.00
H341   H     0.68099   0.44451   0.07185   0.00000  Uiso   1.00
H342   H     0.93495   0.66313   0.25137   0.00000  Uiso   1.00
H343   H     0.82328   0.46109   0.20654   0.00000  Uiso   1.00
H344   H     0.84278   0.53806   0.29373   0.00000  Uiso   1.00
H345   H     0.96817   0.42036   0.47614   0.00000  Uiso   1.00
H346   H     0.87391   0.53496   0.08956   0.00000  Uiso   1.00
H347   H     0.98210   0.54447   0.43060   0.00000  Uiso   1.00
H348   H     0.78548   0.53970   0.06911   0.00000  Uiso   1.00
H349   H     0.69113   0.56532   0.02820   0.00000  Uiso   1.00
H350   H     0.77954   0.42933   0.37029   0.00000  Uiso   1.00
N351   N     0.81160   0.48556   0.23542   0.00000  Uiso   1.00
N352   N     0.85507   0.51444   0.26457   0.00000  Uiso   1.00
O353   O     0.96435   0.57963   0.25358   0.00000  Uiso   1.00
O354   O     0.72408   0.57038   0.24423   0.00000  Uiso   1.00
O355   O     0.98157   0.50691   0.33380   0.00000  Uiso   1.00
O356   O     0.74130   0.49766   0.32446   0.00000  Uiso   1.00
O357   O     0.94258   0.42962   0.25577   0.00000  Uiso   1.00
O358   O     0.70231   0.42037   0.24642   0.00000  Uiso   1.00
O359   O     0.92537   0.50234   0.17554   0.00000  Uiso   1.00
O360   O     0.68510   0.49309   0.16620   0.00000  Uiso   1.00
Zn361  Zn    0.93786   0.50618   0.25624   0.00000  Uiso   1.00
Zn362  Zn    0.72881   0.49382   0.24376   0.00000  Uiso   1.00
O363   O     0.89021   0.41707   0.39125   0.00000  Uiso   1.00
C364   C     0.87423   0.36355   0.38308   0.00000  Uiso   1.00
H365   H     0.84439   0.35680   0.34193   0.00000  Uiso   1.00
H366   H     0.85179   0.34646   0.41539   0.00000  Uiso   1.00
C367   C     0.92987   0.33648   0.38367   0.00000  Uiso   1.00
H368   H     0.95786   0.35816   0.35894   0.00000  Uiso   1.00
H369   H     0.95479   0.33568   0.42697   0.00000  Uiso   1.00
C370   C     0.91602   0.61496   0.35934   0.00000  Uiso   1.00
H371   H     0.89032   0.61573   0.31649   0.00000  Uiso   1.00
H372   H     0.89109   0.59124   0.38514   0.00000  Uiso   1.00
H373   H     0.95753   0.59791   0.35767   0.00000  Uiso   1.00
O374   O     0.74398   0.33929   0.23635   0.00000  Uiso   1.00
C375   C     0.74898   0.33597   0.17991   0.00000  Uiso   1.00
H376   H     0.72966   0.36965   0.15846   0.00000  Uiso   1.00
H377   H     0.72658   0.63298   0.15752   0.00000  Uiso   1.00
C378   C     0.81364   0.33721   0.17698   0.00000  Uiso   1.00
H379   H     0.83802   0.37085   0.20244   0.00000  Uiso   1.00
H380   H     0.83156   0.63468   0.19441   0.00000  Uiso   1.00
C381   C     0.82286   0.34111   0.11740   0.00000  Uiso   1.00
H382   H     0.79918   0.64096   0.09113   0.00000  Uiso   1.00
H383   H     0.87015   0.34108   0.11690   0.00000  Uiso   1.00
H384   H     0.80704   0.37763   0.09984   0.00000  Uiso   1.00
C385   C     0.01450   0.93130   0.24687   0.00000  Uiso   1.00
C386   C     0.13515   0.83381   0.49337   0.00000  Uiso   1.00
C387   C     0.10767   0.81644   0.43908   0.00000  Uiso   1.00
C388   C     0.19337   0.82210   0.01285   0.00000  Uiso   1.00
C389   C     0.22208   0.79109   0.47967   0.00000  Uiso   1.00
C390   C     0.19297   0.77226   0.42733   0.00000  Uiso   1.00
C391   C     0.13515   0.78188   0.40905   0.00000  Uiso   1.00
C392   C     0.22442   0.84108   0.06433   0.00000  Uiso   1.00
C393   C     0.30586   0.79196   0.05460   0.00000  Uiso   1.00
C394   C     0.05444   0.83596   0.41507   0.00000  Uiso   1.00
C395   C     0.02223   0.98523   0.24144   0.00000  Uiso   1.00
C396   C     0.03558   0.83456   0.35490   0.00000  Uiso   1.00
C397   C     0.31083   0.68034   0.24734   0.00000  Uiso   1.00
C398   C     0.31827   0.73503   0.24998   0.00000  Uiso   1.00
C399   C     0.29758   0.83026   0.14541   0.00000  Uiso   1.00
C400   C     0.27891   0.77750   0.00047   0.00000  Uiso   1.00
C401   C     0.27769   0.82304   0.08648   0.00000  Uiso   1.00
C402   C     0.02402   0.86427   0.44783   0.00000  Uiso   1.00
C403   C     0.04818   0.87680   0.00306   0.00000  Uiso   1.00
C404   C     0.10324   0.86220   0.02583   0.00000  Uiso   1.00
H405   H     0.01432   0.77784   0.07185   0.00000  Uiso   1.00
H406   H     0.26828   0.99647   0.25137   0.00000  Uiso   1.00
H407   H     0.15661   0.79442   0.20654   0.00000  Uiso   1.00
H408   H     0.17612   0.87140   0.29373   0.00000  Uiso   1.00
H409   H     0.30150   0.75369   0.47614   0.00000  Uiso   1.00
H410   H     0.20724   0.86829   0.08956   0.00000  Uiso   1.00
H411   H     0.31543   0.87780   0.43060   0.00000  Uiso   1.00
H412   H     0.11881   0.87303   0.06911   0.00000  Uiso   1.00
H413   H     0.02446   0.89865   0.02820   0.00000  Uiso   1.00
H414   H     0.11287   0.76267   0.37029   0.00000  Uiso   1.00
N415   N     0.14493   0.81890   0.23542   0.00000  Uiso   1.00
N416   N     0.18840   0.84777   0.26457   0.00000  Uiso   1.00
O417   O     0.29769   0.91296   0.25358   0.00000  Uiso   1.00
O418   O     0.05742   0.90371   0.24423   0.00000  Uiso   1.00
O419   O     0.31490   0.84024   0.33380   0.00000  Uiso   1.00
O420   O     0.07463   0.83099   0.32446   0.00000  Uiso   1.00
O421   O     0.27592   0.76296   0.25577   0.00000  Uiso   1.00
O422   O     0.03565   0.75371   0.24642   0.00000  Uiso   1.00
O423   O     0.25870   0.83567   0.17554   0.00000  Uiso   1.00
O424   O     0.01843   0.82642   0.16620   0.00000  Uiso   1.00
Zn425  Zn    0.27119   0.83951   0.25624   0.00000  Uiso   1.00
Zn426  Zn    0.06214   0.82716   0.24376   0.00000  Uiso   1.00
O427   O     0.22355   0.75041   0.39125   0.00000  Uiso   1.00
C428   C     0.20757   0.69688   0.38308   0.00000  Uiso   1.00
H429   H     0.17772   0.69013   0.34193   0.00000  Uiso   1.00
H430   H     0.18512   0.67979   0.41539   0.00000  Uiso   1.00
C431   C     0.26321   0.66981   0.38367   0.00000  Uiso   1.00
H432   H     0.29120   0.69149   0.35894   0.00000  Uiso   1.00
H433   H     0.28812   0.66901   0.42697   0.00000  Uiso   1.00
C434   C     0.24936   0.94829   0.35934   0.00000  Uiso   1.00
H435   H     0.22366   0.94906   0.31649   0.00000  Uiso   1.00
H436   H     0.22442   0.92457   0.38514   0.00000  Uiso   1.00
H437   H     0.29086   0.93124   0.35767   0.00000  Uiso   1.00
O438   O     0.07731   0.67263   0.23635   0.00000  Uiso   1.00
C439   C     0.08231   0.66931   0.17991   0.00000  Uiso   1.00
H440   H     0.06300   0.70298   0.15846   0.00000  Uiso   1.00
H441   H     0.05991   0.96631   0.15752   0.00000  Uiso   1.00
C442   C     0.14698   0.67054   0.17698   0.00000  Uiso   1.00
H443   H     0.17135   0.70418   0.20244   0.00000  Uiso   1.00
H444   H     0.16489   0.96801   0.19441   0.00000  Uiso   1.00
C445   C     0.15620   0.67444   0.11740   0.00000  Uiso   1.00
H446   H     0.13251   0.97429   0.09113   0.00000  Uiso   1.00
H447   H     0.20348   0.67441   0.11690   0.00000  Uiso   1.00
H448   H     0.14038   0.71096   0.09984   0.00000  Uiso   1.00
C449   C     0.34783   0.93130   0.24687   0.00000  Uiso   1.00
C450   C     0.46848   0.83381   0.49337   0.00000  Uiso   1.00
C451   C     0.44100   0.81644   0.43908   0.00000  Uiso   1.00
C452   C     0.52670   0.82210   0.01285   0.00000  Uiso   1.00
C453   C     0.55541   0.79109   0.47967   0.00000  Uiso   1.00
C454   C     0.52630   0.77226   0.42733   0.00000  Uiso   1.00
C455   C     0.46848   0.78188   0.40905   0.00000  Uiso   1.00
C456   C     0.55775   0.84108   0.06433   0.00000  Uiso   1.00
C457   C     0.63919   0.79196   0.05460   0.00000  Uiso   1.00
C458   C     0.38777   0.83596   0.41507   0.00000  Uiso   1.00
C459   C     0.35556   0.98523   0.24144   0.00000  Uiso   1.00
C460   C     0.36891   0.83456   0.35490   0.00000  Uiso   1.00
C461   C     0.64417   0.68034   0.24734   0.00000  Uiso   1.00
C462   C     0.65161   0.73503   0.24998   0.00000  Uiso   1.00
C463   C     0.63091   0.83026   0.14541   0.00000  Uiso   1.00
C464   C     0.61224   0.77750   0.00047   0.00000  Uiso   1.00
C465   C     0.61102   0.82304   0.08648   0.00000  Uiso   1.00
C466   C     0.35736   0.86427   0.44783   0.00000  Uiso   1.00
C467   C     0.38151   0.87680   0.00306   0.00000  Uiso   1.00
C468   C     0.43658   0.86220   0.02583   0.00000  Uiso   1.00
H469   H     0.34765   0.77784   0.07185   0.00000  Uiso   1.00
H470   H     0.60161   0.99647   0.25137   0.00000  Uiso   1.00
H471   H     0.48994   0.79442   0.20654   0.00000  Uiso   1.00
H472   H     0.50945   0.87140   0.29373   0.00000  Uiso   1.00
H473   H     0.63484   0.75369   0.47614   0.00000  Uiso   1.00
H474   H     0.54057   0.86829   0.08956   0.00000  Uiso   1.00
H475   H     0.64877   0.87780   0.43060   0.00000  Uiso   1.00
H476   H     0.45215   0.87303   0.06911   0.00000  Uiso   1.00
H477   H     0.35780   0.89865   0.02820   0.00000  Uiso   1.00
H478   H     0.44620   0.76267   0.37029   0.00000  Uiso   1.00
N479   N     0.47827   0.81890   0.23542   0.00000  Uiso   1.00
N480   N     0.52173   0.84777   0.26457   0.00000  Uiso   1.00
O481   O     0.63102   0.91296   0.25358   0.00000  Uiso   1.00
O482   O     0.39075   0.90371   0.24423   0.00000  Uiso   1.00
O483   O     0.64823   0.84024   0.33380   0.00000  Uiso   1.00
O484   O     0.40796   0.83099   0.32446   0.00000  Uiso   1.00
O485   O     0.60925   0.76296   0.25577   0.00000  Uiso   1.00
O486   O     0.36898   0.75371   0.24642   0.00000  Uiso   1.00
O487   O     0.59204   0.83567   0.17554   0.00000  Uiso   1.00
O488   O     0.35177   0.82642   0.16620   0.00000  Uiso   1.00
Zn489  Zn    0.60453   0.83951   0.25624   0.00000  Uiso   1.00
Zn490  Zn    0.39547   0.82716   0.24376   0.00000  Uiso   1.00
O491   O     0.55688   0.75041   0.39125   0.00000  Uiso   1.00
C492   C     0.54090   0.69688   0.38308   0.00000  Uiso   1.00
H493   H     0.51106   0.69013   0.34193   0.00000  Uiso   1.00
H494   H     0.51845   0.67979   0.41539   0.00000  Uiso   1.00
C495   C     0.59654   0.66981   0.38367   0.00000  Uiso   1.00
H496   H     0.62453   0.69149   0.35894   0.00000  Uiso   1.00
H497   H     0.62145   0.66901   0.42697   0.00000  Uiso   1.00
C498   C     0.58269   0.94829   0.35934   0.00000  Uiso   1.00
H499   H     0.55699   0.94906   0.31649   0.00000  Uiso   1.00
H500   H     0.55776   0.92457   0.38514   0.00000  Uiso   1.00
H501   H     0.62420   0.93124   0.35767   0.00000  Uiso   1.00
O502   O     0.41065   0.67263   0.23635   0.00000  Uiso   1.00
C503   C     0.41565   0.66931   0.17991   0.00000  Uiso   1.00
H504   H     0.39633   0.70298   0.15846   0.00000  Uiso   1.00
H505   H     0.39325   0.96631   0.15752   0.00000  Uiso   1.00
C506   C     0.48031   0.67054   0.17698   0.00000  Uiso   1.00
H507   H     0.50469   0.70418   0.20244   0.00000  Uiso   1.00
H508   H     0.49823   0.96801   0.19441   0.00000  Uiso   1.00
C509   C     0.48953   0.67444   0.11740   0.00000  Uiso   1.00
H510   H     0.46584   0.97429   0.09113   0.00000  Uiso   1.00
H511   H     0.53682   0.67441   0.11690   0.00000  Uiso   1.00
H512   H     0.47371   0.71096   0.09984   0.00000  Uiso   1.00
C513   C     0.68117   0.93130   0.24687   0.00000  Uiso   1.00
C514   C     0.80181   0.83381   0.49337   0.00000  Uiso   1.00
C515   C     0.77434   0.81644   0.43908   0.00000  Uiso   1.00
C516   C     0.86003   0.82210   0.01285   0.00000  Uiso   1.00
C517   C     0.88874   0.79109   0.47967   0.00000  Uiso   1.00
C518   C     0.85964   0.77226   0.42733   0.00000  Uiso   1.00
C519   C     0.80182   0.78188   0.40905   0.00000  Uiso   1.00
C520   C     0.89108   0.84108   0.06433   0.00000  Uiso   1.00
C521   C     0.97253   0.79196   0.05460   0.00000  Uiso   1.00
C522   C     0.72110   0.83596   0.41507   0.00000  Uiso   1.00
C523   C     0.68889   0.98523   0.24144   0.00000  Uiso   1.00
C524   C     0.70224   0.83456   0.35490   0.00000  Uiso   1.00
C525   C     0.97750   0.68034   0.24734   0.00000  Uiso   1.00
C526   C     0.98494   0.73503   0.24998   0.00000  Uiso   1.00
C527   C     0.96425   0.83026   0.14541   0.00000  Uiso   1.00
C528   C     0.94557   0.77750   0.00047   0.00000  Uiso   1.00
C529   C     0.94435   0.82304   0.08648   0.00000  Uiso   1.00
C530   C     0.69069   0.86427   0.44783   0.00000  Uiso   1.00
C531   C     0.71484   0.87680   0.00306   0.00000  Uiso   1.00
C532   C     0.76991   0.86220   0.02583   0.00000  Uiso   1.00
H533   H     0.68099   0.77784   0.07185   0.00000  Uiso   1.00
H534   H     0.93495   0.99647   0.25137   0.00000  Uiso   1.00
H535   H     0.82328   0.79442   0.20654   0.00000  Uiso   1.00
H536   H     0.84278   0.87140   0.29373   0.00000  Uiso   1.00
H537   H     0.96817   0.75369   0.47614   0.00000  Uiso   1.00
H538   H     0.87391   0.86829   0.08956   0.00000  Uiso   1.00
H539   H     0.98210   0.87780   0.43060   0.00000  Uiso   1.00
H540   H     0.78548   0.87303   0.06911   0.00000  Uiso   1.00
H541   H     0.69113   0.89865   0.02820   0.00000  Uiso   1.00
H542   H     0.77954   0.76267   0.37029   0.00000  Uiso   1.00
N543   N     0.81160   0.81890   0.23542   0.00000  Uiso   1.00
N544   N     0.85507   0.84777   0.26457   0.00000  Uiso   1.00
O545   O     0.96435   0.91296   0.25358   0.00000  Uiso   1.00
O546   O     0.72408   0.90371   0.24423   0.00000  Uiso   1.00
O547   O     0.98157   0.84024   0.33380   0.00000  Uiso   1.00
O548   O     0.74130   0.83099   0.32446   0.00000  Uiso   1.00
O549   O     0.94258   0.76296   0.25577   0.00000  Uiso   1.00
O550   O     0.70231   0.75371   0.24642   0.00000  Uiso   1.00
O551   O     0.92537   0.83567   0.17554   0.00000  Uiso   1.00
O552   O     0.68510   0.82642   0.16620   0.00000  Uiso   1.00
Zn553  Zn    0.93786   0.83951   0.25624   0.00000  Uiso   1.00
Zn554  Zn    0.72881   0.82716   0.24376   0.00000  Uiso   1.00
O555   O     0.89021   0.75041   0.39125   0.00000  Uiso   1.00
C556   C     0.87423   0.69688   0.38308   0.00000  Uiso   1.00
H557   H     0.84439   0.69013   0.34193   0.00000  Uiso   1.00
H558   H     0.85179   0.67979   0.41539   0.00000  Uiso   1.00
C559   C     0.92987   0.66981   0.38367   0.00000  Uiso   1.00
H560   H     0.95786   0.69149   0.35894   0.00000  Uiso   1.00
H561   H     0.95479   0.66901   0.42697   0.00000  Uiso   1.00
C562   C     0.91602   0.94829   0.35934   0.00000  Uiso   1.00
H563   H     0.89032   0.94906   0.31649   0.00000  Uiso   1.00
H564   H     0.89109   0.92457   0.38514   0.00000  Uiso   1.00
H565   H     0.95753   0.93124   0.35767   0.00000  Uiso   1.00
O566   O     0.74398   0.67263   0.23635   0.00000  Uiso   1.00
C567   C     0.74898   0.66931   0.17991   0.00000  Uiso   1.00
H568   H     0.72966   0.70298   0.15846   0.00000  Uiso   1.00
H569   H     0.72658   0.96631   0.15752   0.00000  Uiso   1.00
C570   C     0.81364   0.67054   0.17698   0.00000  Uiso   1.00
H571   H     0.83802   0.70418   0.20244   0.00000  Uiso   1.00
H572   H     0.83156   0.96801   0.19441   0.00000  Uiso   1.00
C573   C     0.82286   0.67444   0.11740   0.00000  Uiso   1.00
H574   H     0.79918   0.97429   0.09113   0.00000  Uiso   1.00
H575   H     0.87015   0.67441   0.11690   0.00000  Uiso   1.00
H576   H     0.80704   0.71096   0.09984   0.00000  Uiso   1.00
C577   C     0.01450   0.26463   0.74687   0.00000  Uiso   1.00
C578   C     0.13515   0.16715   0.99337   0.00000  Uiso   1.00
C579   C     0.10767   0.14978   0.93908   0.00000  Uiso   1.00
C580   C     0.19337   0.15543   0.51285   0.00000  Uiso   1.00
C581   C     0.22208   0.12443   0.97967   0.00000  Uiso   1.00
C582   C     0.19297   0.10559   0.92733   0.00000  Uiso   1.00
C583   C     0.13515   0.11521   0.90905   0.00000  Uiso   1.00
C584   C     0.22442   0.17441   0.56433   0.00000  Uiso   1.00
C585   C     0.30586   0.12529   0.55460   0.00000  Uiso   1.00
C586   C     0.05444   0.16929   0.91507   0.00000  Uiso   1.00
C587   C     0.02223   0.31857   0.74144   0.00000  Uiso   1.00
C588   C     0.03558   0.16789   0.85490   0.00000  Uiso   1.00
C589   C     0.31083   0.01368   0.74734   0.00000  Uiso   1.00
C590   C     0.31827   0.06837   0.74998   0.00000  Uiso   1.00
C591   C     0.29758   0.16359   0.64541   0.00000  Uiso   1.00
C592   C     0.27891   0.11084   0.50047   0.00000  Uiso   1.00
C593   C     0.27769   0.15637   0.58648   0.00000  Uiso   1.00
C594   C     0.02402   0.19761   0.94783   0.00000  Uiso   1.00
C595   C     0.04818   0.21013   0.50306   0.00000  Uiso   1.00
C596   C     0.10324   0.19553   0.52583   0.00000  Uiso   1.00
H597   H     0.01432   0.11118   0.57185   0.00000  Uiso   1.00
H598   H     0.26828   0.32980   0.75137   0.00000  Uiso   1.00
H599   H     0.15661   0.12775   0.70654   0.00000  Uiso   1.00
H600   H     0.17612   0.20473   0.79373   0.00000  Uiso   1.00
H601   H     0.30150   0.08702   0.97614   0.00000  Uiso   1.00
H602   H     0.20724   0.20162   0.58956   0.00000  Uiso   1.00
H603   H     0.31543   0.21113   0.93060   0.00000  Uiso   1.00
H604   H     0.11881   0.20637   0.56911   0.00000  Uiso   1.00
H605   H     0.02446   0.23198   0.52820   0.00000  Uiso   1.00
H606   H     0.11287   0.09600   0.87029   0.00000  Uiso   1.00
N607   N     0.14493   0.15223   0.73542   0.00000  Uiso   1.00
N608   N     0.18840   0.18110   0.76457   0.00000  Uiso   1.00
O609   O     0.29769   0.24629   0.75358   0.00000  Uiso   1.00
O610   O     0.05742   0.23704   0.74423   0.00000  Uiso   1.00
O611   O     0.31490   0.17358   0.83380   0.00000  Uiso   1.00
O612   O     0.07463   0.16433   0.82446   0.00000  Uiso   1.00
O613   O     0.27592   0.09629   0.75577   0.00000  Uiso   1.00
O614   O     0.03565   0.08704   0.74642   0.00000  Uiso   1.00
O615   O     0.25870   0.16901   0.67554   0.00000  Uiso   1.00
O616   O     0.01843   0.15976   0.66620   0.00000  Uiso   1.00
Zn617  Zn    0.27119   0.17284   0.75624   0.00000  Uiso   1.00
Zn618  Zn    0.06214   0.16049   0.74376   0.00000  Uiso   1.00
O619   O     0.22355   0.08374   0.89125   0.00000  Uiso   1.00
C620   C     0.20757   0.03022   0.88308   0.00000  Uiso   1.00
H621   H     0.17772   0.02347   0.84193   0.00000  Uiso   1.00
H622   H     0.18512   0.01313   0.91539   0.00000  Uiso   1.00
C623   C     0.26321   0.00315   0.88367   0.00000  Uiso   1.00
H624   H     0.29120   0.02483   0.85894   0.00000  Uiso   1.00
H625   H     0.28812   0.00234   0.92697   0.00000  Uiso   1.00
C626   C     0.24936   0.28163   0.85934   0.00000  Uiso   1.00
H627   H     0.22366   0.28240   0.81649   0.00000  Uiso   1.00
H628   H     0.22442   0.25790   0.88514   0.00000  Uiso   1.00
H629   H     0.29086   0.26458   0.85767   0.00000  Uiso   1.00
O630   O     0.07731   0.00596   0.73635   0.00000  Uiso   1.00
C631   C     0.08231   0.00264   0.67991   0.00000  Uiso   1.00
H632   H     0.06300   0.03632   0.65846   0.00000  Uiso   1.00
H633   H     0.05991   0.29965   0.65752   0.00000  Uiso   1.00
C634   C     0.14698   0.00388   0.67698   0.00000  Uiso   1.00
H635   H     0.17135   0.03751   0.70244   0.00000  Uiso   1.00
H636   H     0.16489   0.30135   0.69441   0.00000  Uiso   1.00
C637   C     0.15620   0.00778   0.61740   0.00000  Uiso   1.00
H638   H     0.13251   0.30763   0.59113   0.00000  Uiso   1.00
H639   H     0.20348   0.00774   0.61690   0.00000  Uiso   1.00
H640   H     0.14038   0.04430   0.59984   0.00000  Uiso   1.00
C641   C     0.34783   0.26463   0.74687   0.00000  Uiso   1.00
C642   C     0.46848   0.16715   0.99337   0.00000  Uiso   1.00
C643   C     0.44100   0.14978   0.93908   0.00000  Uiso   1.00
C644   C     0.52670   0.15543   0.51285   0.00000  Uiso   1.00
C645   C     0.55541   0.12443   0.97967   0.00000  Uiso   1.00
C646   C     0.52630   0.10559   0.92733   0.00000  Uiso   1.00
C647   C     0.46848   0.11521   0.90905   0.00000  Uiso   1.00
C648   C     0.55775   0.17441   0.56433   0.00000  Uiso   1.00
C649   C     0.63919   0.12529   0.55460   0.00000  Uiso   1.00
C650   C     0.38777   0.16929   0.91507   0.00000  Uiso   1.00
C651   C     0.35556   0.31857   0.74144   0.00000  Uiso   1.00
C652   C     0.36891   0.16789   0.85490   0.00000  Uiso   1.00
C653   C     0.64417   0.01368   0.74734   0.00000  Uiso   1.00
C654   C     0.65161   0.06837   0.74998   0.00000  Uiso   1.00
C655   C     0.63091   0.16359   0.64541   0.00000  Uiso   1.00
C656   C     0.61224   0.11084   0.50047   0.00000  Uiso   1.00
C657   C     0.61102   0.15637   0.58648   0.00000  Uiso   1.00
C658   C     0.35736   0.19761   0.94783   0.00000  Uiso   1.00
C659   C     0.38151   0.21013   0.50306   0.00000  Uiso   1.00
C660   C     0.43658   0.19553   0.52583   0.00000  Uiso   1.00
H661   H     0.34765   0.11118   0.57185   0.00000  Uiso   1.00
H662   H     0.60161   0.32980   0.75137   0.00000  Uiso   1.00
H663   H     0.48994   0.12775   0.70654   0.00000  Uiso   1.00
H664   H     0.50945   0.20473   0.79373   0.00000  Uiso   1.00
H665   H     0.63484   0.08702   0.97614   0.00000  Uiso   1.00
H666   H     0.54057   0.20162   0.58956   0.00000  Uiso   1.00
H667   H     0.64877   0.21113   0.93060   0.00000  Uiso   1.00
H668   H     0.45215   0.20637   0.56911   0.00000  Uiso   1.00
H669   H     0.35780   0.23198   0.52820   0.00000  Uiso   1.00
H670   H     0.44620   0.09600   0.87029   0.00000  Uiso   1.00
N671   N     0.47827   0.15223   0.73542   0.00000  Uiso   1.00
N672   N     0.52173   0.18110   0.76457   0.00000  Uiso   1.00
O673   O     0.63102   0.24629   0.75358   0.00000  Uiso   1.00
O674   O     0.39075   0.23704   0.74423   0.00000  Uiso   1.00
O675   O     0.64823   0.17358   0.83380   0.00000  Uiso   1.00
O676   O     0.40796   0.16433   0.82446   0.00000  Uiso   1.00
O677   O     0.60925   0.09629   0.75577   0.00000  Uiso   1.00
O678   O     0.36898   0.08704   0.74642   0.00000  Uiso   1.00
O679   O     0.59204   0.16901   0.67554   0.00000  Uiso   1.00
O680   O     0.35177   0.15976   0.66620   0.00000  Uiso   1.00
Zn681  Zn    0.60453   0.17284   0.75624   0.00000  Uiso   1.00
Zn682  Zn    0.39547   0.16049   0.74376   0.00000  Uiso   1.00
O683   O     0.55688   0.08374   0.89125   0.00000  Uiso   1.00
C684   C     0.54090   0.03022   0.88308   0.00000  Uiso   1.00
H685   H     0.51106   0.02347   0.84193   0.00000  Uiso   1.00
H686   H     0.51845   0.01313   0.91539   0.00000  Uiso   1.00
C687   C     0.59654   0.00315   0.88367   0.00000  Uiso   1.00
H688   H     0.62453   0.02483   0.85894   0.00000  Uiso   1.00
H689   H     0.62145   0.00234   0.92697   0.00000  Uiso   1.00
C690   C     0.58269   0.28163   0.85934   0.00000  Uiso   1.00
H691   H     0.55699   0.28240   0.81649   0.00000  Uiso   1.00
H692   H     0.55776   0.25790   0.88514   0.00000  Uiso   1.00
H693   H     0.62420   0.26458   0.85767   0.00000  Uiso   1.00
O694   O     0.41065   0.00596   0.73635   0.00000  Uiso   1.00
C695   C     0.41565   0.00264   0.67991   0.00000  Uiso   1.00
H696   H     0.39633   0.03632   0.65846   0.00000  Uiso   1.00
H697   H     0.39325   0.29965   0.65752   0.00000  Uiso   1.00
C698   C     0.48031   0.00388   0.67698   0.00000  Uiso   1.00
H699   H     0.50469   0.03751   0.70244   0.00000  Uiso   1.00
H700   H     0.49823   0.30135   0.69441   0.00000  Uiso   1.00
C701   C     0.48953   0.00778   0.61740   0.00000  Uiso   1.00
H702   H     0.46584   0.30763   0.59113   0.00000  Uiso   1.00
H703   H     0.53682   0.00774   0.61690   0.00000  Uiso   1.00
H704   H     0.47371   0.04430   0.59984   0.00000  Uiso   1.00
C705   C     0.68117   0.26463   0.74687   0.00000  Uiso   1.00
C706   C     0.80181   0.16715   0.99337   0.00000  Uiso   1.00
C707   C     0.77434   0.14978   0.93908   0.00000  Uiso   1.00
C708   C     0.86003   0.15543   0.51285   0.00000  Uiso   1.00
C709   C     0.88874   0.12443   0.97967   0.00000  Uiso   1.00
C710   C     0.85964   0.10559   0.92733   0.00000  Uiso   1.00
C711   C     0.80182   0.11521   0.90905   0.00000  Uiso   1.00
C712   C     0.89108   0.17441   0.56433   0.00000  Uiso   1.00
C713   C     0.97253   0.12529   0.55460   0.00000  Uiso   1.00
C714   C     0.72110   0.16929   0.91507   0.00000  Uiso   1.00
C715   C     0.68889   0.31857   0.74144   0.00000  Uiso   1.00
C716   C     0.70224   0.16789   0.85490   0.00000  Uiso   1.00
C717   C     0.97750   0.01368   0.74734   0.00000  Uiso   1.00
C718   C     0.98494   0.06837   0.74998   0.00000  Uiso   1.00
C719   C     0.96425   0.16359   0.64541   0.00000  Uiso   1.00
C720   C     0.94557   0.11084   0.50047   0.00000  Uiso   1.00
C721   C     0.94435   0.15637   0.58648   0.00000  Uiso   1.00
C722   C     0.69069   0.19761   0.94783   0.00000  Uiso   1.00
C723   C     0.71484   0.21013   0.50306   0.00000  Uiso   1.00
C724   C     0.76991   0.19553   0.52583   0.00000  Uiso   1.00
H725   H     0.68099   0.11118   0.57185   0.00000  Uiso   1.00
H726   H     0.93495   0.32980   0.75137   0.00000  Uiso   1.00
H727   H     0.82328   0.12775   0.70654   0.00000  Uiso   1.00
H728   H     0.84278   0.20473   0.79373   0.00000  Uiso   1.00
H729   H     0.96817   0.08702   0.97614   0.00000  Uiso   1.00
H730   H     0.87391   0.20162   0.58956   0.00000  Uiso   1.00
H731   H     0.98210   0.21113   0.93060   0.00000  Uiso   1.00
H732   H     0.78548   0.20637   0.56911   0.00000  Uiso   1.00
H733   H     0.69113   0.23198   0.52820   0.00000  Uiso   1.00
H734   H     0.77954   0.09600   0.87029   0.00000  Uiso   1.00
N735   N     0.81160   0.15223   0.73542   0.00000  Uiso   1.00
N736   N     0.85507   0.18110   0.76457   0.00000  Uiso   1.00
O737   O     0.96435   0.24629   0.75358   0.00000  Uiso   1.00
O738   O     0.72408   0.23704   0.74423   0.00000  Uiso   1.00
O739   O     0.98157   0.17358   0.83380   0.00000  Uiso   1.00
O740   O     0.74130   0.16433   0.82446   0.00000  Uiso   1.00
O741   O     0.94258   0.09629   0.75577   0.00000  Uiso   1.00
O742   O     0.70231   0.08704   0.74642   0.00000  Uiso   1.00
O743   O     0.92537   0.16901   0.67554   0.00000  Uiso   1.00
O744   O     0.68510   0.15976   0.66620   0.00000  Uiso   1.00
Zn745  Zn    0.93786   0.17284   0.75624   0.00000  Uiso   1.00
Zn746  Zn    0.72881   0.16049   0.74376   0.00000  Uiso   1.00
O747   O     0.89021   0.08374   0.89125   0.00000  Uiso   1.00
C748   C     0.87423   0.03022   0.88308   0.00000  Uiso   1.00
H749   H     0.84439   0.02347   0.84193   0.00000  Uiso   1.00
H750   H     0.85179   0.01313   0.91539   0.00000  Uiso   1.00
C751   C     0.92987   0.00315   0.88367   0.00000  Uiso   1.00
H752   H     0.95786   0.02483   0.85894   0.00000  Uiso   1.00
H753   H     0.95479   0.00234   0.92697   0.00000  Uiso   1.00
C754   C     0.91602   0.28163   0.85934   0.00000  Uiso   1.00
H755   H     0.89032   0.28240   0.81649   0.00000  Uiso   1.00
H756   H     0.89109   0.25790   0.88514   0.00000  Uiso   1.00
H757   H     0.95753   0.26458   0.85767   0.00000  Uiso   1.00
O758   O     0.74398   0.00596   0.73635   0.00000  Uiso   1.00
C759   C     0.74898   0.00264   0.67991   0.00000  Uiso   1.00
H760   H     0.72966   0.03632   0.65846   0.00000  Uiso   1.00
H761   H     0.72658   0.29965   0.65752   0.00000  Uiso   1.00
C762   C     0.81364   0.00388   0.67698   0.00000  Uiso   1.00
H763   H     0.83802   0.03751   0.70244   0.00000  Uiso   1.00
H764   H     0.83156   0.30135   0.69441   0.00000  Uiso   1.00
C765   C     0.82286   0.00778   0.61740   0.00000  Uiso   1.00
H766   H     0.79918   0.30763   0.59113   0.00000  Uiso   1.00
H767   H     0.87015   0.00774   0.61690   0.00000  Uiso   1.00
H768   H     0.80704   0.04430   0.59984   0.00000  Uiso   1.00
C769   C     0.01450   0.59796   0.74687   0.00000  Uiso   1.00
C770   C     0.13515   0.50048   0.99337   0.00000  Uiso   1.00
C771   C     0.10767   0.48311   0.93908   0.00000  Uiso   1.00
C772   C     0.19337   0.48877   0.51285   0.00000  Uiso   1.00
C773   C     0.22208   0.45776   0.97967   0.00000  Uiso   1.00
C774   C     0.19297   0.43893   0.92733   0.00000  Uiso   1.00
C775   C     0.13515   0.44854   0.90905   0.00000  Uiso   1.00
C776   C     0.22442   0.50774   0.56433   0.00000  Uiso   1.00
C777   C     0.30586   0.45862   0.55460   0.00000  Uiso   1.00
C778   C     0.05444   0.50263   0.91507   0.00000  Uiso   1.00
C779   C     0.02223   0.65190   0.74144   0.00000  Uiso   1.00
C780   C     0.03558   0.50123   0.85490   0.00000  Uiso   1.00
C781   C     0.31083   0.34701   0.74734   0.00000  Uiso   1.00
C782   C     0.31827   0.40170   0.74998   0.00000  Uiso   1.00
C783   C     0.29758   0.49692   0.64541   0.00000  Uiso   1.00
C784   C     0.27891   0.44417   0.50047   0.00000  Uiso   1.00
C785   C     0.27769   0.48971   0.58648   0.00000  Uiso   1.00
C786   C     0.02402   0.53094   0.94783   0.00000  Uiso   1.00
C787   C     0.04818   0.54346   0.50306   0.00000  Uiso   1.00
C788   C     0.10324   0.52887   0.52583   0.00000  Uiso   1.00
H789   H     0.01432   0.44451   0.57185   0.00000  Uiso   1.00
H790   H     0.26828   0.66313   0.75137   0.00000  Uiso   1.00
H791   H     0.15661   0.46109   0.70654   0.00000  Uiso   1.00
H792   H     0.17612   0.53806   0.79373   0.00000  Uiso   1.00
H793   H     0.30150   0.42036   0.97614   0.00000  Uiso   1.00
H794   H     0.20724   0.53496   0.58956   0.00000  Uiso   1.00
H795   H     0.31543   0.54447   0.93060   0.00000  Uiso   1.00
H796   H     0.11881   0.53970   0.56911   0.00000  Uiso   1.00
H797   H     0.02446   0.56532   0.52820   0.00000  Uiso   1.00
H798   H     0.11287   0.42933   0.87029   0.00000  Uiso   1.00
N799   N     0.14493   0.48556   0.73542   0.00000  Uiso   1.00
N800   N     0.18840   0.51444   0.76457   0.00000  Uiso   1.00
O801   O     0.29769   0.57963   0.75358   0.00000  Uiso   1.00
O802   O     0.05742   0.57038   0.74423   0.00000  Uiso   1.00
O803   O     0.31490   0.50691   0.83380   0.00000  Uiso   1.00
O804   O     0.07463   0.49766   0.82446   0.00000  Uiso   1.00
O805   O     0.27592   0.42962   0.75577   0.00000  Uiso   1.00
O806   O     0.03565   0.42037   0.74642   0.00000  Uiso   1.00
O807   O     0.25870   0.50234   0.67554   0.00000  Uiso   1.00
O808   O     0.01843   0.49309   0.66620   0.00000  Uiso   1.00
Zn809  Zn    0.27119   0.50618   0.75624   0.00000  Uiso   1.00
Zn810  Zn    0.06214   0.49382   0.74376   0.00000  Uiso   1.00
O811   O     0.22355   0.41707   0.89125   0.00000  Uiso   1.00
C812   C     0.20757   0.36355   0.88308   0.00000  Uiso   1.00
H813   H     0.17772   0.35680   0.84193   0.00000  Uiso   1.00
H814   H     0.18512   0.34646   0.91539   0.00000  Uiso   1.00
C815   C     0.26321   0.33648   0.88367   0.00000  Uiso   1.00
H816   H     0.29120   0.35816   0.85894   0.00000  Uiso   1.00
H817   H     0.28812   0.33568   0.92697   0.00000  Uiso   1.00
C818   C     0.24936   0.61496   0.85934   0.00000  Uiso   1.00
H819   H     0.22366   0.61573   0.81649   0.00000  Uiso   1.00
H820   H     0.22442   0.59124   0.88514   0.00000  Uiso   1.00
H821   H     0.29086   0.59791   0.85767   0.00000  Uiso   1.00
O822   O     0.07731   0.33929   0.73635   0.00000  Uiso   1.00
C823   C     0.08231   0.33597   0.67991   0.00000  Uiso   1.00
H824   H     0.06300   0.36965   0.65846   0.00000  Uiso   1.00
H825   H     0.05991   0.63298   0.65752   0.00000  Uiso   1.00
C826   C     0.14698   0.33721   0.67698   0.00000  Uiso   1.00
H827   H     0.17135   0.37085   0.70244   0.00000  Uiso   1.00
H828   H     0.16489   0.63468   0.69441   0.00000  Uiso   1.00
C829   C     0.15620   0.34111   0.61740   0.00000  Uiso   1.00
H830   H     0.13251   0.64096   0.59113   0.00000  Uiso   1.00
H831   H     0.20348   0.34108   0.61690   0.00000  Uiso   1.00
H832   H     0.14038   0.37763   0.59984   0.00000  Uiso   1.00
C833   C     0.34783   0.59796   0.74687   0.00000  Uiso   1.00
C834   C     0.46848   0.50048   0.99337   0.00000  Uiso   1.00
C835   C     0.44100   0.48311   0.93908   0.00000  Uiso   1.00
C836   C     0.52670   0.48877   0.51285   0.00000  Uiso   1.00
C837   C     0.55541   0.45776   0.97967   0.00000  Uiso   1.00
C838   C     0.52630   0.43893   0.92733   0.00000  Uiso   1.00
C839   C     0.46848   0.44854   0.90905   0.00000  Uiso   1.00
C840   C     0.55775   0.50774   0.56433   0.00000  Uiso   1.00
C841   C     0.63919   0.45862   0.55460   0.00000  Uiso   1.00
C842   C     0.38777   0.50263   0.91507   0.00000  Uiso   1.00
C843   C     0.35556   0.65190   0.74144   0.00000  Uiso   1.00
C844   C     0.36891   0.50123   0.85490   0.00000  Uiso   1.00
C845   C     0.64417   0.34701   0.74734   0.00000  Uiso   1.00
C846   C     0.65161   0.40170   0.74998   0.00000  Uiso   1.00
C847   C     0.63091   0.49692   0.64541   0.00000  Uiso   1.00
C848   C     0.61224   0.44417   0.50047   0.00000  Uiso   1.00
C849   C     0.61102   0.48971   0.58648   0.00000  Uiso   1.00
C850   C     0.35736   0.53094   0.94783   0.00000  Uiso   1.00
C851   C     0.38151   0.54346   0.50306   0.00000  Uiso   1.00
C852   C     0.43658   0.52887   0.52583   0.00000  Uiso   1.00
H853   H     0.34765   0.44451   0.57185   0.00000  Uiso   1.00
H854   H     0.60161   0.66313   0.75137   0.00000  Uiso   1.00
H855   H     0.48994   0.46109   0.70654   0.00000  Uiso   1.00
H856   H     0.50945   0.53806   0.79373   0.00000  Uiso   1.00
H857   H     0.63484   0.42036   0.97614   0.00000  Uiso   1.00
H858   H     0.54057   0.53496   0.58956   0.00000  Uiso   1.00
H859   H     0.64877   0.54447   0.93060   0.00000  Uiso   1.00
H860   H     0.45215   0.53970   0.56911   0.00000  Uiso   1.00
H861   H     0.35780   0.56532   0.52820   0.00000  Uiso   1.00
H862   H     0.44620   0.42933   0.87029   0.00000  Uiso   1.00
N863   N     0.47827   0.48556   0.73542   0.00000  Uiso   1.00
N864   N     0.52173   0.51444   0.76457   0.00000  Uiso   1.00
O865   O     0.63102   0.57963   0.75358   0.00000  Uiso   1.00
O866   O     0.39075   0.57038   0.74423   0.00000  Uiso   1.00
O867   O     0.64823   0.50691   0.83380   0.00000  Uiso   1.00
O868   O     0.40796   0.49766   0.82446   0.00000  Uiso   1.00
O869   O     0.60925   0.42962   0.75577   0.00000  Uiso   1.00
O870   O     0.36898   0.42037   0.74642   0.00000  Uiso   1.00
O871   O     0.59204   0.50234   0.67554   0.00000  Uiso   1.00
O872   O     0.35177   0.49309   0.66620   0.00000  Uiso   1.00
Zn873  Zn    0.60453   0.50618   0.75624   0.00000  Uiso   1.00
Zn874  Zn    0.39547   0.49382   0.74376   0.00000  Uiso   1.00
O875   O     0.55688   0.41707   0.89125   0.00000  Uiso   1.00
C876   C     0.54090   0.36355   0.88308   0.00000  Uiso   1.00
H877   H     0.51106   0.35680   0.84193   0.00000  Uiso   1.00
H878   H     0.51845   0.34646   0.91539   0.00000  Uiso   1.00
C879   C     0.59654   0.33648   0.88367   0.00000  Uiso   1.00
H880   H     0.62453   0.35816   0.85894   0.00000  Uiso   1.00
H881   H     0.62145   0.33568   0.92697   0.00000  Uiso   1.00
C882   C     0.58269   0.61496   0.85934   0.00000  Uiso   1.00
H883   H     0.55699   0.61573   0.81649   0.00000  Uiso   1.00
H884   H     0.55776   0.59124   0.88514   0.00000  Uiso   1.00
H885   H     0.62420   0.59791   0.85767   0.00000  Uiso   1.00
O886   O     0.41065   0.33929   0.73635   0.00000  Uiso   1.00
C887   C     0.41565   0.33597   0.67991   0.00000  Uiso   1.00
H888   H     0.39633   0.36965   0.65846   0.00000  Uiso   1.00
H889   H     0.39325   0.63298   0.65752   0.00000  Uiso   1.00
C890   C     0.48031   0.33721   0.67698   0.00000  Uiso   1.00
H891   H     0.50469   0.37085   0.70244   0.00000  Uiso   1.00
H892   H     0.49823   0.63468   0.69441   0.00000  Uiso   1.00
C893   C     0.48953   0.34111   0.61740   0.00000  Uiso   1.00
H894   H     0.46584   0.64096   0.59113   0.00000  Uiso   1.00
H895   H     0.53682   0.34108   0.61690   0.00000  Uiso   1.00
H896   H     0.47371   0.37763   0.59984   0.00000  Uiso   1.00
C897   C     0.68117   0.59796   0.74687   0.00000  Uiso   1.00
C898   C     0.80181   0.50048   0.99337   0.00000  Uiso   1.00
C899   C     0.77434   0.48311   0.93908   0.00000  Uiso   1.00
C900   C     0.86003   0.48877   0.51285   0.00000  Uiso   1.00
C901   C     0.88874   0.45776   0.97967   0.00000  Uiso   1.00
C902   C     0.85964   0.43893   0.92733   0.00000  Uiso   1.00
C903   C     0.80182   0.44854   0.90905   0.00000  Uiso   1.00
C904   C     0.89108   0.50774   0.56433   0.00000  Uiso   1.00
C905   C     0.97253   0.45862   0.55460   0.00000  Uiso   1.00
C906   C     0.72110   0.50263   0.91507   0.00000  Uiso   1.00
C907   C     0.68889   0.65190   0.74144   0.00000  Uiso   1.00
C908   C     0.70224   0.50123   0.85490   0.00000  Uiso   1.00
C909   C     0.97750   0.34701   0.74734   0.00000  Uiso   1.00
C910   C     0.98494   0.40170   0.74998   0.00000  Uiso   1.00
C911   C     0.96425   0.49692   0.64541   0.00000  Uiso   1.00
C912   C     0.94557   0.44417   0.50047   0.00000  Uiso   1.00
C913   C     0.94435   0.48971   0.58648   0.00000  Uiso   1.00
C914   C     0.69069   0.53094   0.94783   0.00000  Uiso   1.00
C915   C     0.71484   0.54346   0.50306   0.00000  Uiso   1.00
C916   C     0.76991   0.52887   0.52583   0.00000  Uiso   1.00
H917   H     0.68099   0.44451   0.57185   0.00000  Uiso   1.00
H918   H     0.93495   0.66313   0.75137   0.00000  Uiso   1.00
H919   H     0.82328   0.46109   0.70654   0.00000  Uiso   1.00
H920   H     0.84278   0.53806   0.79373   0.00000  Uiso   1.00
H921   H     0.96817   0.42036   0.97614   0.00000  Uiso   1.00
H922   H     0.87391   0.53496   0.58956   0.00000  Uiso   1.00
H923   H     0.98210   0.54447   0.93060   0.00000  Uiso   1.00
H924   H     0.78548   0.53970   0.56911   0.00000  Uiso   1.00
H925   H     0.69113   0.56532   0.52820   0.00000  Uiso   1.00
H926   H     0.77954   0.42933   0.87029   0.00000  Uiso   1.00
N927   N     0.81160   0.48556   0.73542   0.00000  Uiso   1.00
N928   N     0.85507   0.51444   0.76457   0.00000  Uiso   1.00
O929   O     0.96435   0.57963   0.75358   0.00000  Uiso   1.00
O930   O     0.72408   0.57038   0.74423   0.00000  Uiso   1.00
O931   O     0.98157   0.50691   0.83380   0.00000  Uiso   1.00
O932   O     0.74130   0.49766   0.82446   0.00000  Uiso   1.00
O933   O     0.94258   0.42962   0.75577   0.00000  Uiso   1.00
O934   O     0.70231   0.42037   0.74642   0.00000  Uiso   1.00
O935   O     0.92537   0.50234   0.67554   0.00000  Uiso   1.00
O936   O     0.68510   0.49309   0.66620   0.00000  Uiso   1.00
Zn937  Zn    0.93786   0.50618   0.75624   0.00000  Uiso   1.00
Zn938  Zn    0.72881   0.49382   0.74376   0.00000  Uiso   1.00
O939   O     0.89021   0.41707   0.89125   0.00000  Uiso   1.00
C940   C     0.87423   0.36355   0.88308   0.00000  Uiso   1.00
H941   H     0.84439   0.35680   0.84193   0.00000  Uiso   1.00
H942   H     0.85179   0.34646   0.91539   0.00000  Uiso   1.00
C943   C     0.92987   0.33648   0.88367   0.00000  Uiso   1.00
H944   H     0.95786   0.35816   0.85894   0.00000  Uiso   1.00
H945   H     0.95479   0.33568   0.92697   0.00000  Uiso   1.00
C946   C     0.91602   0.61496   0.85934   0.00000  Uiso   1.00
H947   H     0.89032   0.61573   0.81649   0.00000  Uiso   1.00
H948   H     0.89109   0.59124   0.88514   0.00000  Uiso   1.00
H949   H     0.95753   0.59791   0.85767   0.00000  Uiso   1.00
O950   O     0.74398   0.33929   0.73635   0.00000  Uiso   1.00
C951   C     0.74898   0.33597   0.67991   0.00000  Uiso   1.00
H952   H     0.72966   0.36965   0.65846   0.00000  Uiso   1.00
H953   H     0.72658   0.63298   0.65752   0.00000  Uiso   1.00
C954   C     0.81364   0.33721   0.67698   0.00000  Uiso   1.00
H955   H     0.83802   0.37085   0.70244   0.00000  Uiso   1.00
H956   H     0.83156   0.63468   0.69441   0.00000  Uiso   1.00
C957   C     0.82286   0.34111   0.61740   0.00000  Uiso   1.00
H958   H     0.79918   0.64096   0.59113   0.00000  Uiso   1.00
H959   H     0.87015   0.34108   0.61690   0.00000  Uiso   1.00
H960   H     0.80704   0.37763   0.59984   0.00000  Uiso   1.00
C961   C     0.01450   0.93130   0.74687   0.00000  Uiso   1.00
C962   C     0.13515   0.83381   0.99337   0.00000  Uiso   1.00
C963   C     0.10767   0.81644   0.93908   0.00000  Uiso   1.00
C964   C     0.19337   0.82210   0.51285   0.00000  Uiso   1.00
C965   C     0.22208   0.79109   0.97967   0.00000  Uiso   1.00
C966   C     0.19297   0.77226   0.92733   0.00000  Uiso   1.00
C967   C     0.13515   0.78188   0.90905   0.00000  Uiso   1.00
C968   C     0.22442   0.84108   0.56433   0.00000  Uiso   1.00
C969   C     0.30586   0.79196   0.55460   0.00000  Uiso   1.00
C970   C     0.05444   0.83596   0.91507   0.00000  Uiso   1.00
C971   C     0.02223   0.98523   0.74144   0.00000  Uiso   1.00
C972   C     0.03558   0.83456   0.85490   0.00000  Uiso   1.00
C973   C     0.31083   0.68034   0.74734   0.00000  Uiso   1.00
C974   C     0.31827   0.73503   0.74998   0.00000  Uiso   1.00
C975   C     0.29758   0.83026   0.64541   0.00000  Uiso   1.00
C976   C     0.27891   0.77750   0.50047   0.00000  Uiso   1.00
C977   C     0.27769   0.82304   0.58648   0.00000  Uiso   1.00
C978   C     0.02402   0.86427   0.94783   0.00000  Uiso   1.00
C979   C     0.04818   0.87680   0.50306   0.00000  Uiso   1.00
C980   C     0.10324   0.86220   0.52583   0.00000  Uiso   1.00
H981   H     0.01432   0.77784   0.57185   0.00000  Uiso   1.00
H982   H     0.26828   0.99647   0.75137   0.00000  Uiso   1.00
H983   H     0.15661   0.79442   0.70654   0.00000  Uiso   1.00
H984   H     0.17612   0.87140   0.79373   0.00000  Uiso   1.00
H985   H     0.30150   0.75369   0.97614   0.00000  Uiso   1.00
H986   H     0.20724   0.86829   0.58956   0.00000  Uiso   1.00
H987   H     0.31543   0.87780   0.93060   0.00000  Uiso   1.00
H988   H     0.11881   0.87303   0.56911   0.00000  Uiso   1.00
H989   H     0.02446   0.89865   0.52820   0.00000  Uiso   1.00
H990   H     0.11287   0.76267   0.87029   0.00000  Uiso   1.00
N991   N     0.14493   0.81890   0.73542   0.00000  Uiso   1.00
N992   N     0.18840   0.84777   0.76457   0.00000  Uiso   1.00
O993   O     0.29769   0.91296   0.75358   0.00000  Uiso   1.00
O994   O     0.05742   0.90371   0.74423   0.00000  Uiso   1.00
O995   O     0.31490   0.84024   0.83380   0.00000  Uiso   1.00
O996   O     0.07463   0.83099   0.82446   0.00000  Uiso   1.00
O997   O     0.27592   0.76296   0.75577   0.00000  Uiso   1.00
O998   O     0.03565   0.75371   0.74642   0.00000  Uiso   1.00
O999   O     0.25870   0.83567   0.67554   0.00000  Uiso   1.00
O1000  O     0.01843   0.82642   0.66620   0.00000  Uiso   1.00
Zn1001 Zn    0.27119   0.83951   0.75624   0.00000  Uiso   1.00
Zn1002 Zn    0.06214   0.82716   0.74376   0.00000  Uiso   1.00
O1003  O     0.22355   0.75041   0.89125   0.00000  Uiso   1.00
C1004  C     0.20757   0.69688   0.88308   0.00000  Uiso   1.00
H1005  H     0.17772   0.69013   0.84193   0.00000  Uiso   1.00
H1006  H     0.18512   0.67979   0.91539   0.00000  Uiso   1.00
C1007  C     0.26321   0.66981   0.88367   0.00000  Uiso   1.00
H1008  H     0.29120   0.69149   0.85894   0.00000  Uiso   1.00
H1009  H     0.28812   0.66901   0.92697   0.00000  Uiso   1.00
C1010  C     0.24936   0.94829   0.85934   0.00000  Uiso   1.00
H1011  H     0.22366   0.94906   0.81649   0.00000  Uiso   1.00
H1012  H     0.22442   0.92457   0.88514   0.00000  Uiso   1.00
H1013  H     0.29086   0.93124   0.85767   0.00000  Uiso   1.00
O1014  O     0.07731   0.67263   0.73635   0.00000  Uiso   1.00
C1015  C     0.08231   0.66931   0.67991   0.00000  Uiso   1.00
H1016  H     0.06300   0.70298   0.65846   0.00000  Uiso   1.00
H1017  H     0.05991   0.96631   0.65752   0.00000  Uiso   1.00
C1018  C     0.14698   0.67054   0.67698   0.00000  Uiso   1.00
H1019  H     0.17135   0.70418   0.70244   0.00000  Uiso   1.00
H1020  H     0.16489   0.96801   0.69441   0.00000  Uiso   1.00
C1021  C     0.15620   0.67444   0.61740   0.00000  Uiso   1.00
H1022  H     0.13251   0.97429   0.59113   0.00000  Uiso   1.00
H1023  H     0.20348   0.67441   0.61690   0.00000  Uiso   1.00
H1024  H     0.14038   0.71096   0.59984   0.00000  Uiso   1.00
C1025  C     0.34783   0.93130   0.74687   0.00000  Uiso   1.00
C1026  C     0.46848   0.83381   0.99337   0.00000  Uiso   1.00
C1027  C     0.44100   0.81644   0.93908   0.00000  Uiso   1.00
C1028  C     0.52670   0.82210   0.51285   0.00000  Uiso   1.00
C1029  C     0.55541   0.79109   0.97967   0.00000  Uiso   1.00
C1030  C     0.52630   0.77226   0.92733   0.00000  Uiso   1.00
C1031  C     0.46848   0.78188   0.90905   0.00000  Uiso   1.00
C1032  C     0.55775   0.84108   0.56433   0.00000  Uiso   1.00
C1033  C     0.63919   0.79196   0.55460   0.00000  Uiso   1.00
C1034  C     0.38777   0.83596   0.91507   0.00000  Uiso   1.00
C1035  C     0.35556   0.98523   0.74144   0.00000  Uiso   1.00
C1036  C     0.36891   0.83456   0.85490   0.00000  Uiso   1.00
C1037  C     0.64417   0.68034   0.74734   0.00000  Uiso   1.00
C1038  C     0.65161   0.73503   0.74998   0.00000  Uiso   1.00
C1039  C     0.63091   0.83026   0.64541   0.00000  Uiso   1.00
C1040  C     0.61224   0.77750   0.50047   0.00000  Uiso   1.00
C1041  C     0.61102   0.82304   0.58648   0.00000  Uiso   1.00
C1042  C     0.35736   0.86427   0.94783   0.00000  Uiso   1.00
C1043  C     0.38151   0.87680   0.50306   0.00000  Uiso   1.00
C1044  C     0.43658   0.86220   0.52583   0.00000  Uiso   1.00
H1045  H     0.34765   0.77784   0.57185   0.00000  Uiso   1.00
H1046  H     0.60161   0.99647   0.75137   0.00000  Uiso   1.00
H1047  H     0.48994   0.79442   0.70654   0.00000  Uiso   1.00
H1048  H     0.50945   0.87140   0.79373   0.00000  Uiso   1.00
H1049  H     0.63484   0.75369   0.97614   0.00000  Uiso   1.00
H1050  H     0.54057   0.86829   0.58956   0.00000  Uiso   1.00
H1051  H     0.64877   0.87780   0.93060   0.00000  Uiso   1.00
H1052  H     0.45215   0.87303   0.56911   0.00000  Uiso   1.00
H1053  H     0.35780   0.89865   0.52820   0.00000  Uiso   1.00
H1054  H     0.44620   0.76267   0.87029   0.00000  Uiso   1.00
N1055  N     0.47827   0.81890   0.73542   0.00000  Uiso   1.00
N1056  N     0.52173   0.84777   0.76457   0.00000  Uiso   1.00
O1057  O     0.63102   0.91296   0.75358   0.00000  Uiso   1.00
O1058  O     0.39075   0.90371   0.74423   0.00000  Uiso   1.00
O1059  O     0.64823   0.84024   0.83380   0.00000  Uiso   1.00
O1060  O     0.40796   0.83099   0.82446   0.00000  Uiso   1.00
O1061  O     0.60925   0.76296   0.75577   0.00000  Uiso   1.00
O1062  O     0.36898   0.75371   0.74642   0.00000  Uiso   1.00
O1063  O     0.59204   0.83567   0.67554   0.00000  Uiso   1.00
O1064  O     0.35177   0.82642   0.66620   0.00000  Uiso   1.00
Zn1065 Zn    0.60453   0.83951   0.75624   0.00000  Uiso   1.00
Zn1066 Zn    0.39547   0.82716   0.74376   0.00000  Uiso   1.00
O1067  O     0.55688   0.75041   0.89125   0.00000  Uiso   1.00
C1068  C     0.54090   0.69688   0.88308   0.00000  Uiso   1.00
H1069  H     0.51106   0.69013   0.84193   0.00000  Uiso   1.00
H1070  H     0.51845   0.67979   0.91539   0.00000  Uiso   1.00
C1071  C     0.59654   0.66981   0.88367   0.00000  Uiso   1.00
H1072  H     0.62453   0.69149   0.85894   0.00000  Uiso   1.00
H1073  H     0.62145   0.66901   0.92697   0.00000  Uiso   1.00
C1074  C     0.58269   0.94829   0.85934   0.00000  Uiso   1.00
H1075  H     0.55699   0.94906   0.81649   0.00000  Uiso   1.00
H1076  H     0.55776   0.92457   0.88514   0.00000  Uiso   1.00
H1077  H     0.62420   0.93124   0.85767   0.00000  Uiso   1.00
O1078  O     0.41065   0.67263   0.73635   0.00000  Uiso   1.00
C1079  C     0.41565   0.66931   0.67991   0.00000  Uiso   1.00
H1080  H     0.39633   0.70298   0.65846   0.00000  Uiso   1.00
H1081  H     0.39325   0.96631   0.65752   0.00000  Uiso   1.00
C1082  C     0.48031   0.67054   0.67698   0.00000  Uiso   1.00
H1083  H     0.50469   0.70418   0.70244   0.00000  Uiso   1.00
H1084  H     0.49823   0.96801   0.69441   0.00000  Uiso   1.00
C1085  C     0.48953   0.67444   0.61740   0.00000  Uiso   1.00
H1086  H     0.46584   0.97429   0.59113   0.00000  Uiso   1.00
H1087  H     0.53682   0.67441   0.61690   0.00000  Uiso   1.00
H1088  H     0.47371   0.71096   0.59984   0.00000  Uiso   1.00
C1089  C     0.68117   0.93130   0.74687   0.00000  Uiso   1.00
C1090  C     0.80181   0.83381   0.99337   0.00000  Uiso   1.00
C1091  C     0.77434   0.81644   0.93908   0.00000  Uiso   1.00
C1092  C     0.86003   0.82210   0.51285   0.00000  Uiso   1.00
C1093  C     0.88874   0.79109   0.97967   0.00000  Uiso   1.00
C1094  C     0.85964   0.77226   0.92733   0.00000  Uiso   1.00
C1095  C     0.80182   0.78188   0.90905   0.00000  Uiso   1.00
C1096  C     0.89108   0.84108   0.56433   0.00000  Uiso   1.00
C1097  C     0.97253   0.79196   0.55460   0.00000  Uiso   1.00
C1098  C     0.72110   0.83596   0.91507   0.00000  Uiso   1.00
C1099  C     0.68889   0.98523   0.74144   0.00000  Uiso   1.00
C1100  C     0.70224   0.83456   0.85490   0.00000  Uiso   1.00
C1101  C     0.97750   0.68034   0.74734   0.00000  Uiso   1.00
C1102  C     0.98494   0.73503   0.74998   0.00000  Uiso   1.00
C1103  C     0.96425   0.83026   0.64541   0.00000  Uiso   1.00
C1104  C     0.94557   0.77750   0.50047   0.00000  Uiso   1.00
C1105  C     0.94435   0.82304   0.58648   0.00000  Uiso   1.00
C1106  C     0.69069   0.86427   0.94783   0.00000  Uiso   1.00
C1107  C     0.71484   0.87680   0.50306   0.00000  Uiso   1.00
C1108  C     0.76991   0.86220   0.52583   0.00000  Uiso   1.00
H1109  H     0.68099   0.77784   0.57185   0.00000  Uiso   1.00
H1110  H     0.93495   0.99647   0.75137   0.00000  Uiso   1.00
H1111  H     0.82328   0.79442   0.70654   0.00000  Uiso   1.00
H1112  H     0.84278   0.87140   0.79373   0.00000  Uiso   1.00
H1113  H     0.96817   0.75369   0.97614   0.00000  Uiso   1.00
H1114  H     0.87391   0.86829   0.58956   0.00000  Uiso   1.00
H1115  H     0.98210   0.87780   0.93060   0.00000  Uiso   1.00
H1116  H     0.78548   0.87303   0.56911   0.00000  Uiso   1.00
H1117  H     0.69113   0.89865   0.52820   0.00000  Uiso   1.00
H1118  H     0.77954   0.76267   0.87029   0.00000  Uiso   1.00
N1119  N     0.81160   0.81890   0.73542   0.00000  Uiso   1.00
N1120  N     0.85507   0.84777   0.76457   0.00000  Uiso   1.00
O1121  O     0.96435   0.91296   0.75358   0.00000  Uiso   1.00
O1122  O     0.72408   0.90371   0.74423   0.00000  Uiso   1.00
O1123  O     0.98157   0.84024   0.83380   0.00000  Uiso   1.00
O1124  O     0.74130   0.83099   0.82446   0.00000  Uiso   1.00
O1125  O     0.94258   0.76296   0.75577   0.00000  Uiso   1.00
O1126  O     0.70231   0.75371   0.74642   0.00000  Uiso   1.00
O1127  O     0.92537   0.83567   0.67554   0.00000  Uiso   1.00
O1128  O     0.68510   0.82642   0.66620   0.00000  Uiso   1.00
Zn1129 Zn    0.93786   0.83951   0.75624   0.00000  Uiso   1.00
Zn1130 Zn    0.72881   0.82716   0.74376   0.00000  Uiso   1.00
O1131  O     0.89021   0.75041   0.89125   0.00000  Uiso   1.00
C1132  C     0.87423   0.69688   0.88308   0.00000  Uiso   1.00
H1133  H     0.84439   0.69013   0.84193   0.00000  Uiso   1.00
H1134  H     0.85179   0.67979   0.91539   0.00000  Uiso   1.00
C1135  C     0.92987   0.66981   0.88367   0.00000  Uiso   1.00
H1136  H     0.95786   0.69149   0.85894   0.00000  Uiso   1.00
H1137  H     0.95479   0.66901   0.92697   0.00000  Uiso   1.00
C1138  C     0.91602   0.94829   0.85934   0.00000  Uiso   1.00
H1139  H     0.89032   0.94906   0.81649   0.00000  Uiso   1.00
H1140  H     0.89109   0.92457   0.88514   0.00000  Uiso   1.00
H1141  H     0.95753   0.93124   0.85767   0.00000  Uiso   1.00
O1142  O     0.74398   0.67263   0.73635   0.00000  Uiso   1.00
C1143  C     0.74898   0.66931   0.67991   0.00000  Uiso   1.00
H1144  H     0.72966   0.70298   0.65846   0.00000  Uiso   1.00
H1145  H     0.72658   0.96631   0.65752   0.00000  Uiso   1.00
C1146  C     0.81364   0.67054   0.67698   0.00000  Uiso   1.00
H1147  H     0.83802   0.70418   0.70244   0.00000  Uiso   1.00
H1148  H     0.83156   0.96801   0.69441   0.00000  Uiso   1.00
C1149  C     0.82286   0.67444   0.61740   0.00000  Uiso   1.00
H1150  H     0.79918   0.97429   0.59113   0.00000  Uiso   1.00
H1151  H     0.87015   0.67441   0.61690   0.00000  Uiso   1.00
H1152  H     0.80704   0.71096   0.59984   0.00000  Uiso   1.00
loop_
_geom_bond_atom_site_label_1
_geom_bond_atom_site_label_2
_geom_bond_distance
_geom_bond_site_symmetry_2
_ccdc_geom_bond_type
C1     O34     1.288   .     A
C1     C11     1.410   .     S
C1     O161    1.277   1_455 S
C2     C3      1.408   .     A
C2     C580    1.414   .     S
C2     C596    1.421   .     S
C3     C10     1.409   .     A
C3     C7      1.413   .     A
C4     C8      1.387   .     A
C4     C578    1.414   1_554 S
C4     C581    1.422   1_554 S
C5     C6      1.389   .     A
C5     C580    1.422   .     S
C5     C592    1.405   .     S
C6     C7      1.386   .     A
C6     O43     1.379   .     S
C7     H30     1.081   .     S
C8     H26     1.077   .     S
C8     C17     1.383   .     A
C9     C17     1.395   .     A
C9     C16     1.385   .     A
C9     H85     1.084   .     S
C10    C12     1.457   .     S
C10    C18     1.401   .     A
C11    C333    1.354   1_455 S
C11    O246    1.390   .     S
C12    O36     1.297   .     A
C12    O163    1.292   1_455 S
C13    C14     1.414   .     S
C13    C459    1.354   1_545 S
C13    H406    1.085   1_545 S
C14    O37     1.299   .     A
C14    O102    1.269   .     S
C15    C17     1.434   .     S
C15    O39     1.294   .     A
C15    O104    1.285   .     S
C16    C581    1.405   1_554 S
C16    H601    1.082   1_554 S
C18    C595    1.384   .     S
C18    H155    1.080   1_455 S
C19    H29     1.083   .     S
C19    C20     1.388   .     A
C19    C594    1.384   1_554 S
C20    H28     1.077   .     S
C20    C578    1.421   1_554 S
H21    C137    1.084   1_455 S
H22    C205    1.085   .     S
H23    N31     1.028   .     S
H24    N32     1.026   .     S
H25    C592    1.082   .     S
H27    C82     1.080   .     S
N31    Zn42    2.017   .     S
N31    N32     1.296   .     D
N32    Zn41    2.017   .     S
O33    Zn41    1.965   .     S
O33    C65     1.277   .     S
O34    Zn42    1.996   .     S
O35    Zn41    1.979   .     S
O35    C76     1.292   .     S
O36    Zn42    1.946   .     S
O37    Zn41    1.996   .     S
O38    Zn42    1.965   .     S
O38    C142    1.269   1_455 S
O39    Zn41    1.946   .     S
O40    Zn42    1.979   .     S
O40    C143    1.285   1_455 S
O43    C44     1.408   .     S
C44    C47     1.525   .     S
C44    H45     1.112   .     S
C44    H46     1.119   .     S
C47    H48     1.111   .     S
C47    H49     1.111   .     S
C47    C434    1.514   1_545 S
C50    H52     1.111   .     S
C50    H53     1.106   .     S
C50    H51     1.108   .     S
C50    C239    1.514   .     S
O54    C55     1.416   .     S
O54    C395    1.390   1_545 S
C55    H56     1.113   .     S
C55    C58     1.529   .     S
C55    H441    1.117   1_545 S
H57    C247    1.117   .     S
C58    C61     1.526   .     S
C58    H59     1.110   .     S
C58    H444    1.112   1_545 S
H60    C250    1.112   .     S
C61    H64     1.111   .     S
C61    H63     1.111   .     S
C61    H446    1.111   1_545 S
H62    C253    1.111   .     S
C65    O98     1.288   .     A
C65    C75     1.410   .     S
C66    C67     1.408   .     A
C66    C644    1.414   .     S
C66    C660    1.421   .     S
C67    C74     1.409   .     A
C67    C71     1.413   .     A
C68    C72     1.387   .     A
C68    C642    1.414   1_554 S
C68    C645    1.422   1_554 S
C69    C70     1.389   .     A
C69    C644    1.422   .     S
C69    C656    1.405   .     S
C70    C71     1.386   .     A
C70    O107    1.379   .     S
C71    H94     1.081   .     S
C72    H90     1.077   .     S
C72    C81     1.383   .     A
C73    C81     1.395   .     A
C73    C80     1.385   .     A
C73    H149    1.084   .     S
C74    C76     1.457   .     S
C74    C82     1.401   .     A
C75    C205    1.354   .     S
C75    O310    1.390   .     S
C76    O100    1.297   .     A
C77    C78     1.414   .     S
C77    C523    1.354   1_545 S
C77    H470    1.085   1_545 S
C78    O101    1.299   .     A
C78    O166    1.269   .     S
C79    C81     1.434   .     S
C79    O103    1.294   .     A
C79    O168    1.285   .     S
C80    C645    1.405   1_554 S
C80    H665    1.082   1_554 S
C82    C659    1.384   .     S
C83    H93     1.083   .     S
C83    C84     1.388   .     A
C83    C658    1.384   1_554 S
C84    H92     1.077   .     S
C84    C642    1.421   1_554 S
H86    C269    1.085   .     S
H87    N95     1.028   .     S
H88    N96     1.026   .     S
H89    C656    1.082   .     S
H91    C146    1.080   .     S
N95    Zn106   2.017   .     S
N95    N96     1.296   .     D
N96    Zn105   2.017   .     S
O97    Zn105   1.965   .     S
O97    C129    1.277   .     S
O98    Zn106   1.996   .     S
O99    Zn105   1.979   .     S
O99    C140    1.292   .     S
O100   Zn106   1.946   .     S
O101   Zn105   1.996   .     S
O102   Zn106   1.965   .     S
O103   Zn105   1.946   .     S
O104   Zn106   1.979   .     S
O107   C108    1.408   .     S
C108   C111    1.525   .     S
C108   H109    1.112   .     S
C108   H110    1.119   .     S
C111   H112    1.111   .     S
C111   H113    1.111   .     S
C111   C498    1.514   1_545 S
C114   H116    1.111   .     S
C114   H117    1.106   .     S
C114   H115    1.108   .     S
C114   C303    1.514   .     S
O118   C119    1.416   .     S
O118   C459    1.390   1_545 S
C119   H120    1.113   .     S
C119   C122    1.529   .     S
C119   H505    1.117   1_545 S
H121   C311    1.117   .     S
C122   C125    1.526   .     S
C122   H123    1.110   .     S
C122   H508    1.112   1_545 S
H124   C314    1.112   .     S
C125   H128    1.111   .     S
C125   H127    1.111   .     S
C125   H510    1.111   1_545 S
H126   C317    1.111   .     S
C129   O162    1.288   .     A
C129   C139    1.410   .     S
C130   C131    1.408   .     A
C130   C708    1.414   .     S
C130   C724    1.421   .     S
C131   C138    1.409   .     A
C131   C135    1.413   .     A
C132   C136    1.387   .     A
C132   C706    1.414   1_554 S
C132   C709    1.422   1_554 S
C133   C134    1.389   .     A
C133   C708    1.422   .     S
C133   C720    1.405   .     S
C134   C135    1.386   .     A
C134   O171    1.379   .     S
C135   H158    1.081   .     S
C136   H154    1.077   .     S
C136   C145    1.383   .     A
C137   C145    1.395   .     A
C137   C144    1.385   .     A
C137   H21     1.084   1_655 S
C138   C140    1.457   .     S
C138   C146    1.401   .     A
C139   C269    1.354   .     S
C139   O374    1.390   .     S
C140   O164    1.297   .     A
C141   C142    1.414   .     S
C141   C395    1.354   1_645 S
C141   H534    1.085   1_545 S
C142   O165    1.299   .     A
C142   O38     1.269   1_655 S
C143   C145    1.434   .     S
C143   O167    1.294   .     A
C143   O40     1.285   1_655 S
C144   C709    1.405   1_554 S
C144   H729    1.082   1_554 S
C146   C723    1.384   .     S
C147   H157    1.083   .     S
C147   C148    1.388   .     A
C147   C722    1.384   1_554 S
C148   H156    1.077   .     S
C148   C706    1.421   1_554 S
H150   C333    1.085   .     S
H151   N159    1.028   .     S
H152   N160    1.026   .     S
H153   C720    1.082   .     S
H155   C18     1.080   1_655 S
N159   Zn170   2.017   .     S
N159   N160    1.296   .     D
N160   Zn169   2.017   .     S
O161   Zn169   1.965   .     S
O161   C1      1.277   1_655 S
O162   Zn170   1.996   .     S
O163   Zn169   1.979   .     S
O163   C12     1.292   1_655 S
O164   Zn170   1.946   .     S
O165   Zn169   1.996   .     S
O166   Zn170   1.965   .     S
O167   Zn169   1.946   .     S
O168   Zn170   1.979   .     S
O171   C172    1.408   .     S
C172   C175    1.525   .     S
C172   H173    1.112   .     S
C172   H174    1.119   .     S
C175   H176    1.111   .     S
C175   H177    1.111   .     S
C175   C562    1.514   1_545 S
C178   H180    1.111   .     S
C178   H181    1.106   .     S
C178   H179    1.108   .     S
C178   C367    1.514   .     S
O182   C183    1.416   .     S
O182   C523    1.390   1_545 S
C183   H184    1.113   .     S
C183   C186    1.529   .     S
C183   H569    1.117   1_545 S
H185   C375    1.117   .     S
C186   C189    1.526   .     S
C186   H187    1.110   .     S
C186   H572    1.112   1_545 S
H188   C378    1.112   .     S
C189   H192    1.111   .     S
C189   H191    1.111   .     S
C189   H574    1.111   1_545 S
H190   C381    1.111   .     S
C193   O226    1.288   .     A
C193   C203    1.410   .     S
C193   O353    1.277   1_455 S
C194   C195    1.408   .     A
C194   C772    1.414   .     S
C194   C788    1.421   .     S
C195   C202    1.409   .     A
C195   C199    1.413   .     A
C196   C200    1.387   .     A
C196   C770    1.414   1_554 S
C196   C773    1.422   1_554 S
C197   C198    1.389   .     A
C197   C772    1.422   .     S
C197   C784    1.405   .     S
C198   C199    1.386   .     A
C198   O235    1.379   .     S
C199   H222    1.081   .     S
C200   H218    1.077   .     S
C200   C209    1.383   .     A
C201   C209    1.395   .     A
C201   C208    1.385   .     A
C201   H277    1.084   .     S
C202   C204    1.457   .     S
C202   C210    1.401   .     A
C203   C525    1.354   1_455 S
C203   O438    1.390   .     S
C204   O228    1.297   .     A
C204   O355    1.292   1_455 S
C205   C206    1.414   .     S
C206   O229    1.299   .     A
C206   O294    1.269   .     S
C207   C209    1.434   .     S
C207   O231    1.294   .     A
C207   O296    1.285   .     S
C208   C773    1.405   1_554 S
C208   H793    1.082   1_554 S
C210   C787    1.384   .     S
C210   H347    1.080   1_455 S
C211   H221    1.083   .     S
C211   C212    1.388   .     A
C211   C786    1.384   1_554 S
C212   H220    1.077   .     S
C212   C770    1.421   1_554 S
H213   C329    1.084   1_455 S
H214   C397    1.085   .     S
H215   N223    1.028   .     S
H216   N224    1.026   .     S
H217   C784    1.082   .     S
H219   C274    1.080   .     S
N223   Zn234   2.017   .     S
N223   N224    1.296   .     D
N224   Zn233   2.017   .     S
O225   Zn233   1.965   .     S
O225   C257    1.277   .     S
O226   Zn234   1.996   .     S
O227   Zn233   1.979   .     S
O227   C268    1.292   .     S
O228   Zn234   1.946   .     S
O229   Zn233   1.996   .     S
O230   Zn234   1.965   .     S
O230   C334    1.269   1_455 S
O231   Zn233   1.946   .     S
O232   Zn234   1.979   .     S
O232   C335    1.285   1_455 S
O235   C236    1.408   .     S
C236   C239    1.525   .     S
C236   H237    1.112   .     S
C236   H238    1.119   .     S
C239   H240    1.111   .     S
C239   H241    1.111   .     S
C242   H244    1.111   .     S
C242   H245    1.106   .     S
C242   H243    1.108   .     S
C242   C431    1.514   .     S
O246   C247    1.416   .     S
C247   H248    1.113   .     S
C247   C250    1.529   .     S
H249   C439    1.117   .     S
C250   C253    1.526   .     S
C250   H251    1.110   .     S
H252   C442    1.112   .     S
C253   H256    1.111   .     S
C253   H255    1.111   .     S
H254   C445    1.111   .     S
C257   O290    1.288   .     A
C257   C267    1.410   .     S
C258   C259    1.408   .     A
C258   C836    1.414   .     S
C258   C852    1.421   .     S
C259   C266    1.409   .     A
C259   C263    1.413   .     A
C260   C264    1.387   .     A
C260   C834    1.414   1_554 S
C260   C837    1.422   1_554 S
C261   C262    1.389   .     A
C261   C836    1.422   .     S
C261   C848    1.405   .     S
C262   C263    1.386   .     A
C262   O299    1.379   .     S
C263   H286    1.081   .     S
C264   H282    1.077   .     S
C264   C273    1.383   .     A
C265   C273    1.395   .     A
C265   C272    1.385   .     A
C265   H341    1.084   .     S
C266   C268    1.457   .     S
C266   C274    1.401   .     A
C267   C397    1.354   .     S
C267   O502    1.390   .     S
C268   O292    1.297   .     A
C269   C270    1.414   .     S
C270   O293    1.299   .     A
C270   O358    1.269   .     S
C271   C273    1.434   .     S
C271   O295    1.294   .     A
C271   O360    1.285   .     S
C272   C837    1.405   1_554 S
C272   H857    1.082   1_554 S
C274   C851    1.384   .     S
C275   H285    1.083   .     S
C275   C276    1.388   .     A
C275   C850    1.384   1_554 S
C276   H284    1.077   .     S
C276   C834    1.421   1_554 S
H278   C461    1.085   .     S
H279   N287    1.028   .     S
H280   N288    1.026   .     S
H281   C848    1.082   .     S
H283   C338    1.080   .     S
N287   Zn298   2.017   .     S
N287   N288    1.296   .     D
N288   Zn297   2.017   .     S
O289   Zn297   1.965   .     S
O289   C321    1.277   .     S
O290   Zn298   1.996   .     S
O291   Zn297   1.979   .     S
O291   C332    1.292   .     S
O292   Zn298   1.946   .     S
O293   Zn297   1.996   .     S
O294   Zn298   1.965   .     S
O295   Zn297   1.946   .     S
O296   Zn298   1.979   .     S
O299   C300    1.408   .     S
C300   C303    1.525   .     S
C300   H301    1.112   .     S
C300   H302    1.119   .     S
C303   H304    1.111   .     S
C303   H305    1.111   .     S
C306   H308    1.111   .     S
C306   H309    1.106   .     S
C306   H307    1.108   .     S
C306   C495    1.514   .     S
O310   C311    1.416   .     S
C311   H312    1.113   .     S
C311   C314    1.529   .     S
H313   C503    1.117   .     S
C314   C317    1.526   .     S
C314   H315    1.110   .     S
H316   C506    1.112   .     S
C317   H320    1.111   .     S
C317   H319    1.111   .     S
H318   C509    1.111   .     S
C321   O354    1.288   .     A
C321   C331    1.410   .     S
C322   C323    1.408   .     A
C322   C900    1.414   .     S
C322   C916    1.421   .     S
C323   C330    1.409   .     A
C323   C327    1.413   .     A
C324   C328    1.387   .     A
C324   C898    1.414   1_554 S
C324   C901    1.422   1_554 S
C325   C326    1.389   .     A
C325   C900    1.422   .     S
C325   C912    1.405   .     S
C326   C327    1.386   .     A
C326   O363    1.379   .     S
C327   H350    1.081   .     S
C328   H346    1.077   .     S
C328   C337    1.383   .     A
C329   C337    1.395   .     A
C329   C336    1.385   .     A
C329   H213    1.084   1_655 S
C330   C332    1.457   .     S
C330   C338    1.401   .     A
C331   C461    1.354   .     S
C331   O566    1.390   .     S
C332   O356    1.297   .     A
C333   C334    1.414   .     S
C333   C11     1.354   1_655 S
C334   O357    1.299   .     A
C334   O230    1.269   1_655 S
C335   C337    1.434   .     S
C335   O359    1.294   .     A
C335   O232    1.285   1_655 S
C336   C901    1.405   1_554 S
C336   H921    1.082   1_554 S
C338   C915    1.384   .     S
C339   H349    1.083   .     S
C339   C340    1.388   .     A
C339   C914    1.384   1_554 S
C340   H348    1.077   .     S
C340   C898    1.421   1_554 S
H342   C525    1.085   .     S
H343   N351    1.028   .     S
H344   N352    1.026   .     S
H345   C912    1.082   .     S
H347   C210    1.080   1_655 S
N351   Zn362   2.017   .     S
N351   N352    1.296   .     D
N352   Zn361   2.017   .     S
O353   Zn361   1.965   .     S
O353   C193    1.277   1_655 S
O354   Zn362   1.996   .     S
O355   Zn361   1.979   .     S
O355   C204    1.292   1_655 S
O356   Zn362   1.946   .     S
O357   Zn361   1.996   .     S
O358   Zn362   1.965   .     S
O359   Zn361   1.946   .     S
O360   Zn362   1.979   .     S
O363   C364    1.408   .     S
C364   C367    1.525   .     S
C364   H365    1.112   .     S
C364   H366    1.119   .     S
C367   H368    1.111   .     S
C367   H369    1.111   .     S
C370   H372    1.111   .     S
C370   H373    1.106   .     S
C370   H371    1.108   .     S
C370   C559    1.514   .     S
O374   C375    1.416   .     S
C375   H376    1.113   .     S
C375   C378    1.529   .     S
H377   C567    1.117   .     S
C378   C381    1.526   .     S
C378   H379    1.110   .     S
H380   C570    1.112   .     S
C381   H384    1.111   .     S
C381   H383    1.111   .     S
H382   C573    1.111   .     S
C385   O418    1.288   .     A
C385   C395    1.410   .     S
C385   O545    1.277   1_455 S
C386   C387    1.408   .     A
C386   C964    1.414   .     S
C386   C980    1.421   .     S
C387   C394    1.409   .     A
C387   C391    1.413   .     A
C388   C392    1.387   .     A
C388   C962    1.414   1_554 S
C388   C965    1.422   1_554 S
C389   C390    1.389   .     A
C389   C964    1.422   .     S
C389   C976    1.405   .     S
C390   C391    1.386   .     A
C390   O427    1.379   .     S
C391   H414    1.081   .     S
C392   H410    1.077   .     S
C392   C401    1.383   .     A
C393   C401    1.395   .     A
C393   C400    1.385   .     A
C393   H469    1.084   .     S
C394   C396    1.457   .     S
C394   C402    1.401   .     A
C395   C141    1.354   1_465 S
C395   O54     1.390   1_565 S
C396   O420    1.297   .     A
C396   O547    1.292   1_455 S
C397   C398    1.414   .     S
C398   O421    1.299   .     A
C398   O486    1.269   .     S
C399   C401    1.434   .     S
C399   O423    1.294   .     A
C399   O488    1.285   .     S
C400   C965    1.405   1_554 S
C400   H985    1.082   1_554 S
C402   C979    1.384   .     S
C402   H539    1.080   1_455 S
C403   H413    1.083   .     S
C403   C404    1.388   .     A
C403   C978    1.384   1_554 S
C404   H412    1.077   .     S
C404   C962    1.421   1_554 S
H405   C521    1.084   1_455 S
H406   C13     1.085   1_565 S
H407   N415    1.028   .     S
H408   N416    1.026   .     S
H409   C976    1.082   .     S
H411   C466    1.080   .     S
N415   Zn426   2.017   .     S
N415   N416    1.296   .     D
N416   Zn425   2.017   .     S
O417   Zn425   1.965   .     S
O417   C449    1.277   .     S
O418   Zn426   1.996   .     S
O419   Zn425   1.979   .     S
O419   C460    1.292   .     S
O420   Zn426   1.946   .     S
O421   Zn425   1.996   .     S
O422   Zn426   1.965   .     S
O422   C526    1.269   1_455 S
O423   Zn425   1.946   .     S
O424   Zn426   1.979   .     S
O424   C527    1.285   1_455 S
O427   C428    1.408   .     S
C428   C431    1.525   .     S
C428   H429    1.112   .     S
C428   H430    1.119   .     S
C431   H432    1.111   .     S
C431   H433    1.111   .     S
C434   H436    1.111   .     S
C434   H437    1.106   .     S
C434   H435    1.108   .     S
C434   C47     1.514   1_565 S
O438   C439    1.416   .     S
C439   H440    1.113   .     S
C439   C442    1.529   .     S
H441   C55     1.117   1_565 S
C442   C445    1.526   .     S
C442   H443    1.110   .     S
H444   C58     1.112   1_565 S
C445   H448    1.111   .     S
C445   H447    1.111   .     S
H446   C61     1.111   1_565 S
C449   O482    1.288   .     A
C449   C459    1.410   .     S
C450   C451    1.408   .     A
C450   C1028   1.414   .     S
C450   C1044   1.421   .     S
C451   C458    1.409   .     A
C451   C455    1.413   .     A
C452   C456    1.387   .     A
C452   C1026   1.414   1_554 S
C452   C1029   1.422   1_554 S
C453   C454    1.389   .     A
C453   C1028   1.422   .     S
C453   C1040   1.405   .     S
C454   C455    1.386   .     A
C454   O491    1.379   .     S
C455   H478    1.081   .     S
C456   H474    1.077   .     S
C456   C465    1.383   .     A
C457   C465    1.395   .     A
C457   C464    1.385   .     A
C457   H533    1.084   .     S
C458   C460    1.457   .     S
C458   C466    1.401   .     A
C459   C13     1.354   1_565 S
C459   O118    1.390   1_565 S
C460   O484    1.297   .     A
C461   C462    1.414   .     S
C462   O485    1.299   .     A
C462   O550    1.269   .     S
C463   C465    1.434   .     S
C463   O487    1.294   .     A
C463   O552    1.285   .     S
C464   C1029   1.405   1_554 S
C464   H1049   1.082   1_554 S
C466   C1043   1.384   .     S
C467   H477    1.083   .     S
C467   C468    1.388   .     A
C467   C1042   1.384   1_554 S
C468   H476    1.077   .     S
C468   C1026   1.421   1_554 S
H470   C77     1.085   1_565 S
H471   N479    1.028   .     S
H472   N480    1.026   .     S
H473   C1040   1.082   .     S
H475   C530    1.080   .     S
N479   Zn490   2.017   .     S
N479   N480    1.296   .     D
N480   Zn489   2.017   .     S
O481   Zn489   1.965   .     S
O481   C513    1.277   .     S
O482   Zn490   1.996   .     S
O483   Zn489   1.979   .     S
O483   C524    1.292   .     S
O484   Zn490   1.946   .     S
O485   Zn489   1.996   .     S
O486   Zn490   1.965   .     S
O487   Zn489   1.946   .     S
O488   Zn490   1.979   .     S
O491   C492    1.408   .     S
C492   C495    1.525   .     S
C492   H493    1.112   .     S
C492   H494    1.119   .     S
C495   H496    1.111   .     S
C495   H497    1.111   .     S
C498   H500    1.111   .     S
C498   H501    1.106   .     S
C498   H499    1.108   .     S
C498   C111    1.514   1_565 S
O502   C503    1.416   .     S
C503   H504    1.113   .     S
C503   C506    1.529   .     S
H505   C119    1.117   1_565 S
C506   C509    1.526   .     S
C506   H507    1.110   .     S
H508   C122    1.112   1_565 S
C509   H512    1.111   .     S
C509   H511    1.111   .     S
H510   C125    1.111   1_565 S
C513   O546    1.288   .     A
C513   C523    1.410   .     S
C514   C515    1.408   .     A
C514   C1092   1.414   .     S
C514   C1108   1.421   .     S
C515   C522    1.409   .     A
C515   C519    1.413   .     A
C516   C520    1.387   .     A
C516   C1090   1.414   1_554 S
C516   C1093   1.422   1_554 S
C517   C518    1.389   .     A
C517   C1092   1.422   .     S
C517   C1104   1.405   .     S
C518   C519    1.386   .     A
C518   O555    1.379   .     S
C519   H542    1.081   .     S
C520   H538    1.077   .     S
C520   C529    1.383   .     A
C521   C529    1.395   .     A
C521   C528    1.385   .     A
C521   H405    1.084   1_655 S
C522   C524    1.457   .     S
C522   C530    1.401   .     A
C523   C77     1.354   1_565 S
C523   O182    1.390   1_565 S
C524   O548    1.297   .     A
C525   C526    1.414   .     S
C525   C203    1.354   1_655 S
C526   O549    1.299   .     A
C526   O422    1.269   1_655 S
C527   C529    1.434   .     S
C527   O551    1.294   .     A
C527   O424    1.285   1_655 S
C528   C1093   1.405   1_554 S
C528   H1113   1.082   1_554 S
C530   C1107   1.384   .     S
C531   H541    1.083   .     S
C531   C532    1.388   .     A
C531   C1106   1.384   1_554 S
C532   H540    1.077   .     S
C532   C1090   1.421   1_554 S
H534   C141    1.085   1_565 S
H535   N543    1.028   .     S
H536   N544    1.026   .     S
H537   C1104   1.082   .     S
H539   C402    1.080   1_655 S
N543   Zn554   2.017   .     S
N543   N544    1.296   .     D
N544   Zn553   2.017   .     S
O545   Zn553   1.965   .     S
O545   C385    1.277   1_655 S
O546   Zn554   1.996   .     S
O547   Zn553   1.979   .     S
O547   C396    1.292   1_655 S
O548   Zn554   1.946   .     S
O549   Zn553   1.996   .     S
O550   Zn554   1.965   .     S
O551   Zn553   1.946   .     S
O552   Zn554   1.979   .     S
O555   C556    1.408   .     S
C556   C559    1.525   .     S
C556   H557    1.112   .     S
C556   H558    1.119   .     S
C559   H560    1.111   .     S
C559   H561    1.111   .     S
C562   H564    1.111   .     S
C562   H565    1.106   .     S
C562   H563    1.108   .     S
C562   C175    1.514   1_565 S
O566   C567    1.416   .     S
C567   H568    1.113   .     S
C567   C570    1.529   .     S
H569   C183    1.117   1_565 S
C570   C573    1.526   .     S
C570   H571    1.110   .     S
H572   C186    1.112   1_565 S
C573   H576    1.111   .     S
C573   H575    1.111   .     S
H574   C189    1.111   1_565 S
C577   O610    1.288   .     A
C577   C587    1.410   .     S
C577   O737    1.277   1_455 S
C578   C579    1.408   .     A
C578   C4      1.414   1_556 S
C578   C20     1.421   1_556 S
C579   C586    1.409   .     A
C579   C583    1.413   .     A
C580   C584    1.387   .     A
C581   C582    1.389   .     A
C581   C4      1.422   1_556 S
C581   C16     1.405   1_556 S
C582   C583    1.386   .     A
C582   O619    1.379   .     S
C583   H606    1.081   .     S
C584   H602    1.077   .     S
C584   C593    1.383   .     A
C585   C593    1.395   .     A
C585   C592    1.385   .     A
C585   H661    1.084   .     S
C586   C588    1.457   .     S
C586   C594    1.401   .     A
C587   C909    1.354   1_455 S
C587   O822    1.390   .     S
C588   O612    1.297   .     A
C588   O739    1.292   1_455 S
C589   C590    1.414   .     S
C589   C1035   1.354   1_545 S
C589   H982    1.085   1_545 S
C590   O613    1.299   .     A
C590   O678    1.269   .     S
C591   C593    1.434   .     S
C591   O615    1.294   .     A
C591   O680    1.285   .     S
C594   C19     1.384   1_556 S
C594   H731    1.080   1_455 S
C595   H605    1.083   .     S
C595   C596    1.388   .     A
C596   H604    1.077   .     S
H597   C713    1.084   1_455 S
H598   C781    1.085   .     S
H599   N607    1.028   .     S
H600   N608    1.026   .     S
H601   C16     1.082   1_556 S
H603   C658    1.080   .     S
N607   Zn618   2.017   .     S
N607   N608    1.296   .     D
N608   Zn617   2.017   .     S
O609   Zn617   1.965   .     S
O609   C641    1.277   .     S
O610   Zn618   1.996   .     S
O611   Zn617   1.979   .     S
O611   C652    1.292   .     S
O612   Zn618   1.946   .     S
O613   Zn617   1.996   .     S
O614   Zn618   1.965   .     S
O614   C718    1.269   1_455 S
O615   Zn617   1.946   .     S
O616   Zn618   1.979   .     S
O616   C719    1.285   1_455 S
O619   C620    1.408   .     S
C620   C623    1.525   .     S
C620   H621    1.112   .     S
C620   H622    1.119   .     S
C623   H624    1.111   .     S
C623   H625    1.111   .     S
C623   C1010   1.514   1_545 S
C626   H628    1.111   .     S
C626   H629    1.106   .     S
C626   H627    1.108   .     S
C626   C815    1.514   .     S
O630   C631    1.416   .     S
O630   C971    1.390   1_545 S
C631   H632    1.113   .     S
C631   C634    1.529   .     S
C631   H1017   1.117   1_545 S
H633   C823    1.117   .     S
C634   C637    1.526   .     S
C634   H635    1.110   .     S
C634   H1020   1.112   1_545 S
H636   C826    1.112   .     S
C637   H640    1.111   .     S
C637   H639    1.111   .     S
C637   H1022   1.111   1_545 S
H638   C829    1.111   .     S
C641   O674    1.288   .     A
C641   C651    1.410   .     S
C642   C643    1.408   .     A
C642   C68     1.414   1_556 S
C642   C84     1.421   1_556 S
C643   C650    1.409   .     A
C643   C647    1.413   .     A
C644   C648    1.387   .     A
C645   C646    1.389   .     A
C645   C68     1.422   1_556 S
C645   C80     1.405   1_556 S
C646   C647    1.386   .     A
C646   O683    1.379   .     S
C647   H670    1.081   .     S
C648   H666    1.077   .     S
C648   C657    1.383   .     A
C649   C657    1.395   .     A
C649   C656    1.385   .     A
C649   H725    1.084   .     S
C650   C652    1.457   .     S
C650   C658    1.401   .     A
C651   C781    1.354   .     S
C651   O886    1.390   .     S
C652   O676    1.297   .     A
C653   C654    1.414   .     S
C653   C1099   1.354   1_545 S
C653   H1046   1.085   1_545 S
C654   O677    1.299   .     A
C654   O742    1.269   .     S
C655   C657    1.434   .     S
C655   O679    1.294   .     A
C655   O744    1.285   .     S
C658   C83     1.384   1_556 S
C659   H669    1.083   .     S
C659   C660    1.388   .     A
C660   H668    1.077   .     S
H662   C845    1.085   .     S
H663   N671    1.028   .     S
H664   N672    1.026   .     S
H665   C80     1.082   1_556 S
H667   C722    1.080   .     S
N671   Zn682   2.017   .     S
N671   N672    1.296   .     D
N672   Zn681   2.017   .     S
O673   Zn681   1.965   .     S
O673   C705    1.277   .     S
O674   Zn682   1.996   .     S
O675   Zn681   1.979   .     S
O675   C716    1.292   .     S
O676   Zn682   1.946   .     S
O677   Zn681   1.996   .     S
O678   Zn682   1.965   .     S
O679   Zn681   1.946   .     S
O680   Zn682   1.979   .     S
O683   C684    1.408   .     S
C684   C687    1.525   .     S
C684   H685    1.112   .     S
C684   H686    1.119   .     S
C687   H688    1.111   .     S
C687   H689    1.111   .     S
C687   C1074   1.514   1_545 S
C690   H692    1.111   .     S
C690   H693    1.106   .     S
C690   H691    1.108   .     S
C690   C879    1.514   .     S
O694   C695    1.416   .     S
O694   C1035   1.390   1_545 S
C695   H696    1.113   .     S
C695   C698    1.529   .     S
C695   H1081   1.117   1_545 S
H697   C887    1.117   .     S
C698   C701    1.526   .     S
C698   H699    1.110   .     S
C698   H1084   1.112   1_545 S
H700   C890    1.112   .     S
C701   H704    1.111   .     S
C701   H703    1.111   .     S
C701   H1086   1.111   1_545 S
H702   C893    1.111   .     S
C705   O738    1.288   .     A
C705   C715    1.410   .     S
C706   C707    1.408   .     A
C706   C132    1.414   1_556 S
C706   C148    1.421   1_556 S
C707   C714    1.409   .     A
C707   C711    1.413   .     A
C708   C712    1.387   .     A
C709   C710    1.389   .     A
C709   C132    1.422   1_556 S
C709   C144    1.405   1_556 S
C710   C711    1.386   .     A
C710   O747    1.379   .     S
C711   H734    1.081   .     S
C712   H730    1.077   .     S
C712   C721    1.383   .     A
C713   C721    1.395   .     A
C713   C720    1.385   .     A
C713   H597    1.084   1_655 S
C714   C716    1.457   .     S
C714   C722    1.401   .     A
C715   C845    1.354   .     S
C715   O950    1.390   .     S
C716   O740    1.297   .     A
C717   C718    1.414   .     S
C717   C971    1.354   1_645 S
C717   H1110   1.085   1_545 S
C718   O741    1.299   .     A
C718   O614    1.269   1_655 S
C719   C721    1.434   .     S
C719   O743    1.294   .     A
C719   O616    1.285   1_655 S
C722   C147    1.384   1_556 S
C723   H733    1.083   .     S
C723   C724    1.388   .     A
C724   H732    1.077   .     S
H726   C909    1.085   .     S
H727   N735    1.028   .     S
H728   N736    1.026   .     S
H729   C144    1.082   1_556 S
H731   C594    1.080   1_655 S
N735   Zn746   2.017   .     S
N735   N736    1.296   .     D
N736   Zn745   2.017   .     S
O737   Zn745   1.965   .     S
O737   C577    1.277   1_655 S
O738   Zn746   1.996   .     S
O739   Zn745   1.979   .     S
O739   C588    1.292   1_655 S
O740   Zn746   1.946   .     S
O741   Zn745   1.996   .     S
O742   Zn746   1.965   .     S
O743   Zn745   1.946   .     S
O744   Zn746   1.979   .     S
O747   C748    1.408   .     S
C748   C751    1.525   .     S
C748   H749    1.112   .     S
C748   H750    1.119   .     S
C751   H752    1.111   .     S
C751   H753    1.111   .     S
C751   C1138   1.514   1_545 S
C754   H756    1.111   .     S
C754   H757    1.106   .     S
C754   H755    1.108   .     S
C754   C943    1.514   .     S
O758   C759    1.416   .     S
O758   C1099   1.390   1_545 S
C759   H760    1.113   .     S
C759   C762    1.529   .     S
C759   H1145   1.117   1_545 S
H761   C951    1.117   .     S
C762   C765    1.526   .     S
C762   H763    1.110   .     S
C762   H1148   1.112   1_545 S
H764   C954    1.112   .     S
C765   H768    1.111   .     S
C765   H767    1.111   .     S
C765   H1150   1.111   1_545 S
H766   C957    1.111   .     S
C769   O802    1.288   .     A
C769   C779    1.410   .     S
C769   O929    1.277   1_455 S
C770   C771    1.408   .     A
C770   C196    1.414   1_556 S
C770   C212    1.421   1_556 S
C771   C778    1.409   .     A
C771   C775    1.413   .     A
C772   C776    1.387   .     A
C773   C774    1.389   .     A
C773   C196    1.422   1_556 S
C773   C208    1.405   1_556 S
C774   C775    1.386   .     A
C774   O811    1.379   .     S
C775   H798    1.081   .     S
C776   H794    1.077   .     S
C776   C785    1.383   .     A
C777   C785    1.395   .     A
C777   C784    1.385   .     A
C777   H853    1.084   .     S
C778   C780    1.457   .     S
C778   C786    1.401   .     A
C779   C1101   1.354   1_455 S
C779   O1014   1.390   .     S
C780   O804    1.297   .     A
C780   O931    1.292   1_455 S
C781   C782    1.414   .     S
C782   O805    1.299   .     A
C782   O870    1.269   .     S
C783   C785    1.434   .     S
C783   O807    1.294   .     A
C783   O872    1.285   .     S
C786   C211    1.384   1_556 S
C786   H923    1.080   1_455 S
C787   H797    1.083   .     S
C787   C788    1.388   .     A
C788   H796    1.077   .     S
H789   C905    1.084   1_455 S
H790   C973    1.085   .     S
H791   N799    1.028   .     S
H792   N800    1.026   .     S
H793   C208    1.082   1_556 S
H795   C850    1.080   .     S
N799   Zn810   2.017   .     S
N799   N800    1.296   .     D
N800   Zn809   2.017   .     S
O801   Zn809   1.965   .     S
O801   C833    1.277   .     S
O802   Zn810   1.996   .     S
O803   Zn809   1.979   .     S
O803   C844    1.292   .     S
O804   Zn810   1.946   .     S
O805   Zn809   1.996   .     S
O806   Zn810   1.965   .     S
O806   C910    1.269   1_455 S
O807   Zn809   1.946   .     S
O808   Zn810   1.979   .     S
O808   C911    1.285   1_455 S
O811   C812    1.408   .     S
C812   C815    1.525   .     S
C812   H813    1.112   .     S
C812   H814    1.119   .     S
C815   H816    1.111   .     S
C815   H817    1.111   .     S
C818   H820    1.111   .     S
C818   H821    1.106   .     S
C818   H819    1.108   .     S
C818   C1007   1.514   .     S
O822   C823    1.416   .     S
C823   H824    1.113   .     S
C823   C826    1.529   .     S
H825   C1015   1.117   .     S
C826   C829    1.526   .     S
C826   H827    1.110   .     S
H828   C1018   1.112   .     S
C829   H832    1.111   .     S
C829   H831    1.111   .     S
H830   C1021   1.111   .     S
C833   O866    1.288   .     A
C833   C843    1.410   .     S
C834   C835    1.408   .     A
C834   C260    1.414   1_556 S
C834   C276    1.421   1_556 S
C835   C842    1.409   .     A
C835   C839    1.413   .     A
C836   C840    1.387   .     A
C837   C838    1.389   .     A
C837   C260    1.422   1_556 S
C837   C272    1.405   1_556 S
C838   C839    1.386   .     A
C838   O875    1.379   .     S
C839   H862    1.081   .     S
C840   H858    1.077   .     S
C840   C849    1.383   .     A
C841   C849    1.395   .     A
C841   C848    1.385   .     A
C841   H917    1.084   .     S
C842   C844    1.457   .     S
C842   C850    1.401   .     A
C843   C973    1.354   .     S
C843   O1078   1.390   .     S
C844   O868    1.297   .     A
C845   C846    1.414   .     S
C846   O869    1.299   .     A
C846   O934    1.269   .     S
C847   C849    1.434   .     S
C847   O871    1.294   .     A
C847   O936    1.285   .     S
C850   C275    1.384   1_556 S
C851   H861    1.083   .     S
C851   C852    1.388   .     A
C852   H860    1.077   .     S
H854   C1037   1.085   .     S
H855   N863    1.028   .     S
H856   N864    1.026   .     S
H857   C272    1.082   1_556 S
H859   C914    1.080   .     S
N863   Zn874   2.017   .     S
N863   N864    1.296   .     D
N864   Zn873   2.017   .     S
O865   Zn873   1.965   .     S
O865   C897    1.277   .     S
O866   Zn874   1.996   .     S
O867   Zn873   1.979   .     S
O867   C908    1.292   .     S
O868   Zn874   1.946   .     S
O869   Zn873   1.996   .     S
O870   Zn874   1.965   .     S
O871   Zn873   1.946   .     S
O872   Zn874   1.979   .     S
O875   C876    1.408   .     S
C876   C879    1.525   .     S
C876   H877    1.112   .     S
C876   H878    1.119   .     S
C879   H880    1.111   .     S
C879   H881    1.111   .     S
C882   H884    1.111   .     S
C882   H885    1.106   .     S
C882   H883    1.108   .     S
C882   C1071   1.514   .     S
O886   C887    1.416   .     S
C887   H888    1.113   .     S
C887   C890    1.529   .     S
H889   C1079   1.117   .     S
C890   C893    1.526   .     S
C890   H891    1.110   .     S
H892   C1082   1.112   .     S
C893   H896    1.111   .     S
C893   H895    1.111   .     S
H894   C1085   1.111   .     S
C897   O930    1.288   .     A
C897   C907    1.410   .     S
C898   C899    1.408   .     A
C898   C324    1.414   1_556 S
C898   C340    1.421   1_556 S
C899   C906    1.409   .     A
C899   C903    1.413   .     A
C900   C904    1.387   .     A
C901   C902    1.389   .     A
C901   C324    1.422   1_556 S
C901   C336    1.405   1_556 S
C902   C903    1.386   .     A
C902   O939    1.379   .     S
C903   H926    1.081   .     S
C904   H922    1.077   .     S
C904   C913    1.383   .     A
C905   C913    1.395   .     A
C905   C912    1.385   .     A
C905   H789    1.084   1_655 S
C906   C908    1.457   .     S
C906   C914    1.401   .     A
C907   C1037   1.354   .     S
C907   O1142   1.390   .     S
C908   O932    1.297   .     A
C909   C910    1.414   .     S
C909   C587    1.354   1_655 S
C910   O933    1.299   .     A
C910   O806    1.269   1_655 S
C911   C913    1.434   .     S
C911   O935    1.294   .     A
C911   O808    1.285   1_655 S
C914   C339    1.384   1_556 S
C915   H925    1.083   .     S
C915   C916    1.388   .     A
C916   H924    1.077   .     S
H918   C1101   1.085   .     S
H919   N927    1.028   .     S
H920   N928    1.026   .     S
H921   C336    1.082   1_556 S
H923   C786    1.080   1_655 S
N927   Zn938   2.017   .     S
N927   N928    1.296   .     D
N928   Zn937   2.017   .     S
O929   Zn937   1.965   .     S
O929   C769    1.277   1_655 S
O930   Zn938   1.996   .     S
O931   Zn937   1.979   .     S
O931   C780    1.292   1_655 S
O932   Zn938   1.946   .     S
O933   Zn937   1.996   .     S
O934   Zn938   1.965   .     S
O935   Zn937   1.946   .     S
O936   Zn938   1.979   .     S
O939   C940    1.408   .     S
C940   C943    1.525   .     S
C940   H941    1.112   .     S
C940   H942    1.119   .     S
C943   H944    1.111   .     S
C943   H945    1.111   .     S
C946   H948    1.111   .     S
C946   H949    1.106   .     S
C946   H947    1.108   .     S
C946   C1135   1.514   .     S
O950   C951    1.416   .     S
C951   H952    1.113   .     S
C951   C954    1.529   .     S
H953   C1143   1.117   .     S
C954   C957    1.526   .     S
C954   H955    1.110   .     S
H956   C1146   1.112   .     S
C957   H960    1.111   .     S
C957   H959    1.111   .     S
H958   C1149   1.111   .     S
C961   O994    1.288   .     A
C961   C971    1.410   .     S
C961   O1121   1.277   1_455 S
C962   C963    1.408   .     A
C962   C388    1.414   1_556 S
C962   C404    1.421   1_556 S
C963   C970    1.409   .     A
C963   C967    1.413   .     A
C964   C968    1.387   .     A
C965   C966    1.389   .     A
C965   C388    1.422   1_556 S
C965   C400    1.405   1_556 S
C966   C967    1.386   .     A
C966   O1003   1.379   .     S
C967   H990    1.081   .     S
C968   H986    1.077   .     S
C968   C977    1.383   .     A
C969   C977    1.395   .     A
C969   C976    1.385   .     A
C969   H1045   1.084   .     S
C970   C972    1.457   .     S
C970   C978    1.401   .     A
C971   C717    1.354   1_465 S
C971   O630    1.390   1_565 S
C972   O996    1.297   .     A
C972   O1123   1.292   1_455 S
C973   C974    1.414   .     S
C974   O997    1.299   .     A
C974   O1062   1.269   .     S
C975   C977    1.434   .     S
C975   O999    1.294   .     A
C975   O1064   1.285   .     S
C978   C403    1.384   1_556 S
C978   H1115   1.080   1_455 S
C979   H989    1.083   .     S
C979   C980    1.388   .     A
C980   H988    1.077   .     S
H981   C1097   1.084   1_455 S
H982   C589    1.085   1_565 S
H983   N991    1.028   .     S
H984   N992    1.026   .     S
H985   C400    1.082   1_556 S
H987   C1042   1.080   .     S
N991   Zn1002  2.017   .     S
N991   N992    1.296   .     D
N992   Zn1001  2.017   .     S
O993   Zn1001  1.965   .     S
O993   C1025   1.277   .     S
O994   Zn1002  1.996   .     S
O995   Zn1001  1.979   .     S
O995   C1036   1.292   .     S
O996   Zn1002  1.946   .     S
O997   Zn1001  1.996   .     S
O998   Zn1002  1.965   .     S
O998   C1102   1.269   1_455 S
O999   Zn1001  1.946   .     S
O1000  Zn1002  1.979   .     S
O1000  C1103   1.285   1_455 S
O1003  C1004   1.408   .     S
C1004  C1007   1.525   .     S
C1004  H1005   1.112   .     S
C1004  H1006   1.119   .     S
C1007  H1008   1.111   .     S
C1007  H1009   1.111   .     S
C1010  H1012   1.111   .     S
C1010  H1013   1.106   .     S
C1010  H1011   1.108   .     S
C1010  C623    1.514   1_565 S
O1014  C1015   1.416   .     S
C1015  H1016   1.113   .     S
C1015  C1018   1.529   .     S
H1017  C631    1.117   1_565 S
C1018  C1021   1.526   .     S
C1018  H1019   1.110   .     S
H1020  C634    1.112   1_565 S
C1021  H1024   1.111   .     S
C1021  H1023   1.111   .     S
H1022  C637    1.111   1_565 S
C1025  O1058   1.288   .     A
C1025  C1035   1.410   .     S
C1026  C1027   1.408   .     A
C1026  C452    1.414   1_556 S
C1026  C468    1.421   1_556 S
C1027  C1034   1.409   .     A
C1027  C1031   1.413   .     A
C1028  C1032   1.387   .     A
C1029  C1030   1.389   .     A
C1029  C452    1.422   1_556 S
C1029  C464    1.405   1_556 S
C1030  C1031   1.386   .     A
C1030  O1067   1.379   .     S
C1031  H1054   1.081   .     S
C1032  H1050   1.077   .     S
C1032  C1041   1.383   .     A
C1033  C1041   1.395   .     A
C1033  C1040   1.385   .     A
C1033  H1109   1.084   .     S
C1034  C1036   1.457   .     S
C1034  C1042   1.401   .     A
C1035  C589    1.354   1_565 S
C1035  O694    1.390   1_565 S
C1036  O1060   1.297   .     A
C1037  C1038   1.414   .     S
C1038  O1061   1.299   .     A
C1038  O1126   1.269   .     S
C1039  C1041   1.434   .     S
C1039  O1063   1.294   .     A
C1039  O1128   1.285   .     S
C1042  C467    1.384   1_556 S
C1043  H1053   1.083   .     S
C1043  C1044   1.388   .     A
C1044  H1052   1.077   .     S
H1046  C653    1.085   1_565 S
H1047  N1055   1.028   .     S
H1048  N1056   1.026   .     S
H1049  C464    1.082   1_556 S
H1051  C1106   1.080   .     S
N1055  Zn1066  2.017   .     S
N1055  N1056   1.296   .     D
N1056  Zn1065  2.017   .     S
O1057  Zn1065  1.965   .     S
O1057  C1089   1.277   .     S
O1058  Zn1066  1.996   .     S
O1059  Zn1065  1.979   .     S
O1059  C1100   1.292   .     S
O1060  Zn1066  1.946   .     S
O1061  Zn1065  1.996   .     S
O1062  Zn1066  1.965   .     S
O1063  Zn1065  1.946   .     S
O1064  Zn1066  1.979   .     S
O1067  C1068   1.408   .     S
C1068  C1071   1.525   .     S
C1068  H1069   1.112   .     S
C1068  H1070   1.119   .     S
C1071  H1072   1.111   .     S
C1071  H1073   1.111   .     S
C1074  H1076   1.111   .     S
C1074  H1077   1.106   .     S
C1074  H1075   1.108   .     S
C1074  C687    1.514   1_565 S
O1078  C1079   1.416   .     S
C1079  H1080   1.113   .     S
C1079  C1082   1.529   .     S
H1081  C695    1.117   1_565 S
C1082  C1085   1.526   .     S
C1082  H1083   1.110   .     S
H1084  C698    1.112   1_565 S
C1085  H1088   1.111   .     S
C1085  H1087   1.111   .     S
H1086  C701    1.111   1_565 S
C1089  O1122   1.288   .     A
C1089  C1099   1.410   .     S
C1090  C1091   1.408   .     A
C1090  C516    1.414   1_556 S
C1090  C532    1.421   1_556 S
C1091  C1098   1.409   .     A
C1091  C1095   1.413   .     A
C1092  C1096   1.387   .     A
C1093  C1094   1.389   .     A
C1093  C516    1.422   1_556 S
C1093  C528    1.405   1_556 S
C1094  C1095   1.386   .     A
C1094  O1131   1.379   .     S
C1095  H1118   1.081   .     S
C1096  H1114   1.077   .     S
C1096  C1105   1.383   .     A
C1097  C1105   1.395   .     A
C1097  C1104   1.385   .     A
C1097  H981    1.084   1_655 S
C1098  C1100   1.457   .     S
C1098  C1106   1.401   .     A
C1099  C653    1.354   1_565 S
C1099  O758    1.390   1_565 S
C1100  O1124   1.297   .     A
C1101  C1102   1.414   .     S
C1101  C779    1.354   1_655 S
C1102  O1125   1.299   .     A
C1102  O998    1.269   1_655 S
C1103  C1105   1.434   .     S
C1103  O1127   1.294   .     A
C1103  O1000   1.285   1_655 S
C1106  C531    1.384   1_556 S
C1107  H1117   1.083   .     S
C1107  C1108   1.388   .     A
C1108  H1116   1.077   .     S
H1110  C717    1.085   1_565 S
H1111  N1119   1.028   .     S
H1112  N1120   1.026   .     S
H1113  C528    1.082   1_556 S
H1115  C978    1.080   1_655 S
N1119  Zn1130  2.017   .     S
N1119  N1120   1.296   .     D
N1120  Zn1129  2.017   .     S
O1121  Zn1129  1.965   .     S
O1121  C961    1.277   1_655 S
O1122  Zn1130  1.996   .     S
O1123  Zn1129  1.979   .     S
O1123  C972    1.292   1_655 S
O1124  Zn1130  1.946   .     S
O1125  Zn1129  1.996   .     S
O1126  Zn1130  1.965   .     S
O1127  Zn1129  1.946   .     S
O1128  Zn1130  1.979   .     S
O1131  C1132   1.408   .     S
C1132  C1135   1.525   .     S
C1132  H1133   1.112   .     S
C1132  H1134   1.119   .     S
C1135  H1136   1.111   .     S
C1135  H1137   1.111   .     S
C1138  H1140   1.111   .     S
C1138  H1141   1.106   .     S
C1138  H1139   1.108   .     S
C1138  C751    1.514   1_565 S
O1142  C1143   1.416   .     S
C1143  H1144   1.113   .     S
C1143  C1146   1.529   .     S
H1145  C759    1.117   1_565 S
C1146  C1149   1.526   .     S
C1146  H1147   1.110   .     S
H1148  C762    1.112   1_565 S
C1149  H1152   1.111   .     S
C1149  H1151   1.111   .     S
H1150  C765    1.111   1_565 S
