data_str_m3_o2_o10_pcu_sym.74
_audit_creation_date              2020-01-03
_audit_creation_method            'Materials Studio'
_symmetry_space_group_name_H-M    'P1'
_symmetry_Int_Tables_number       1
_symmetry_cell_setting            triclinic
loop_
_symmetry_equiv_pos_as_xyz
  x,y,z
_cell_length_a                    25.7473
_cell_length_b                    29.7827
_cell_length_c                    28.2991
_cell_angle_alpha                 89.6292
_cell_angle_beta                  98.7378
_cell_angle_gamma                 90.0939
loop_
_atom_site_label
_atom_site_type_symbol
_atom_site_fract_x
_atom_site_fract_y
_atom_site_fract_z
_atom_site_U_iso_or_equiv
_atom_site_adp_type
_atom_site_occupancy
C1     C     0.16700   0.16373   0.25025   0.00000  Uiso   1.00
C2     C     0.12579   0.23032   0.44217   0.00000  Uiso   1.00
C3     C     0.16628   0.25056   0.02656   0.00000  Uiso   1.00
C4     C     0.16681   0.25056   0.47337   0.00000  Uiso   1.00
C5     C     0.06697   0.24998   0.23750   0.00000  Uiso   1.00
C6     C     0.26636   0.24998   0.26250   0.00000  Uiso   1.00
C7     C     0.01194   0.25000   0.23075   0.00000  Uiso   1.00
C8     C     0.32139   0.24991   0.26926   0.00000  Uiso   1.00
C9     C     0.15835   0.04361   0.28538   0.00000  Uiso   1.00
C10    C     0.17232   0.45634   0.21073   0.00000  Uiso   1.00
C11    C     0.15021   0.08975   0.28435   0.00000  Uiso   1.00
C12    C     0.16762   0.33643   0.24992   0.00000  Uiso   1.00
C13    C     0.16452   0.41020   0.20823   0.00000  Uiso   1.00
C14    C     0.17394   0.11583   0.25205   0.00000  Uiso   1.00
C15    C     0.17569   0.38453   0.25052   0.00000  Uiso   1.00
C16    C     0.20817   0.09667   0.22387   0.00000  Uiso   1.00
C17    C     0.19823   0.40453   0.29354   0.00000  Uiso   1.00
C18    C     0.21862   0.05097   0.22710   0.00000  Uiso   1.00
C19    C     0.20865   0.45034   0.29524   0.00000  Uiso   1.00
C20    C     0.19213   0.02446   0.25686   0.00000  Uiso   1.00
C21    C     0.19348   0.47617   0.25398   0.00000  Uiso   1.00
C22    C     0.13349   0.10558   0.35938   0.00000  Uiso   1.00
C23    C     0.12273   0.26678   0.04627   0.00000  Uiso   1.00
C24    C     0.17528   0.39123   0.13250   0.00000  Uiso   1.00
C25    C     0.30373   0.03817   0.21991   0.00000  Uiso   1.00
C26    C     0.28136   0.45826   0.35136   0.00000  Uiso   1.00
C27    C     0.07461   0.32849   0.02010   0.00000  Uiso   1.00
C28    C     0.24251   0.33750   0.48094   0.00000  Uiso   1.00
C29    C     0.20789   0.27104   0.45306   0.00000  Uiso   1.00
C30    C     0.12382   0.26565   0.09643   0.00000  Uiso   1.00
C31    C     0.20705   0.26986   0.40302   0.00000  Uiso   1.00
C32    C     0.20923   0.23460   0.10788   0.00000  Uiso   1.00
C33    C     0.12647   0.23038   0.39258   0.00000  Uiso   1.00
C34    C     0.20986   0.23470   0.05830   0.00000  Uiso   1.00
H35    H     0.13664   0.02243   0.30680   0.00000  Uiso   1.00
H36    H     0.18189   0.42587   0.11980   0.00000  Uiso   1.00
H37    H     0.22736   0.11723   0.19988   0.00000  Uiso   1.00
H38    H     0.20759   0.38472   0.32595   0.00000  Uiso   1.00
H39    H     0.31117   0.02329   0.25651   0.00000  Uiso   1.00
H40    H     0.31435   0.07443   0.22102   0.00000  Uiso   1.00
H41    H     0.32992   0.02093   0.19811   0.00000  Uiso   1.00
H42    H     0.30490   0.46459   0.32205   0.00000  Uiso   1.00
H43    H     0.28469   0.42249   0.36289   0.00000  Uiso   1.00
H44    H     0.29857   0.47893   0.38230   0.00000  Uiso   1.00
H45    H     0.11112   0.34551   0.01272   0.00000  Uiso   1.00
H46    H     0.15943   0.47700   0.17949   0.00000  Uiso   1.00
H47    H     0.06533   0.33843   0.05569   0.00000  Uiso   1.00
H48    H     0.04194   0.34041   0.49280   0.00000  Uiso   1.00
H49    H     0.20495   0.34687   0.49327   0.00000  Uiso   1.00
H50    H     0.24406   0.35158   0.44465   0.00000  Uiso   1.00
H51    H     0.27491   0.35302   0.00584   0.00000  Uiso   1.00
H52    H     0.09017   0.27731   0.11152   0.00000  Uiso   1.00
H53    H     0.23880   0.28507   0.38754   0.00000  Uiso   1.00
H54    H     0.24290   0.22190   0.13169   0.00000  Uiso   1.00
H55    H     0.09478   0.21450   0.36909   0.00000  Uiso   1.00
H56    H     0.24403   0.22185   0.04477   0.00000  Uiso   1.00
H57    H     0.32459   0.25013   0.19425   0.00000  Uiso   1.00
H58    H     0.09363   0.21403   0.45611   0.00000  Uiso   1.00
H59    H     0.00876   0.24980   0.30576   0.00000  Uiso   1.00
H60    H     0.10747   0.12543   0.37915   0.00000  Uiso   1.00
H61    H     0.17383   0.11981   0.36806   0.00000  Uiso   1.00
H62    H     0.13267   0.07031   0.37231   0.00000  Uiso   1.00
H63    H     0.15772   0.37141   0.10102   0.00000  Uiso   1.00
H64    H     0.21342   0.37512   0.14716   0.00000  Uiso   1.00
N65    N     0.16667   0.24999   0.12624   0.00000  Uiso   1.00
N66    N     0.16667   0.25001   0.37377   0.00000  Uiso   1.00
O67    O     0.16667   0.18454   0.28974   0.00000  Uiso   1.00
O68    O     0.14009   0.39104   0.16617   0.00000  Uiso   1.00
O69    O     0.25121   0.03159   0.19840   0.00000  Uiso   1.00
O70    O     0.22837   0.47089   0.33798   0.00000  Uiso   1.00
O71    O     0.07832   0.28146   0.01646   0.00000  Uiso   1.00
O72    O     0.24980   0.29059   0.48200   0.00000  Uiso   1.00
O73    O     0.16666   0.31547   0.21026   0.00000  Uiso   1.00
O74    O     0.16667   0.18453   0.21026   0.00000  Uiso   1.00
O75    O     0.16666   0.31547   0.28974   0.00000  Uiso   1.00
O76    O     0.09058   0.25000   0.28045   0.00000  Uiso   1.00
O77    O     0.24275   0.25000   0.21956   0.00000  Uiso   1.00
O78    O     0.09058   0.25000   0.20097   0.00000  Uiso   1.00
O79    O     0.24275   0.25001   0.29904   0.00000  Uiso   1.00
O80    O     0.11428   0.10886   0.31006   0.00000  Uiso   1.00
Zn81   Zn    0.16667   0.25001   0.30307   0.00000  Uiso   1.00
Zn82   Zn    0.16667   0.25000   0.19693   0.00000  Uiso   1.00
C83    C     0.50034   0.16373   0.25025   0.00000  Uiso   1.00
C84    C     0.45913   0.23032   0.44217   0.00000  Uiso   1.00
C85    C     0.49962   0.25056   0.02656   0.00000  Uiso   1.00
C86    C     0.50014   0.25056   0.47337   0.00000  Uiso   1.00
C87    C     0.40031   0.24998   0.23750   0.00000  Uiso   1.00
C88    C     0.59970   0.24998   0.26250   0.00000  Uiso   1.00
C89    C     0.34528   0.25000   0.23075   0.00000  Uiso   1.00
C90    C     0.65473   0.24991   0.26926   0.00000  Uiso   1.00
C91    C     0.49168   0.04361   0.28538   0.00000  Uiso   1.00
C92    C     0.50565   0.45634   0.21073   0.00000  Uiso   1.00
C93    C     0.48355   0.08975   0.28435   0.00000  Uiso   1.00
C94    C     0.50095   0.33643   0.24992   0.00000  Uiso   1.00
C95    C     0.49785   0.41020   0.20823   0.00000  Uiso   1.00
C96    C     0.50728   0.11583   0.25205   0.00000  Uiso   1.00
C97    C     0.50902   0.38453   0.25052   0.00000  Uiso   1.00
C98    C     0.54151   0.09667   0.22387   0.00000  Uiso   1.00
C99    C     0.53157   0.40453   0.29354   0.00000  Uiso   1.00
C100   C     0.55195   0.05097   0.22710   0.00000  Uiso   1.00
C101   C     0.54198   0.45034   0.29524   0.00000  Uiso   1.00
C102   C     0.52546   0.02446   0.25686   0.00000  Uiso   1.00
C103   C     0.52682   0.47617   0.25398   0.00000  Uiso   1.00
C104   C     0.46682   0.10558   0.35938   0.00000  Uiso   1.00
C105   C     0.45606   0.26678   0.04627   0.00000  Uiso   1.00
C106   C     0.50862   0.39123   0.13250   0.00000  Uiso   1.00
C107   C     0.63706   0.03817   0.21991   0.00000  Uiso   1.00
C108   C     0.61469   0.45826   0.35136   0.00000  Uiso   1.00
C109   C     0.40795   0.32849   0.02010   0.00000  Uiso   1.00
C110   C     0.57585   0.33750   0.48094   0.00000  Uiso   1.00
C111   C     0.54122   0.27104   0.45306   0.00000  Uiso   1.00
C112   C     0.45716   0.26565   0.09643   0.00000  Uiso   1.00
C113   C     0.54038   0.26986   0.40302   0.00000  Uiso   1.00
C114   C     0.54256   0.23460   0.10788   0.00000  Uiso   1.00
C115   C     0.45981   0.23038   0.39258   0.00000  Uiso   1.00
C116   C     0.54319   0.23470   0.05830   0.00000  Uiso   1.00
H117   H     0.46998   0.02243   0.30680   0.00000  Uiso   1.00
H118   H     0.51522   0.42587   0.11980   0.00000  Uiso   1.00
H119   H     0.56069   0.11723   0.19988   0.00000  Uiso   1.00
H120   H     0.54092   0.38472   0.32595   0.00000  Uiso   1.00
H121   H     0.64451   0.02329   0.25651   0.00000  Uiso   1.00
H122   H     0.64769   0.07443   0.22102   0.00000  Uiso   1.00
H123   H     0.66325   0.02093   0.19811   0.00000  Uiso   1.00
H124   H     0.63823   0.46459   0.32205   0.00000  Uiso   1.00
H125   H     0.61802   0.42249   0.36289   0.00000  Uiso   1.00
H126   H     0.63190   0.47893   0.38230   0.00000  Uiso   1.00
H127   H     0.44445   0.34551   0.01272   0.00000  Uiso   1.00
H128   H     0.49276   0.47700   0.17949   0.00000  Uiso   1.00
H129   H     0.39867   0.33843   0.05569   0.00000  Uiso   1.00
H130   H     0.37527   0.34041   0.49280   0.00000  Uiso   1.00
H131   H     0.53828   0.34687   0.49327   0.00000  Uiso   1.00
H132   H     0.57739   0.35158   0.44465   0.00000  Uiso   1.00
H133   H     0.60825   0.35302   0.00584   0.00000  Uiso   1.00
H134   H     0.42351   0.27731   0.11152   0.00000  Uiso   1.00
H135   H     0.57213   0.28507   0.38754   0.00000  Uiso   1.00
H136   H     0.57623   0.22190   0.13169   0.00000  Uiso   1.00
H137   H     0.42811   0.21450   0.36909   0.00000  Uiso   1.00
H138   H     0.57736   0.22185   0.04477   0.00000  Uiso   1.00
H139   H     0.65792   0.25013   0.19425   0.00000  Uiso   1.00
H140   H     0.42696   0.21403   0.45611   0.00000  Uiso   1.00
H141   H     0.34209   0.24980   0.30576   0.00000  Uiso   1.00
H142   H     0.44081   0.12543   0.37915   0.00000  Uiso   1.00
H143   H     0.50716   0.11981   0.36806   0.00000  Uiso   1.00
H144   H     0.46601   0.07031   0.37231   0.00000  Uiso   1.00
H145   H     0.49106   0.37141   0.10102   0.00000  Uiso   1.00
H146   H     0.54675   0.37512   0.14716   0.00000  Uiso   1.00
N147   N     0.50000   0.24999   0.12624   0.00000  Uiso   1.00
N148   N     0.50000   0.25001   0.37377   0.00000  Uiso   1.00
O149   O     0.50000   0.18454   0.28974   0.00000  Uiso   1.00
O150   O     0.47342   0.39104   0.16617   0.00000  Uiso   1.00
O151   O     0.58454   0.03159   0.19840   0.00000  Uiso   1.00
O152   O     0.56170   0.47089   0.33798   0.00000  Uiso   1.00
O153   O     0.41165   0.28146   0.01646   0.00000  Uiso   1.00
O154   O     0.58313   0.29059   0.48200   0.00000  Uiso   1.00
O155   O     0.50000   0.31547   0.21026   0.00000  Uiso   1.00
O156   O     0.50000   0.18453   0.21026   0.00000  Uiso   1.00
O157   O     0.50000   0.31547   0.28974   0.00000  Uiso   1.00
O158   O     0.42392   0.25000   0.28045   0.00000  Uiso   1.00
O159   O     0.57608   0.25000   0.21956   0.00000  Uiso   1.00
O160   O     0.42392   0.25000   0.20097   0.00000  Uiso   1.00
O161   O     0.57608   0.25001   0.29904   0.00000  Uiso   1.00
O162   O     0.44761   0.10886   0.31006   0.00000  Uiso   1.00
Zn163  Zn    0.50000   0.25001   0.30307   0.00000  Uiso   1.00
Zn164  Zn    0.50000   0.25000   0.19693   0.00000  Uiso   1.00
C165   C     0.83367   0.16373   0.25025   0.00000  Uiso   1.00
C166   C     0.79246   0.23032   0.44217   0.00000  Uiso   1.00
C167   C     0.83295   0.25056   0.02656   0.00000  Uiso   1.00
C168   C     0.83348   0.25056   0.47337   0.00000  Uiso   1.00
C169   C     0.73364   0.24998   0.23750   0.00000  Uiso   1.00
C170   C     0.93303   0.24998   0.26250   0.00000  Uiso   1.00
C171   C     0.67861   0.25000   0.23075   0.00000  Uiso   1.00
C172   C     0.98806   0.24991   0.26926   0.00000  Uiso   1.00
C173   C     0.82502   0.04361   0.28538   0.00000  Uiso   1.00
C174   C     0.83899   0.45634   0.21073   0.00000  Uiso   1.00
C175   C     0.81688   0.08975   0.28435   0.00000  Uiso   1.00
C176   C     0.83429   0.33643   0.24992   0.00000  Uiso   1.00
C177   C     0.83118   0.41020   0.20823   0.00000  Uiso   1.00
C178   C     0.84061   0.11583   0.25205   0.00000  Uiso   1.00
C179   C     0.84235   0.38453   0.25052   0.00000  Uiso   1.00
C180   C     0.87484   0.09667   0.22387   0.00000  Uiso   1.00
C181   C     0.86490   0.40453   0.29354   0.00000  Uiso   1.00
C182   C     0.88529   0.05097   0.22710   0.00000  Uiso   1.00
C183   C     0.87532   0.45034   0.29524   0.00000  Uiso   1.00
C184   C     0.85880   0.02446   0.25686   0.00000  Uiso   1.00
C185   C     0.86015   0.47617   0.25398   0.00000  Uiso   1.00
C186   C     0.80015   0.10558   0.35938   0.00000  Uiso   1.00
C187   C     0.78939   0.26678   0.04627   0.00000  Uiso   1.00
C188   C     0.84195   0.39123   0.13250   0.00000  Uiso   1.00
C189   C     0.97039   0.03817   0.21991   0.00000  Uiso   1.00
C190   C     0.94802   0.45826   0.35136   0.00000  Uiso   1.00
C191   C     0.74128   0.32849   0.02010   0.00000  Uiso   1.00
C192   C     0.90918   0.33750   0.48094   0.00000  Uiso   1.00
C193   C     0.87455   0.27104   0.45306   0.00000  Uiso   1.00
C194   C     0.79049   0.26565   0.09643   0.00000  Uiso   1.00
C195   C     0.87371   0.26986   0.40302   0.00000  Uiso   1.00
C196   C     0.87590   0.23460   0.10788   0.00000  Uiso   1.00
C197   C     0.79314   0.23038   0.39258   0.00000  Uiso   1.00
C198   C     0.87652   0.23470   0.05830   0.00000  Uiso   1.00
H199   H     0.80331   0.02243   0.30680   0.00000  Uiso   1.00
H200   H     0.84855   0.42587   0.11980   0.00000  Uiso   1.00
H201   H     0.89403   0.11723   0.19988   0.00000  Uiso   1.00
H202   H     0.87426   0.38472   0.32595   0.00000  Uiso   1.00
H203   H     0.97784   0.02329   0.25651   0.00000  Uiso   1.00
H204   H     0.98102   0.07443   0.22102   0.00000  Uiso   1.00
H205   H     0.99658   0.02093   0.19811   0.00000  Uiso   1.00
H206   H     0.97156   0.46459   0.32205   0.00000  Uiso   1.00
H207   H     0.95135   0.42249   0.36289   0.00000  Uiso   1.00
H208   H     0.96524   0.47893   0.38230   0.00000  Uiso   1.00
H209   H     0.77778   0.34551   0.01272   0.00000  Uiso   1.00
H210   H     0.82609   0.47700   0.17949   0.00000  Uiso   1.00
H211   H     0.73200   0.33843   0.05569   0.00000  Uiso   1.00
H212   H     0.70861   0.34041   0.49280   0.00000  Uiso   1.00
H213   H     0.87162   0.34687   0.49327   0.00000  Uiso   1.00
H214   H     0.91072   0.35158   0.44465   0.00000  Uiso   1.00
H215   H     0.94158   0.35302   0.00584   0.00000  Uiso   1.00
H216   H     0.75684   0.27731   0.11152   0.00000  Uiso   1.00
H217   H     0.90546   0.28507   0.38754   0.00000  Uiso   1.00
H218   H     0.90956   0.22190   0.13169   0.00000  Uiso   1.00
H219   H     0.76144   0.21450   0.36909   0.00000  Uiso   1.00
H220   H     0.91069   0.22185   0.04477   0.00000  Uiso   1.00
H221   H     0.99125   0.25013   0.19425   0.00000  Uiso   1.00
H222   H     0.76029   0.21403   0.45611   0.00000  Uiso   1.00
H223   H     0.67543   0.24980   0.30576   0.00000  Uiso   1.00
H224   H     0.77414   0.12543   0.37915   0.00000  Uiso   1.00
H225   H     0.84050   0.11981   0.36806   0.00000  Uiso   1.00
H226   H     0.79934   0.07031   0.37231   0.00000  Uiso   1.00
H227   H     0.82439   0.37141   0.10102   0.00000  Uiso   1.00
H228   H     0.88009   0.37512   0.14716   0.00000  Uiso   1.00
N229   N     0.83333   0.24999   0.12624   0.00000  Uiso   1.00
N230   N     0.83333   0.25001   0.37377   0.00000  Uiso   1.00
O231   O     0.83334   0.18454   0.28974   0.00000  Uiso   1.00
O232   O     0.80676   0.39104   0.16617   0.00000  Uiso   1.00
O233   O     0.91788   0.03159   0.19840   0.00000  Uiso   1.00
O234   O     0.89503   0.47089   0.33798   0.00000  Uiso   1.00
O235   O     0.74499   0.28146   0.01646   0.00000  Uiso   1.00
O236   O     0.91646   0.29059   0.48200   0.00000  Uiso   1.00
O237   O     0.83333   0.31547   0.21026   0.00000  Uiso   1.00
O238   O     0.83334   0.18453   0.21026   0.00000  Uiso   1.00
O239   O     0.83333   0.31547   0.28974   0.00000  Uiso   1.00
O240   O     0.75725   0.25000   0.28045   0.00000  Uiso   1.00
O241   O     0.90942   0.25000   0.21956   0.00000  Uiso   1.00
O242   O     0.75725   0.25000   0.20097   0.00000  Uiso   1.00
O243   O     0.90942   0.25001   0.29904   0.00000  Uiso   1.00
O244   O     0.78095   0.10886   0.31006   0.00000  Uiso   1.00
Zn245  Zn    0.83333   0.25001   0.30307   0.00000  Uiso   1.00
Zn246  Zn    0.83333   0.25000   0.19693   0.00000  Uiso   1.00
C247   C     0.16700   0.66373   0.25025   0.00000  Uiso   1.00
C248   C     0.12579   0.73032   0.44217   0.00000  Uiso   1.00
C249   C     0.16628   0.75056   0.02656   0.00000  Uiso   1.00
C250   C     0.16681   0.75056   0.47337   0.00000  Uiso   1.00
C251   C     0.06697   0.74998   0.23750   0.00000  Uiso   1.00
C252   C     0.26636   0.74998   0.26250   0.00000  Uiso   1.00
C253   C     0.01194   0.75000   0.23075   0.00000  Uiso   1.00
C254   C     0.32139   0.74991   0.26926   0.00000  Uiso   1.00
C255   C     0.15835   0.54361   0.28538   0.00000  Uiso   1.00
C256   C     0.17232   0.95634   0.21073   0.00000  Uiso   1.00
C257   C     0.15021   0.58975   0.28435   0.00000  Uiso   1.00
C258   C     0.16762   0.83643   0.24992   0.00000  Uiso   1.00
C259   C     0.16452   0.91020   0.20823   0.00000  Uiso   1.00
C260   C     0.17394   0.61583   0.25205   0.00000  Uiso   1.00
C261   C     0.17569   0.88453   0.25052   0.00000  Uiso   1.00
C262   C     0.20817   0.59667   0.22387   0.00000  Uiso   1.00
C263   C     0.19823   0.90453   0.29354   0.00000  Uiso   1.00
C264   C     0.21862   0.55097   0.22710   0.00000  Uiso   1.00
C265   C     0.20865   0.95034   0.29524   0.00000  Uiso   1.00
C266   C     0.19213   0.52446   0.25686   0.00000  Uiso   1.00
C267   C     0.19348   0.97617   0.25398   0.00000  Uiso   1.00
C268   C     0.13349   0.60558   0.35938   0.00000  Uiso   1.00
C269   C     0.12273   0.76678   0.04627   0.00000  Uiso   1.00
C270   C     0.17528   0.89123   0.13250   0.00000  Uiso   1.00
C271   C     0.30373   0.53817   0.21991   0.00000  Uiso   1.00
C272   C     0.28136   0.95826   0.35136   0.00000  Uiso   1.00
C273   C     0.07461   0.82849   0.02010   0.00000  Uiso   1.00
C274   C     0.24251   0.83750   0.48094   0.00000  Uiso   1.00
C275   C     0.20789   0.77104   0.45306   0.00000  Uiso   1.00
C276   C     0.12382   0.76565   0.09643   0.00000  Uiso   1.00
C277   C     0.20705   0.76986   0.40302   0.00000  Uiso   1.00
C278   C     0.20923   0.73460   0.10788   0.00000  Uiso   1.00
C279   C     0.12647   0.73038   0.39258   0.00000  Uiso   1.00
C280   C     0.20986   0.73470   0.05830   0.00000  Uiso   1.00
H281   H     0.13664   0.52243   0.30680   0.00000  Uiso   1.00
H282   H     0.18189   0.92587   0.11980   0.00000  Uiso   1.00
H283   H     0.22736   0.61723   0.19988   0.00000  Uiso   1.00
H284   H     0.20759   0.88472   0.32595   0.00000  Uiso   1.00
H285   H     0.31117   0.52329   0.25651   0.00000  Uiso   1.00
H286   H     0.31435   0.57443   0.22102   0.00000  Uiso   1.00
H287   H     0.32992   0.52093   0.19811   0.00000  Uiso   1.00
H288   H     0.30490   0.96459   0.32205   0.00000  Uiso   1.00
H289   H     0.28469   0.92249   0.36289   0.00000  Uiso   1.00
H290   H     0.29857   0.97893   0.38230   0.00000  Uiso   1.00
H291   H     0.11112   0.84551   0.01272   0.00000  Uiso   1.00
H292   H     0.15943   0.97700   0.17949   0.00000  Uiso   1.00
H293   H     0.06533   0.83843   0.05569   0.00000  Uiso   1.00
H294   H     0.04194   0.84041   0.49280   0.00000  Uiso   1.00
H295   H     0.20495   0.84687   0.49327   0.00000  Uiso   1.00
H296   H     0.24406   0.85158   0.44465   0.00000  Uiso   1.00
H297   H     0.27491   0.85302   0.00584   0.00000  Uiso   1.00
H298   H     0.09017   0.77731   0.11152   0.00000  Uiso   1.00
H299   H     0.23880   0.78507   0.38754   0.00000  Uiso   1.00
H300   H     0.24290   0.72190   0.13169   0.00000  Uiso   1.00
H301   H     0.09478   0.71450   0.36909   0.00000  Uiso   1.00
H302   H     0.24403   0.72185   0.04477   0.00000  Uiso   1.00
H303   H     0.32459   0.75013   0.19425   0.00000  Uiso   1.00
H304   H     0.09363   0.71403   0.45611   0.00000  Uiso   1.00
H305   H     0.00876   0.74980   0.30576   0.00000  Uiso   1.00
H306   H     0.10747   0.62543   0.37915   0.00000  Uiso   1.00
H307   H     0.17383   0.61981   0.36806   0.00000  Uiso   1.00
H308   H     0.13267   0.57031   0.37231   0.00000  Uiso   1.00
H309   H     0.15772   0.87141   0.10102   0.00000  Uiso   1.00
H310   H     0.21342   0.87512   0.14716   0.00000  Uiso   1.00
N311   N     0.16667   0.74999   0.12624   0.00000  Uiso   1.00
N312   N     0.16667   0.75001   0.37377   0.00000  Uiso   1.00
O313   O     0.16667   0.68454   0.28974   0.00000  Uiso   1.00
O314   O     0.14009   0.89104   0.16617   0.00000  Uiso   1.00
O315   O     0.25121   0.53159   0.19840   0.00000  Uiso   1.00
O316   O     0.22837   0.97089   0.33798   0.00000  Uiso   1.00
O317   O     0.07832   0.78146   0.01646   0.00000  Uiso   1.00
O318   O     0.24980   0.79059   0.48200   0.00000  Uiso   1.00
O319   O     0.16666   0.81547   0.21026   0.00000  Uiso   1.00
O320   O     0.16667   0.68453   0.21026   0.00000  Uiso   1.00
O321   O     0.16666   0.81547   0.28974   0.00000  Uiso   1.00
O322   O     0.09058   0.75000   0.28045   0.00000  Uiso   1.00
O323   O     0.24275   0.75000   0.21956   0.00000  Uiso   1.00
O324   O     0.09058   0.75000   0.20097   0.00000  Uiso   1.00
O325   O     0.24275   0.75001   0.29904   0.00000  Uiso   1.00
O326   O     0.11428   0.60886   0.31006   0.00000  Uiso   1.00
Zn327  Zn    0.16667   0.75001   0.30307   0.00000  Uiso   1.00
Zn328  Zn    0.16667   0.75000   0.19693   0.00000  Uiso   1.00
C329   C     0.50034   0.66373   0.25025   0.00000  Uiso   1.00
C330   C     0.45913   0.73032   0.44217   0.00000  Uiso   1.00
C331   C     0.49962   0.75056   0.02656   0.00000  Uiso   1.00
C332   C     0.50014   0.75056   0.47337   0.00000  Uiso   1.00
C333   C     0.40031   0.74998   0.23750   0.00000  Uiso   1.00
C334   C     0.59970   0.74998   0.26250   0.00000  Uiso   1.00
C335   C     0.34528   0.75000   0.23075   0.00000  Uiso   1.00
C336   C     0.65473   0.74991   0.26926   0.00000  Uiso   1.00
C337   C     0.49168   0.54361   0.28538   0.00000  Uiso   1.00
C338   C     0.50565   0.95634   0.21073   0.00000  Uiso   1.00
C339   C     0.48355   0.58975   0.28435   0.00000  Uiso   1.00
C340   C     0.50095   0.83643   0.24992   0.00000  Uiso   1.00
C341   C     0.49785   0.91020   0.20823   0.00000  Uiso   1.00
C342   C     0.50728   0.61583   0.25205   0.00000  Uiso   1.00
C343   C     0.50902   0.88453   0.25052   0.00000  Uiso   1.00
C344   C     0.54151   0.59667   0.22387   0.00000  Uiso   1.00
C345   C     0.53157   0.90453   0.29354   0.00000  Uiso   1.00
C346   C     0.55195   0.55097   0.22710   0.00000  Uiso   1.00
C347   C     0.54198   0.95034   0.29524   0.00000  Uiso   1.00
C348   C     0.52546   0.52446   0.25686   0.00000  Uiso   1.00
C349   C     0.52682   0.97617   0.25398   0.00000  Uiso   1.00
C350   C     0.46682   0.60558   0.35938   0.00000  Uiso   1.00
C351   C     0.45606   0.76678   0.04627   0.00000  Uiso   1.00
C352   C     0.50862   0.89123   0.13250   0.00000  Uiso   1.00
C353   C     0.63706   0.53817   0.21991   0.00000  Uiso   1.00
C354   C     0.61469   0.95826   0.35136   0.00000  Uiso   1.00
C355   C     0.40795   0.82849   0.02010   0.00000  Uiso   1.00
C356   C     0.57585   0.83750   0.48094   0.00000  Uiso   1.00
C357   C     0.54122   0.77104   0.45306   0.00000  Uiso   1.00
C358   C     0.45716   0.76565   0.09643   0.00000  Uiso   1.00
C359   C     0.54038   0.76986   0.40302   0.00000  Uiso   1.00
C360   C     0.54256   0.73460   0.10788   0.00000  Uiso   1.00
C361   C     0.45981   0.73038   0.39258   0.00000  Uiso   1.00
C362   C     0.54319   0.73470   0.05830   0.00000  Uiso   1.00
H363   H     0.46998   0.52243   0.30680   0.00000  Uiso   1.00
H364   H     0.51522   0.92587   0.11980   0.00000  Uiso   1.00
H365   H     0.56069   0.61723   0.19988   0.00000  Uiso   1.00
H366   H     0.54092   0.88472   0.32595   0.00000  Uiso   1.00
H367   H     0.64451   0.52329   0.25651   0.00000  Uiso   1.00
H368   H     0.64769   0.57443   0.22102   0.00000  Uiso   1.00
H369   H     0.66325   0.52093   0.19811   0.00000  Uiso   1.00
H370   H     0.63823   0.96459   0.32205   0.00000  Uiso   1.00
H371   H     0.61802   0.92249   0.36289   0.00000  Uiso   1.00
H372   H     0.63190   0.97893   0.38230   0.00000  Uiso   1.00
H373   H     0.44445   0.84551   0.01272   0.00000  Uiso   1.00
H374   H     0.49276   0.97700   0.17949   0.00000  Uiso   1.00
H375   H     0.39867   0.83843   0.05569   0.00000  Uiso   1.00
H376   H     0.37527   0.84041   0.49280   0.00000  Uiso   1.00
H377   H     0.53828   0.84687   0.49327   0.00000  Uiso   1.00
H378   H     0.57739   0.85158   0.44465   0.00000  Uiso   1.00
H379   H     0.60825   0.85302   0.00584   0.00000  Uiso   1.00
H380   H     0.42351   0.77731   0.11152   0.00000  Uiso   1.00
H381   H     0.57213   0.78507   0.38754   0.00000  Uiso   1.00
H382   H     0.57623   0.72190   0.13169   0.00000  Uiso   1.00
H383   H     0.42811   0.71450   0.36909   0.00000  Uiso   1.00
H384   H     0.57736   0.72185   0.04477   0.00000  Uiso   1.00
H385   H     0.65792   0.75013   0.19425   0.00000  Uiso   1.00
H386   H     0.42696   0.71403   0.45611   0.00000  Uiso   1.00
H387   H     0.34209   0.74980   0.30576   0.00000  Uiso   1.00
H388   H     0.44081   0.62543   0.37915   0.00000  Uiso   1.00
H389   H     0.50716   0.61981   0.36806   0.00000  Uiso   1.00
H390   H     0.46601   0.57031   0.37231   0.00000  Uiso   1.00
H391   H     0.49106   0.87141   0.10102   0.00000  Uiso   1.00
H392   H     0.54675   0.87512   0.14716   0.00000  Uiso   1.00
N393   N     0.50000   0.74999   0.12624   0.00000  Uiso   1.00
N394   N     0.50000   0.75001   0.37377   0.00000  Uiso   1.00
O395   O     0.50000   0.68454   0.28974   0.00000  Uiso   1.00
O396   O     0.47342   0.89104   0.16617   0.00000  Uiso   1.00
O397   O     0.58454   0.53159   0.19840   0.00000  Uiso   1.00
O398   O     0.56170   0.97089   0.33798   0.00000  Uiso   1.00
O399   O     0.41165   0.78146   0.01646   0.00000  Uiso   1.00
O400   O     0.58313   0.79059   0.48200   0.00000  Uiso   1.00
O401   O     0.50000   0.81547   0.21026   0.00000  Uiso   1.00
O402   O     0.50000   0.68453   0.21026   0.00000  Uiso   1.00
O403   O     0.50000   0.81547   0.28974   0.00000  Uiso   1.00
O404   O     0.42392   0.75000   0.28045   0.00000  Uiso   1.00
O405   O     0.57608   0.75000   0.21956   0.00000  Uiso   1.00
O406   O     0.42392   0.75000   0.20097   0.00000  Uiso   1.00
O407   O     0.57608   0.75001   0.29904   0.00000  Uiso   1.00
O408   O     0.44761   0.60886   0.31006   0.00000  Uiso   1.00
Zn409  Zn    0.50000   0.75001   0.30307   0.00000  Uiso   1.00
Zn410  Zn    0.50000   0.75000   0.19693   0.00000  Uiso   1.00
C411   C     0.83367   0.66373   0.25025   0.00000  Uiso   1.00
C412   C     0.79246   0.73032   0.44217   0.00000  Uiso   1.00
C413   C     0.83295   0.75056   0.02656   0.00000  Uiso   1.00
C414   C     0.83348   0.75056   0.47337   0.00000  Uiso   1.00
C415   C     0.73364   0.74998   0.23750   0.00000  Uiso   1.00
C416   C     0.93303   0.74998   0.26250   0.00000  Uiso   1.00
C417   C     0.67861   0.75000   0.23075   0.00000  Uiso   1.00
C418   C     0.98806   0.74991   0.26926   0.00000  Uiso   1.00
C419   C     0.82502   0.54361   0.28538   0.00000  Uiso   1.00
C420   C     0.83899   0.95634   0.21073   0.00000  Uiso   1.00
C421   C     0.81688   0.58975   0.28435   0.00000  Uiso   1.00
C422   C     0.83429   0.83643   0.24992   0.00000  Uiso   1.00
C423   C     0.83118   0.91020   0.20823   0.00000  Uiso   1.00
C424   C     0.84061   0.61583   0.25205   0.00000  Uiso   1.00
C425   C     0.84235   0.88453   0.25052   0.00000  Uiso   1.00
C426   C     0.87484   0.59667   0.22387   0.00000  Uiso   1.00
C427   C     0.86490   0.90453   0.29354   0.00000  Uiso   1.00
C428   C     0.88529   0.55097   0.22710   0.00000  Uiso   1.00
C429   C     0.87532   0.95034   0.29524   0.00000  Uiso   1.00
C430   C     0.85880   0.52446   0.25686   0.00000  Uiso   1.00
C431   C     0.86015   0.97617   0.25398   0.00000  Uiso   1.00
C432   C     0.80015   0.60558   0.35938   0.00000  Uiso   1.00
C433   C     0.78939   0.76678   0.04627   0.00000  Uiso   1.00
C434   C     0.84195   0.89123   0.13250   0.00000  Uiso   1.00
C435   C     0.97039   0.53817   0.21991   0.00000  Uiso   1.00
C436   C     0.94802   0.95826   0.35136   0.00000  Uiso   1.00
C437   C     0.74128   0.82849   0.02010   0.00000  Uiso   1.00
C438   C     0.90918   0.83750   0.48094   0.00000  Uiso   1.00
C439   C     0.87455   0.77104   0.45306   0.00000  Uiso   1.00
C440   C     0.79049   0.76565   0.09643   0.00000  Uiso   1.00
C441   C     0.87371   0.76986   0.40302   0.00000  Uiso   1.00
C442   C     0.87590   0.73460   0.10788   0.00000  Uiso   1.00
C443   C     0.79314   0.73038   0.39258   0.00000  Uiso   1.00
C444   C     0.87652   0.73470   0.05830   0.00000  Uiso   1.00
H445   H     0.80331   0.52243   0.30680   0.00000  Uiso   1.00
H446   H     0.84855   0.92587   0.11980   0.00000  Uiso   1.00
H447   H     0.89403   0.61723   0.19988   0.00000  Uiso   1.00
H448   H     0.87426   0.88472   0.32595   0.00000  Uiso   1.00
H449   H     0.97784   0.52329   0.25651   0.00000  Uiso   1.00
H450   H     0.98102   0.57443   0.22102   0.00000  Uiso   1.00
H451   H     0.99658   0.52093   0.19811   0.00000  Uiso   1.00
H452   H     0.97156   0.96459   0.32205   0.00000  Uiso   1.00
H453   H     0.95135   0.92249   0.36289   0.00000  Uiso   1.00
H454   H     0.96524   0.97893   0.38230   0.00000  Uiso   1.00
H455   H     0.77778   0.84551   0.01272   0.00000  Uiso   1.00
H456   H     0.82609   0.97700   0.17949   0.00000  Uiso   1.00
H457   H     0.73200   0.83843   0.05569   0.00000  Uiso   1.00
H458   H     0.70861   0.84041   0.49280   0.00000  Uiso   1.00
H459   H     0.87162   0.84687   0.49327   0.00000  Uiso   1.00
H460   H     0.91072   0.85158   0.44465   0.00000  Uiso   1.00
H461   H     0.94158   0.85302   0.00584   0.00000  Uiso   1.00
H462   H     0.75684   0.77731   0.11152   0.00000  Uiso   1.00
H463   H     0.90546   0.78507   0.38754   0.00000  Uiso   1.00
H464   H     0.90956   0.72190   0.13169   0.00000  Uiso   1.00
H465   H     0.76144   0.71450   0.36909   0.00000  Uiso   1.00
H466   H     0.91069   0.72185   0.04477   0.00000  Uiso   1.00
H467   H     0.99125   0.75013   0.19425   0.00000  Uiso   1.00
H468   H     0.76029   0.71403   0.45611   0.00000  Uiso   1.00
H469   H     0.67543   0.74980   0.30576   0.00000  Uiso   1.00
H470   H     0.77414   0.62543   0.37915   0.00000  Uiso   1.00
H471   H     0.84050   0.61981   0.36806   0.00000  Uiso   1.00
H472   H     0.79934   0.57031   0.37231   0.00000  Uiso   1.00
H473   H     0.82439   0.87141   0.10102   0.00000  Uiso   1.00
H474   H     0.88009   0.87512   0.14716   0.00000  Uiso   1.00
N475   N     0.83333   0.74999   0.12624   0.00000  Uiso   1.00
N476   N     0.83333   0.75001   0.37377   0.00000  Uiso   1.00
O477   O     0.83334   0.68454   0.28974   0.00000  Uiso   1.00
O478   O     0.80676   0.89104   0.16617   0.00000  Uiso   1.00
O479   O     0.91788   0.53159   0.19840   0.00000  Uiso   1.00
O480   O     0.89503   0.97089   0.33798   0.00000  Uiso   1.00
O481   O     0.74499   0.78146   0.01646   0.00000  Uiso   1.00
O482   O     0.91646   0.79059   0.48200   0.00000  Uiso   1.00
O483   O     0.83333   0.81547   0.21026   0.00000  Uiso   1.00
O484   O     0.83334   0.68453   0.21026   0.00000  Uiso   1.00
O485   O     0.83333   0.81547   0.28974   0.00000  Uiso   1.00
O486   O     0.75725   0.75000   0.28045   0.00000  Uiso   1.00
O487   O     0.90942   0.75000   0.21956   0.00000  Uiso   1.00
O488   O     0.75725   0.75000   0.20097   0.00000  Uiso   1.00
O489   O     0.90942   0.75001   0.29904   0.00000  Uiso   1.00
O490   O     0.78095   0.60886   0.31006   0.00000  Uiso   1.00
Zn491  Zn    0.83333   0.75001   0.30307   0.00000  Uiso   1.00
Zn492  Zn    0.83333   0.75000   0.19693   0.00000  Uiso   1.00
C493   C     0.16700   0.16373   0.75025   0.00000  Uiso   1.00
C494   C     0.12579   0.23032   0.94217   0.00000  Uiso   1.00
C495   C     0.16628   0.25056   0.52656   0.00000  Uiso   1.00
C496   C     0.16681   0.25056   0.97337   0.00000  Uiso   1.00
C497   C     0.06697   0.24998   0.73750   0.00000  Uiso   1.00
C498   C     0.26636   0.24998   0.76250   0.00000  Uiso   1.00
C499   C     0.01194   0.25000   0.73075   0.00000  Uiso   1.00
C500   C     0.32139   0.24991   0.76926   0.00000  Uiso   1.00
C501   C     0.15835   0.04361   0.78538   0.00000  Uiso   1.00
C502   C     0.17232   0.45634   0.71073   0.00000  Uiso   1.00
C503   C     0.15021   0.08975   0.78435   0.00000  Uiso   1.00
C504   C     0.16762   0.33643   0.74992   0.00000  Uiso   1.00
C505   C     0.16452   0.41020   0.70823   0.00000  Uiso   1.00
C506   C     0.17394   0.11583   0.75205   0.00000  Uiso   1.00
C507   C     0.17569   0.38453   0.75052   0.00000  Uiso   1.00
C508   C     0.20817   0.09667   0.72387   0.00000  Uiso   1.00
C509   C     0.19823   0.40453   0.79354   0.00000  Uiso   1.00
C510   C     0.21862   0.05097   0.72710   0.00000  Uiso   1.00
C511   C     0.20865   0.45034   0.79524   0.00000  Uiso   1.00
C512   C     0.19213   0.02446   0.75686   0.00000  Uiso   1.00
C513   C     0.19348   0.47617   0.75398   0.00000  Uiso   1.00
C514   C     0.13349   0.10558   0.85938   0.00000  Uiso   1.00
C515   C     0.12273   0.26678   0.54627   0.00000  Uiso   1.00
C516   C     0.17528   0.39123   0.63250   0.00000  Uiso   1.00
C517   C     0.30373   0.03817   0.71991   0.00000  Uiso   1.00
C518   C     0.28136   0.45826   0.85136   0.00000  Uiso   1.00
C519   C     0.07461   0.32849   0.52010   0.00000  Uiso   1.00
C520   C     0.24251   0.33750   0.98094   0.00000  Uiso   1.00
C521   C     0.20789   0.27104   0.95306   0.00000  Uiso   1.00
C522   C     0.12382   0.26565   0.59643   0.00000  Uiso   1.00
C523   C     0.20705   0.26986   0.90302   0.00000  Uiso   1.00
C524   C     0.20923   0.23460   0.60788   0.00000  Uiso   1.00
C525   C     0.12647   0.23038   0.89258   0.00000  Uiso   1.00
C526   C     0.20986   0.23470   0.55830   0.00000  Uiso   1.00
H527   H     0.13664   0.02243   0.80680   0.00000  Uiso   1.00
H528   H     0.18189   0.42587   0.61980   0.00000  Uiso   1.00
H529   H     0.22736   0.11723   0.69988   0.00000  Uiso   1.00
H530   H     0.20759   0.38472   0.82595   0.00000  Uiso   1.00
H531   H     0.31117   0.02329   0.75651   0.00000  Uiso   1.00
H532   H     0.31435   0.07443   0.72102   0.00000  Uiso   1.00
H533   H     0.32992   0.02093   0.69811   0.00000  Uiso   1.00
H534   H     0.30490   0.46459   0.82205   0.00000  Uiso   1.00
H535   H     0.28469   0.42249   0.86289   0.00000  Uiso   1.00
H536   H     0.29857   0.47893   0.88230   0.00000  Uiso   1.00
H537   H     0.11112   0.34551   0.51272   0.00000  Uiso   1.00
H538   H     0.15943   0.47700   0.67949   0.00000  Uiso   1.00
H539   H     0.06533   0.33843   0.55569   0.00000  Uiso   1.00
H540   H     0.04194   0.34041   0.99280   0.00000  Uiso   1.00
H541   H     0.20495   0.34687   0.99327   0.00000  Uiso   1.00
H542   H     0.24406   0.35158   0.94465   0.00000  Uiso   1.00
H543   H     0.27491   0.35302   0.50584   0.00000  Uiso   1.00
H544   H     0.09017   0.27731   0.61152   0.00000  Uiso   1.00
H545   H     0.23880   0.28507   0.88754   0.00000  Uiso   1.00
H546   H     0.24290   0.22190   0.63169   0.00000  Uiso   1.00
H547   H     0.09478   0.21450   0.86909   0.00000  Uiso   1.00
H548   H     0.24403   0.22185   0.54477   0.00000  Uiso   1.00
H549   H     0.32459   0.25013   0.69425   0.00000  Uiso   1.00
H550   H     0.09363   0.21403   0.95611   0.00000  Uiso   1.00
H551   H     0.00876   0.24980   0.80576   0.00000  Uiso   1.00
H552   H     0.10747   0.12543   0.87915   0.00000  Uiso   1.00
H553   H     0.17383   0.11981   0.86806   0.00000  Uiso   1.00
H554   H     0.13267   0.07031   0.87231   0.00000  Uiso   1.00
H555   H     0.15772   0.37141   0.60102   0.00000  Uiso   1.00
H556   H     0.21342   0.37512   0.64716   0.00000  Uiso   1.00
N557   N     0.16667   0.24999   0.62624   0.00000  Uiso   1.00
N558   N     0.16667   0.25001   0.87377   0.00000  Uiso   1.00
O559   O     0.16667   0.18454   0.78974   0.00000  Uiso   1.00
O560   O     0.14009   0.39104   0.66617   0.00000  Uiso   1.00
O561   O     0.25121   0.03159   0.69840   0.00000  Uiso   1.00
O562   O     0.22837   0.47089   0.83798   0.00000  Uiso   1.00
O563   O     0.07832   0.28146   0.51646   0.00000  Uiso   1.00
O564   O     0.24980   0.29059   0.98200   0.00000  Uiso   1.00
O565   O     0.16666   0.31547   0.71026   0.00000  Uiso   1.00
O566   O     0.16667   0.18453   0.71026   0.00000  Uiso   1.00
O567   O     0.16666   0.31547   0.78974   0.00000  Uiso   1.00
O568   O     0.09058   0.25000   0.78045   0.00000  Uiso   1.00
O569   O     0.24275   0.25000   0.71956   0.00000  Uiso   1.00
O570   O     0.09058   0.25000   0.70097   0.00000  Uiso   1.00
O571   O     0.24275   0.25001   0.79904   0.00000  Uiso   1.00
O572   O     0.11428   0.10886   0.81006   0.00000  Uiso   1.00
Zn573  Zn    0.16667   0.25001   0.80307   0.00000  Uiso   1.00
Zn574  Zn    0.16667   0.25000   0.69693   0.00000  Uiso   1.00
C575   C     0.50034   0.16373   0.75025   0.00000  Uiso   1.00
C576   C     0.45913   0.23032   0.94217   0.00000  Uiso   1.00
C577   C     0.49962   0.25056   0.52656   0.00000  Uiso   1.00
C578   C     0.50014   0.25056   0.97337   0.00000  Uiso   1.00
C579   C     0.40031   0.24998   0.73750   0.00000  Uiso   1.00
C580   C     0.59970   0.24998   0.76250   0.00000  Uiso   1.00
C581   C     0.34528   0.25000   0.73075   0.00000  Uiso   1.00
C582   C     0.65473   0.24991   0.76926   0.00000  Uiso   1.00
C583   C     0.49168   0.04361   0.78538   0.00000  Uiso   1.00
C584   C     0.50565   0.45634   0.71073   0.00000  Uiso   1.00
C585   C     0.48355   0.08975   0.78435   0.00000  Uiso   1.00
C586   C     0.50095   0.33643   0.74992   0.00000  Uiso   1.00
C587   C     0.49785   0.41020   0.70823   0.00000  Uiso   1.00
C588   C     0.50728   0.11583   0.75205   0.00000  Uiso   1.00
C589   C     0.50902   0.38453   0.75052   0.00000  Uiso   1.00
C590   C     0.54151   0.09667   0.72387   0.00000  Uiso   1.00
C591   C     0.53157   0.40453   0.79354   0.00000  Uiso   1.00
C592   C     0.55195   0.05097   0.72710   0.00000  Uiso   1.00
C593   C     0.54198   0.45034   0.79524   0.00000  Uiso   1.00
C594   C     0.52546   0.02446   0.75686   0.00000  Uiso   1.00
C595   C     0.52682   0.47617   0.75398   0.00000  Uiso   1.00
C596   C     0.46682   0.10558   0.85938   0.00000  Uiso   1.00
C597   C     0.45606   0.26678   0.54627   0.00000  Uiso   1.00
C598   C     0.50862   0.39123   0.63250   0.00000  Uiso   1.00
C599   C     0.63706   0.03817   0.71991   0.00000  Uiso   1.00
C600   C     0.61469   0.45826   0.85136   0.00000  Uiso   1.00
C601   C     0.40795   0.32849   0.52010   0.00000  Uiso   1.00
C602   C     0.57585   0.33750   0.98094   0.00000  Uiso   1.00
C603   C     0.54122   0.27104   0.95306   0.00000  Uiso   1.00
C604   C     0.45716   0.26565   0.59643   0.00000  Uiso   1.00
C605   C     0.54038   0.26986   0.90302   0.00000  Uiso   1.00
C606   C     0.54256   0.23460   0.60788   0.00000  Uiso   1.00
C607   C     0.45981   0.23038   0.89258   0.00000  Uiso   1.00
C608   C     0.54319   0.23470   0.55830   0.00000  Uiso   1.00
H609   H     0.46998   0.02243   0.80680   0.00000  Uiso   1.00
H610   H     0.51522   0.42587   0.61980   0.00000  Uiso   1.00
H611   H     0.56069   0.11723   0.69988   0.00000  Uiso   1.00
H612   H     0.54092   0.38472   0.82595   0.00000  Uiso   1.00
H613   H     0.64451   0.02329   0.75651   0.00000  Uiso   1.00
H614   H     0.64769   0.07443   0.72102   0.00000  Uiso   1.00
H615   H     0.66325   0.02093   0.69811   0.00000  Uiso   1.00
H616   H     0.63823   0.46459   0.82205   0.00000  Uiso   1.00
H617   H     0.61802   0.42249   0.86289   0.00000  Uiso   1.00
H618   H     0.63190   0.47893   0.88230   0.00000  Uiso   1.00
H619   H     0.44445   0.34551   0.51272   0.00000  Uiso   1.00
H620   H     0.49276   0.47700   0.67949   0.00000  Uiso   1.00
H621   H     0.39867   0.33843   0.55569   0.00000  Uiso   1.00
H622   H     0.37527   0.34041   0.99280   0.00000  Uiso   1.00
H623   H     0.53828   0.34687   0.99327   0.00000  Uiso   1.00
H624   H     0.57739   0.35158   0.94465   0.00000  Uiso   1.00
H625   H     0.60825   0.35302   0.50584   0.00000  Uiso   1.00
H626   H     0.42351   0.27731   0.61152   0.00000  Uiso   1.00
H627   H     0.57213   0.28507   0.88754   0.00000  Uiso   1.00
H628   H     0.57623   0.22190   0.63169   0.00000  Uiso   1.00
H629   H     0.42811   0.21450   0.86909   0.00000  Uiso   1.00
H630   H     0.57736   0.22185   0.54477   0.00000  Uiso   1.00
H631   H     0.65792   0.25013   0.69425   0.00000  Uiso   1.00
H632   H     0.42696   0.21403   0.95611   0.00000  Uiso   1.00
H633   H     0.34209   0.24980   0.80576   0.00000  Uiso   1.00
H634   H     0.44081   0.12543   0.87915   0.00000  Uiso   1.00
H635   H     0.50716   0.11981   0.86806   0.00000  Uiso   1.00
H636   H     0.46601   0.07031   0.87231   0.00000  Uiso   1.00
H637   H     0.49106   0.37141   0.60102   0.00000  Uiso   1.00
H638   H     0.54675   0.37512   0.64716   0.00000  Uiso   1.00
N639   N     0.50000   0.24999   0.62624   0.00000  Uiso   1.00
N640   N     0.50000   0.25001   0.87377   0.00000  Uiso   1.00
O641   O     0.50000   0.18454   0.78974   0.00000  Uiso   1.00
O642   O     0.47342   0.39104   0.66617   0.00000  Uiso   1.00
O643   O     0.58454   0.03159   0.69840   0.00000  Uiso   1.00
O644   O     0.56170   0.47089   0.83798   0.00000  Uiso   1.00
O645   O     0.41165   0.28146   0.51646   0.00000  Uiso   1.00
O646   O     0.58313   0.29059   0.98200   0.00000  Uiso   1.00
O647   O     0.50000   0.31547   0.71026   0.00000  Uiso   1.00
O648   O     0.50000   0.18453   0.71026   0.00000  Uiso   1.00
O649   O     0.50000   0.31547   0.78974   0.00000  Uiso   1.00
O650   O     0.42392   0.25000   0.78045   0.00000  Uiso   1.00
O651   O     0.57608   0.25000   0.71956   0.00000  Uiso   1.00
O652   O     0.42392   0.25000   0.70097   0.00000  Uiso   1.00
O653   O     0.57608   0.25001   0.79904   0.00000  Uiso   1.00
O654   O     0.44761   0.10886   0.81006   0.00000  Uiso   1.00
Zn655  Zn    0.50000   0.25001   0.80307   0.00000  Uiso   1.00
Zn656  Zn    0.50000   0.25000   0.69693   0.00000  Uiso   1.00
C657   C     0.83367   0.16373   0.75025   0.00000  Uiso   1.00
C658   C     0.79246   0.23032   0.94217   0.00000  Uiso   1.00
C659   C     0.83295   0.25056   0.52656   0.00000  Uiso   1.00
C660   C     0.83348   0.25056   0.97337   0.00000  Uiso   1.00
C661   C     0.73364   0.24998   0.73750   0.00000  Uiso   1.00
C662   C     0.93303   0.24998   0.76250   0.00000  Uiso   1.00
C663   C     0.67861   0.25000   0.73075   0.00000  Uiso   1.00
C664   C     0.98806   0.24991   0.76926   0.00000  Uiso   1.00
C665   C     0.82502   0.04361   0.78538   0.00000  Uiso   1.00
C666   C     0.83899   0.45634   0.71073   0.00000  Uiso   1.00
C667   C     0.81688   0.08975   0.78435   0.00000  Uiso   1.00
C668   C     0.83429   0.33643   0.74992   0.00000  Uiso   1.00
C669   C     0.83118   0.41020   0.70823   0.00000  Uiso   1.00
C670   C     0.84061   0.11583   0.75205   0.00000  Uiso   1.00
C671   C     0.84235   0.38453   0.75052   0.00000  Uiso   1.00
C672   C     0.87484   0.09667   0.72387   0.00000  Uiso   1.00
C673   C     0.86490   0.40453   0.79354   0.00000  Uiso   1.00
C674   C     0.88529   0.05097   0.72710   0.00000  Uiso   1.00
C675   C     0.87532   0.45034   0.79524   0.00000  Uiso   1.00
C676   C     0.85880   0.02446   0.75686   0.00000  Uiso   1.00
C677   C     0.86015   0.47617   0.75398   0.00000  Uiso   1.00
C678   C     0.80015   0.10558   0.85938   0.00000  Uiso   1.00
C679   C     0.78939   0.26678   0.54627   0.00000  Uiso   1.00
C680   C     0.84195   0.39123   0.63250   0.00000  Uiso   1.00
C681   C     0.97039   0.03817   0.71991   0.00000  Uiso   1.00
C682   C     0.94802   0.45826   0.85136   0.00000  Uiso   1.00
C683   C     0.74128   0.32849   0.52010   0.00000  Uiso   1.00
C684   C     0.90918   0.33750   0.98094   0.00000  Uiso   1.00
C685   C     0.87455   0.27104   0.95306   0.00000  Uiso   1.00
C686   C     0.79049   0.26565   0.59643   0.00000  Uiso   1.00
C687   C     0.87371   0.26986   0.90302   0.00000  Uiso   1.00
C688   C     0.87590   0.23460   0.60788   0.00000  Uiso   1.00
C689   C     0.79314   0.23038   0.89258   0.00000  Uiso   1.00
C690   C     0.87652   0.23470   0.55830   0.00000  Uiso   1.00
H691   H     0.80331   0.02243   0.80680   0.00000  Uiso   1.00
H692   H     0.84855   0.42587   0.61980   0.00000  Uiso   1.00
H693   H     0.89403   0.11723   0.69988   0.00000  Uiso   1.00
H694   H     0.87426   0.38472   0.82595   0.00000  Uiso   1.00
H695   H     0.97784   0.02329   0.75651   0.00000  Uiso   1.00
H696   H     0.98102   0.07443   0.72102   0.00000  Uiso   1.00
H697   H     0.99658   0.02093   0.69811   0.00000  Uiso   1.00
H698   H     0.97156   0.46459   0.82205   0.00000  Uiso   1.00
H699   H     0.95135   0.42249   0.86289   0.00000  Uiso   1.00
H700   H     0.96524   0.47893   0.88230   0.00000  Uiso   1.00
H701   H     0.77778   0.34551   0.51272   0.00000  Uiso   1.00
H702   H     0.82609   0.47700   0.67949   0.00000  Uiso   1.00
H703   H     0.73200   0.33843   0.55569   0.00000  Uiso   1.00
H704   H     0.70861   0.34041   0.99280   0.00000  Uiso   1.00
H705   H     0.87162   0.34687   0.99327   0.00000  Uiso   1.00
H706   H     0.91072   0.35158   0.94465   0.00000  Uiso   1.00
H707   H     0.94158   0.35302   0.50584   0.00000  Uiso   1.00
H708   H     0.75684   0.27731   0.61152   0.00000  Uiso   1.00
H709   H     0.90546   0.28507   0.88754   0.00000  Uiso   1.00
H710   H     0.90956   0.22190   0.63169   0.00000  Uiso   1.00
H711   H     0.76144   0.21450   0.86909   0.00000  Uiso   1.00
H712   H     0.91069   0.22185   0.54477   0.00000  Uiso   1.00
H713   H     0.99125   0.25013   0.69425   0.00000  Uiso   1.00
H714   H     0.76029   0.21403   0.95611   0.00000  Uiso   1.00
H715   H     0.67543   0.24980   0.80576   0.00000  Uiso   1.00
H716   H     0.77414   0.12543   0.87915   0.00000  Uiso   1.00
H717   H     0.84050   0.11981   0.86806   0.00000  Uiso   1.00
H718   H     0.79934   0.07031   0.87231   0.00000  Uiso   1.00
H719   H     0.82439   0.37141   0.60102   0.00000  Uiso   1.00
H720   H     0.88009   0.37512   0.64716   0.00000  Uiso   1.00
N721   N     0.83333   0.24999   0.62624   0.00000  Uiso   1.00
N722   N     0.83333   0.25001   0.87377   0.00000  Uiso   1.00
O723   O     0.83334   0.18454   0.78974   0.00000  Uiso   1.00
O724   O     0.80676   0.39104   0.66617   0.00000  Uiso   1.00
O725   O     0.91788   0.03159   0.69840   0.00000  Uiso   1.00
O726   O     0.89503   0.47089   0.83798   0.00000  Uiso   1.00
O727   O     0.74499   0.28146   0.51646   0.00000  Uiso   1.00
O728   O     0.91646   0.29059   0.98200   0.00000  Uiso   1.00
O729   O     0.83333   0.31547   0.71026   0.00000  Uiso   1.00
O730   O     0.83334   0.18453   0.71026   0.00000  Uiso   1.00
O731   O     0.83333   0.31547   0.78974   0.00000  Uiso   1.00
O732   O     0.75725   0.25000   0.78045   0.00000  Uiso   1.00
O733   O     0.90942   0.25000   0.71956   0.00000  Uiso   1.00
O734   O     0.75725   0.25000   0.70097   0.00000  Uiso   1.00
O735   O     0.90942   0.25001   0.79904   0.00000  Uiso   1.00
O736   O     0.78095   0.10886   0.81006   0.00000  Uiso   1.00
Zn737  Zn    0.83333   0.25001   0.80307   0.00000  Uiso   1.00
Zn738  Zn    0.83333   0.25000   0.69693   0.00000  Uiso   1.00
C739   C     0.16700   0.66373   0.75025   0.00000  Uiso   1.00
C740   C     0.12579   0.73032   0.94217   0.00000  Uiso   1.00
C741   C     0.16628   0.75056   0.52656   0.00000  Uiso   1.00
C742   C     0.16681   0.75056   0.97337   0.00000  Uiso   1.00
C743   C     0.06697   0.74998   0.73750   0.00000  Uiso   1.00
C744   C     0.26636   0.74998   0.76250   0.00000  Uiso   1.00
C745   C     0.01194   0.75000   0.73075   0.00000  Uiso   1.00
C746   C     0.32139   0.74991   0.76926   0.00000  Uiso   1.00
C747   C     0.15835   0.54361   0.78538   0.00000  Uiso   1.00
C748   C     0.17232   0.95634   0.71073   0.00000  Uiso   1.00
C749   C     0.15021   0.58975   0.78435   0.00000  Uiso   1.00
C750   C     0.16762   0.83643   0.74992   0.00000  Uiso   1.00
C751   C     0.16452   0.91020   0.70823   0.00000  Uiso   1.00
C752   C     0.17394   0.61583   0.75205   0.00000  Uiso   1.00
C753   C     0.17569   0.88453   0.75052   0.00000  Uiso   1.00
C754   C     0.20817   0.59667   0.72387   0.00000  Uiso   1.00
C755   C     0.19823   0.90453   0.79354   0.00000  Uiso   1.00
C756   C     0.21862   0.55097   0.72710   0.00000  Uiso   1.00
C757   C     0.20865   0.95034   0.79524   0.00000  Uiso   1.00
C758   C     0.19213   0.52446   0.75686   0.00000  Uiso   1.00
C759   C     0.19348   0.97617   0.75398   0.00000  Uiso   1.00
C760   C     0.13349   0.60558   0.85938   0.00000  Uiso   1.00
C761   C     0.12273   0.76678   0.54627   0.00000  Uiso   1.00
C762   C     0.17528   0.89123   0.63250   0.00000  Uiso   1.00
C763   C     0.30373   0.53817   0.71991   0.00000  Uiso   1.00
C764   C     0.28136   0.95826   0.85136   0.00000  Uiso   1.00
C765   C     0.07461   0.82849   0.52010   0.00000  Uiso   1.00
C766   C     0.24251   0.83750   0.98094   0.00000  Uiso   1.00
C767   C     0.20789   0.77104   0.95306   0.00000  Uiso   1.00
C768   C     0.12382   0.76565   0.59643   0.00000  Uiso   1.00
C769   C     0.20705   0.76986   0.90302   0.00000  Uiso   1.00
C770   C     0.20923   0.73460   0.60788   0.00000  Uiso   1.00
C771   C     0.12647   0.73038   0.89258   0.00000  Uiso   1.00
C772   C     0.20986   0.73470   0.55830   0.00000  Uiso   1.00
H773   H     0.13664   0.52243   0.80680   0.00000  Uiso   1.00
H774   H     0.18189   0.92587   0.61980   0.00000  Uiso   1.00
H775   H     0.22736   0.61723   0.69988   0.00000  Uiso   1.00
H776   H     0.20759   0.88472   0.82595   0.00000  Uiso   1.00
H777   H     0.31117   0.52329   0.75651   0.00000  Uiso   1.00
H778   H     0.31435   0.57443   0.72102   0.00000  Uiso   1.00
H779   H     0.32992   0.52093   0.69811   0.00000  Uiso   1.00
H780   H     0.30490   0.96459   0.82205   0.00000  Uiso   1.00
H781   H     0.28469   0.92249   0.86289   0.00000  Uiso   1.00
H782   H     0.29857   0.97893   0.88230   0.00000  Uiso   1.00
H783   H     0.11112   0.84551   0.51272   0.00000  Uiso   1.00
H784   H     0.15943   0.97700   0.67949   0.00000  Uiso   1.00
H785   H     0.06533   0.83843   0.55569   0.00000  Uiso   1.00
H786   H     0.04194   0.84041   0.99280   0.00000  Uiso   1.00
H787   H     0.20495   0.84687   0.99327   0.00000  Uiso   1.00
H788   H     0.24406   0.85158   0.94465   0.00000  Uiso   1.00
H789   H     0.27491   0.85302   0.50584   0.00000  Uiso   1.00
H790   H     0.09017   0.77731   0.61152   0.00000  Uiso   1.00
H791   H     0.23880   0.78507   0.88754   0.00000  Uiso   1.00
H792   H     0.24290   0.72190   0.63169   0.00000  Uiso   1.00
H793   H     0.09478   0.71450   0.86909   0.00000  Uiso   1.00
H794   H     0.24403   0.72185   0.54477   0.00000  Uiso   1.00
H795   H     0.32459   0.75013   0.69425   0.00000  Uiso   1.00
H796   H     0.09363   0.71403   0.95611   0.00000  Uiso   1.00
H797   H     0.00876   0.74980   0.80576   0.00000  Uiso   1.00
H798   H     0.10747   0.62543   0.87915   0.00000  Uiso   1.00
H799   H     0.17383   0.61981   0.86806   0.00000  Uiso   1.00
H800   H     0.13267   0.57031   0.87231   0.00000  Uiso   1.00
H801   H     0.15772   0.87141   0.60102   0.00000  Uiso   1.00
H802   H     0.21342   0.87512   0.64716   0.00000  Uiso   1.00
N803   N     0.16667   0.74999   0.62624   0.00000  Uiso   1.00
N804   N     0.16667   0.75001   0.87377   0.00000  Uiso   1.00
O805   O     0.16667   0.68454   0.78974   0.00000  Uiso   1.00
O806   O     0.14009   0.89104   0.66617   0.00000  Uiso   1.00
O807   O     0.25121   0.53159   0.69840   0.00000  Uiso   1.00
O808   O     0.22837   0.97089   0.83798   0.00000  Uiso   1.00
O809   O     0.07832   0.78146   0.51646   0.00000  Uiso   1.00
O810   O     0.24980   0.79059   0.98200   0.00000  Uiso   1.00
O811   O     0.16666   0.81547   0.71026   0.00000  Uiso   1.00
O812   O     0.16667   0.68453   0.71026   0.00000  Uiso   1.00
O813   O     0.16666   0.81547   0.78974   0.00000  Uiso   1.00
O814   O     0.09058   0.75000   0.78045   0.00000  Uiso   1.00
O815   O     0.24275   0.75000   0.71956   0.00000  Uiso   1.00
O816   O     0.09058   0.75000   0.70097   0.00000  Uiso   1.00
O817   O     0.24275   0.75001   0.79904   0.00000  Uiso   1.00
O818   O     0.11428   0.60886   0.81006   0.00000  Uiso   1.00
Zn819  Zn    0.16667   0.75001   0.80307   0.00000  Uiso   1.00
Zn820  Zn    0.16667   0.75000   0.69693   0.00000  Uiso   1.00
C821   C     0.50034   0.66373   0.75025   0.00000  Uiso   1.00
C822   C     0.45913   0.73032   0.94217   0.00000  Uiso   1.00
C823   C     0.49962   0.75056   0.52656   0.00000  Uiso   1.00
C824   C     0.50014   0.75056   0.97337   0.00000  Uiso   1.00
C825   C     0.40031   0.74998   0.73750   0.00000  Uiso   1.00
C826   C     0.59970   0.74998   0.76250   0.00000  Uiso   1.00
C827   C     0.34528   0.75000   0.73075   0.00000  Uiso   1.00
C828   C     0.65473   0.74991   0.76926   0.00000  Uiso   1.00
C829   C     0.49168   0.54361   0.78538   0.00000  Uiso   1.00
C830   C     0.50565   0.95634   0.71073   0.00000  Uiso   1.00
C831   C     0.48355   0.58975   0.78435   0.00000  Uiso   1.00
C832   C     0.50095   0.83643   0.74992   0.00000  Uiso   1.00
C833   C     0.49785   0.91020   0.70823   0.00000  Uiso   1.00
C834   C     0.50728   0.61583   0.75205   0.00000  Uiso   1.00
C835   C     0.50902   0.88453   0.75052   0.00000  Uiso   1.00
C836   C     0.54151   0.59667   0.72387   0.00000  Uiso   1.00
C837   C     0.53157   0.90453   0.79354   0.00000  Uiso   1.00
C838   C     0.55195   0.55097   0.72710   0.00000  Uiso   1.00
C839   C     0.54198   0.95034   0.79524   0.00000  Uiso   1.00
C840   C     0.52546   0.52446   0.75686   0.00000  Uiso   1.00
C841   C     0.52682   0.97617   0.75398   0.00000  Uiso   1.00
C842   C     0.46682   0.60558   0.85938   0.00000  Uiso   1.00
C843   C     0.45606   0.76678   0.54627   0.00000  Uiso   1.00
C844   C     0.50862   0.89123   0.63250   0.00000  Uiso   1.00
C845   C     0.63706   0.53817   0.71991   0.00000  Uiso   1.00
C846   C     0.61469   0.95826   0.85136   0.00000  Uiso   1.00
C847   C     0.40795   0.82849   0.52010   0.00000  Uiso   1.00
C848   C     0.57585   0.83750   0.98094   0.00000  Uiso   1.00
C849   C     0.54122   0.77104   0.95306   0.00000  Uiso   1.00
C850   C     0.45716   0.76565   0.59643   0.00000  Uiso   1.00
C851   C     0.54038   0.76986   0.90302   0.00000  Uiso   1.00
C852   C     0.54256   0.73460   0.60788   0.00000  Uiso   1.00
C853   C     0.45981   0.73038   0.89258   0.00000  Uiso   1.00
C854   C     0.54319   0.73470   0.55830   0.00000  Uiso   1.00
H855   H     0.46998   0.52243   0.80680   0.00000  Uiso   1.00
H856   H     0.51522   0.92587   0.61980   0.00000  Uiso   1.00
H857   H     0.56069   0.61723   0.69988   0.00000  Uiso   1.00
H858   H     0.54092   0.88472   0.82595   0.00000  Uiso   1.00
H859   H     0.64451   0.52329   0.75651   0.00000  Uiso   1.00
H860   H     0.64769   0.57443   0.72102   0.00000  Uiso   1.00
H861   H     0.66325   0.52093   0.69811   0.00000  Uiso   1.00
H862   H     0.63823   0.96459   0.82205   0.00000  Uiso   1.00
H863   H     0.61802   0.92249   0.86289   0.00000  Uiso   1.00
H864   H     0.63190   0.97893   0.88230   0.00000  Uiso   1.00
H865   H     0.44445   0.84551   0.51272   0.00000  Uiso   1.00
H866   H     0.49276   0.97700   0.67949   0.00000  Uiso   1.00
H867   H     0.39867   0.83843   0.55569   0.00000  Uiso   1.00
H868   H     0.37527   0.84041   0.99280   0.00000  Uiso   1.00
H869   H     0.53828   0.84687   0.99327   0.00000  Uiso   1.00
H870   H     0.57739   0.85158   0.94465   0.00000  Uiso   1.00
H871   H     0.60825   0.85302   0.50584   0.00000  Uiso   1.00
H872   H     0.42351   0.77731   0.61152   0.00000  Uiso   1.00
H873   H     0.57213   0.78507   0.88754   0.00000  Uiso   1.00
H874   H     0.57623   0.72190   0.63169   0.00000  Uiso   1.00
H875   H     0.42811   0.71450   0.86909   0.00000  Uiso   1.00
H876   H     0.57736   0.72185   0.54477   0.00000  Uiso   1.00
H877   H     0.65792   0.75013   0.69425   0.00000  Uiso   1.00
H878   H     0.42696   0.71403   0.95611   0.00000  Uiso   1.00
H879   H     0.34209   0.74980   0.80576   0.00000  Uiso   1.00
H880   H     0.44081   0.62543   0.87915   0.00000  Uiso   1.00
H881   H     0.50716   0.61981   0.86806   0.00000  Uiso   1.00
H882   H     0.46601   0.57031   0.87231   0.00000  Uiso   1.00
H883   H     0.49106   0.87141   0.60102   0.00000  Uiso   1.00
H884   H     0.54675   0.87512   0.64716   0.00000  Uiso   1.00
N885   N     0.50000   0.74999   0.62624   0.00000  Uiso   1.00
N886   N     0.50000   0.75001   0.87377   0.00000  Uiso   1.00
O887   O     0.50000   0.68454   0.78974   0.00000  Uiso   1.00
O888   O     0.47342   0.89104   0.66617   0.00000  Uiso   1.00
O889   O     0.58454   0.53159   0.69840   0.00000  Uiso   1.00
O890   O     0.56170   0.97089   0.83798   0.00000  Uiso   1.00
O891   O     0.41165   0.78146   0.51646   0.00000  Uiso   1.00
O892   O     0.58313   0.79059   0.98200   0.00000  Uiso   1.00
O893   O     0.50000   0.81547   0.71026   0.00000  Uiso   1.00
O894   O     0.50000   0.68453   0.71026   0.00000  Uiso   1.00
O895   O     0.50000   0.81547   0.78974   0.00000  Uiso   1.00
O896   O     0.42392   0.75000   0.78045   0.00000  Uiso   1.00
O897   O     0.57608   0.75000   0.71956   0.00000  Uiso   1.00
O898   O     0.42392   0.75000   0.70097   0.00000  Uiso   1.00
O899   O     0.57608   0.75001   0.79904   0.00000  Uiso   1.00
O900   O     0.44761   0.60886   0.81006   0.00000  Uiso   1.00
Zn901  Zn    0.50000   0.75001   0.80307   0.00000  Uiso   1.00
Zn902  Zn    0.50000   0.75000   0.69693   0.00000  Uiso   1.00
C903   C     0.83367   0.66373   0.75025   0.00000  Uiso   1.00
C904   C     0.79246   0.73032   0.94217   0.00000  Uiso   1.00
C905   C     0.83295   0.75056   0.52656   0.00000  Uiso   1.00
C906   C     0.83348   0.75056   0.97337   0.00000  Uiso   1.00
C907   C     0.73364   0.74998   0.73750   0.00000  Uiso   1.00
C908   C     0.93303   0.74998   0.76250   0.00000  Uiso   1.00
C909   C     0.67861   0.75000   0.73075   0.00000  Uiso   1.00
C910   C     0.98806   0.74991   0.76926   0.00000  Uiso   1.00
C911   C     0.82502   0.54361   0.78538   0.00000  Uiso   1.00
C912   C     0.83899   0.95634   0.71073   0.00000  Uiso   1.00
C913   C     0.81688   0.58975   0.78435   0.00000  Uiso   1.00
C914   C     0.83429   0.83643   0.74992   0.00000  Uiso   1.00
C915   C     0.83118   0.91020   0.70823   0.00000  Uiso   1.00
C916   C     0.84061   0.61583   0.75205   0.00000  Uiso   1.00
C917   C     0.84235   0.88453   0.75052   0.00000  Uiso   1.00
C918   C     0.87484   0.59667   0.72387   0.00000  Uiso   1.00
C919   C     0.86490   0.90453   0.79354   0.00000  Uiso   1.00
C920   C     0.88529   0.55097   0.72710   0.00000  Uiso   1.00
C921   C     0.87532   0.95034   0.79524   0.00000  Uiso   1.00
C922   C     0.85880   0.52446   0.75686   0.00000  Uiso   1.00
C923   C     0.86015   0.97617   0.75398   0.00000  Uiso   1.00
C924   C     0.80015   0.60558   0.85938   0.00000  Uiso   1.00
C925   C     0.78939   0.76678   0.54627   0.00000  Uiso   1.00
C926   C     0.84195   0.89123   0.63250   0.00000  Uiso   1.00
C927   C     0.97039   0.53817   0.71991   0.00000  Uiso   1.00
C928   C     0.94802   0.95826   0.85136   0.00000  Uiso   1.00
C929   C     0.74128   0.82849   0.52010   0.00000  Uiso   1.00
C930   C     0.90918   0.83750   0.98094   0.00000  Uiso   1.00
C931   C     0.87455   0.77104   0.95306   0.00000  Uiso   1.00
C932   C     0.79049   0.76565   0.59643   0.00000  Uiso   1.00
C933   C     0.87371   0.76986   0.90302   0.00000  Uiso   1.00
C934   C     0.87590   0.73460   0.60788   0.00000  Uiso   1.00
C935   C     0.79314   0.73038   0.89258   0.00000  Uiso   1.00
C936   C     0.87652   0.73470   0.55830   0.00000  Uiso   1.00
H937   H     0.80331   0.52243   0.80680   0.00000  Uiso   1.00
H938   H     0.84855   0.92587   0.61980   0.00000  Uiso   1.00
H939   H     0.89403   0.61723   0.69988   0.00000  Uiso   1.00
H940   H     0.87426   0.88472   0.82595   0.00000  Uiso   1.00
H941   H     0.97784   0.52329   0.75651   0.00000  Uiso   1.00
H942   H     0.98102   0.57443   0.72102   0.00000  Uiso   1.00
H943   H     0.99658   0.52093   0.69811   0.00000  Uiso   1.00
H944   H     0.97156   0.96459   0.82205   0.00000  Uiso   1.00
H945   H     0.95135   0.92249   0.86289   0.00000  Uiso   1.00
H946   H     0.96524   0.97893   0.88230   0.00000  Uiso   1.00
H947   H     0.77778   0.84551   0.51272   0.00000  Uiso   1.00
H948   H     0.82609   0.97700   0.67949   0.00000  Uiso   1.00
H949   H     0.73200   0.83843   0.55569   0.00000  Uiso   1.00
H950   H     0.70861   0.84041   0.99280   0.00000  Uiso   1.00
H951   H     0.87162   0.84687   0.99327   0.00000  Uiso   1.00
H952   H     0.91072   0.85158   0.94465   0.00000  Uiso   1.00
H953   H     0.94158   0.85302   0.50584   0.00000  Uiso   1.00
H954   H     0.75684   0.77731   0.61152   0.00000  Uiso   1.00
H955   H     0.90546   0.78507   0.88754   0.00000  Uiso   1.00
H956   H     0.90956   0.72190   0.63169   0.00000  Uiso   1.00
H957   H     0.76144   0.71450   0.86909   0.00000  Uiso   1.00
H958   H     0.91069   0.72185   0.54477   0.00000  Uiso   1.00
H959   H     0.99125   0.75013   0.69425   0.00000  Uiso   1.00
H960   H     0.76029   0.71403   0.95611   0.00000  Uiso   1.00
H961   H     0.67543   0.74980   0.80576   0.00000  Uiso   1.00
H962   H     0.77414   0.62543   0.87915   0.00000  Uiso   1.00
H963   H     0.84050   0.61981   0.86806   0.00000  Uiso   1.00
H964   H     0.79934   0.57031   0.87231   0.00000  Uiso   1.00
H965   H     0.82439   0.87141   0.60102   0.00000  Uiso   1.00
H966   H     0.88009   0.87512   0.64716   0.00000  Uiso   1.00
N967   N     0.83333   0.74999   0.62624   0.00000  Uiso   1.00
N968   N     0.83333   0.75001   0.87377   0.00000  Uiso   1.00
O969   O     0.83334   0.68454   0.78974   0.00000  Uiso   1.00
O970   O     0.80676   0.89104   0.66617   0.00000  Uiso   1.00
O971   O     0.91788   0.53159   0.69840   0.00000  Uiso   1.00
O972   O     0.89503   0.97089   0.83798   0.00000  Uiso   1.00
O973   O     0.74499   0.78146   0.51646   0.00000  Uiso   1.00
O974   O     0.91646   0.79059   0.98200   0.00000  Uiso   1.00
O975   O     0.83333   0.81547   0.71026   0.00000  Uiso   1.00
O976   O     0.83334   0.68453   0.71026   0.00000  Uiso   1.00
O977   O     0.83333   0.81547   0.78974   0.00000  Uiso   1.00
O978   O     0.75725   0.75000   0.78045   0.00000  Uiso   1.00
O979   O     0.90942   0.75000   0.71956   0.00000  Uiso   1.00
O980   O     0.75725   0.75000   0.70097   0.00000  Uiso   1.00
O981   O     0.90942   0.75001   0.79904   0.00000  Uiso   1.00
O982   O     0.78095   0.60886   0.81006   0.00000  Uiso   1.00
Zn983  Zn    0.83333   0.75001   0.80307   0.00000  Uiso   1.00
Zn984  Zn    0.83333   0.75000   0.69693   0.00000  Uiso   1.00
loop_
_geom_bond_atom_site_label_1
_geom_bond_atom_site_label_2
_geom_bond_distance
_geom_bond_site_symmetry_2
_ccdc_geom_bond_type
C1     O74     1.286   .     A
C1     O67     1.282   .     A
C1     C14     1.438   .     S
C2     C4      1.407   .     A
C2     C33     1.406   .     A
C2     H58     1.083   .     S
C3     C23     1.413   .     A
C3     C34     1.407   .     A
C3     C496    1.507   1_554 S
C4     C29     1.414   .     A
C4     C495    1.507   .     S
C5     C7      1.401   .     S
C5     O76     1.274   .     A
C5     O78     1.277   .     A
C6     O79     1.277   .     A
C6     O77     1.274   .     A
C6     C8      1.401   .     S
C7     C172    1.330   1_455 S
C7     H221    1.088   1_455 S
C8     C89     1.330   .     S
C8     H141    1.088   .     S
C9     C20     1.398   .     A
C9     C11     1.390   .     A
C9     H35     1.084   .     S
C10    C21     1.396   .     A
C10    H46     1.084   .     S
C10    C13     1.389   .     A
C11    C14     1.404   .     A
C11    O80     1.386   .     S
C12    O73     1.285   .     A
C12    C15     1.447   .     S
C12    O75     1.288   .     A
C13    C15     1.408   .     A
C13    O68     1.385   .     S
C14    C16     1.400   .     A
C15    C17     1.403   .     A
C16    H37     1.084   .     S
C16    C18     1.388   .     A
C17    C19     1.390   .     A
C17    H38     1.083   .     S
C18    O69     1.382   .     S
C18    C20     1.401   .     A
C19    C21     1.400   .     A
C19    O70     1.385   .     S
C20    C267    1.442   1_545 S
C21    C266    1.442   .     S
C22    H60     1.109   .     S
C22    H62     1.111   .     S
C22    O80     1.411   .     S
C22    H61     1.114   .     S
C23    C30     1.416   .     A
C23    O71     1.383   .     S
C24    H36     1.112   .     S
C24    H64     1.114   .     S
C24    H63     1.109   .     S
C24    O68     1.411   .     S
C25    H40     1.113   .     S
C25    H41     1.109   .     S
C25    O69     1.410   .     S
C25    H39     1.114   .     S
C26    H44     1.109   .     S
C26    H43     1.112   .     S
C26    O70     1.410   .     S
C26    H42     1.114   .     S
C27    H45     1.114   .     S
C27    O71     1.410   .     S
C27    H47     1.112   .     S
C27    H540    1.109   1_554 S
C28    H50     1.113   .     S
C28    O72     1.409   .     S
C28    H49     1.113   .     S
C28    H543    1.109   .     S
C29    O72     1.382   .     S
C29    C31     1.414   .     A
C30    H52     1.081   .     S
C30    N65     1.364   .     A
C31    N66     1.363   .     A
C31    H53     1.082   .     S
C32    H54     1.081   .     S
C32    C34     1.406   .     A
C32    N65     1.363   .     A
C33    H55     1.081   .     S
C33    N66     1.363   .     A
C34    H56     1.083   .     S
H48    C519    1.109   .     S
H51    C520    1.109   1_554 S
H57    C89     1.088   .     S
H59    C172    1.088   1_455 S
N65    Zn82    2.001   .     S
N66    Zn81    2.001   .     S
O67    Zn81    1.988   .     S
O73    Zn82    1.988   .     S
O74    Zn82    1.983   .     S
O75    Zn81    1.983   .     S
O76    Zn81    1.966   .     S
O77    Zn82    1.966   .     S
O78    Zn82    1.980   .     S
O79    Zn81    1.980   .     S
C83    O156    1.286   .     A
C83    O149    1.282   .     A
C83    C96     1.438   .     S
C84    C86     1.407   .     A
C84    C115    1.406   .     A
C84    H140    1.083   .     S
C85    C105    1.413   .     A
C85    C116    1.407   .     A
C85    C578    1.507   1_554 S
C86    C111    1.414   .     A
C86    C577    1.507   .     S
C87    C89     1.401   .     S
C87    O158    1.274   .     A
C87    O160    1.277   .     A
C88    O161    1.277   .     A
C88    O159    1.274   .     A
C88    C90     1.401   .     S
C90    C171    1.330   .     S
C90    H223    1.088   .     S
C91    C102    1.398   .     A
C91    C93     1.390   .     A
C91    H117    1.084   .     S
C92    C103    1.396   .     A
C92    H128    1.084   .     S
C92    C95     1.389   .     A
C93    C96     1.404   .     A
C93    O162    1.386   .     S
C94    O155    1.285   .     A
C94    C97     1.447   .     S
C94    O157    1.288   .     A
C95    C97     1.408   .     A
C95    O150    1.385   .     S
C96    C98     1.400   .     A
C97    C99     1.403   .     A
C98    H119    1.084   .     S
C98    C100    1.388   .     A
C99    C101    1.390   .     A
C99    H120    1.083   .     S
C100   O151    1.382   .     S
C100   C102    1.401   .     A
C101   C103    1.400   .     A
C101   O152    1.385   .     S
C102   C349    1.442   1_545 S
C103   C348    1.442   .     S
C104   H142    1.109   .     S
C104   H144    1.111   .     S
C104   O162    1.411   .     S
C104   H143    1.114   .     S
C105   C112    1.416   .     A
C105   O153    1.383   .     S
C106   H118    1.112   .     S
C106   H146    1.114   .     S
C106   H145    1.109   .     S
C106   O150    1.411   .     S
C107   H122    1.113   .     S
C107   H123    1.109   .     S
C107   O151    1.410   .     S
C107   H121    1.114   .     S
C108   H126    1.109   .     S
C108   H125    1.112   .     S
C108   O152    1.410   .     S
C108   H124    1.114   .     S
C109   H127    1.114   .     S
C109   O153    1.410   .     S
C109   H129    1.112   .     S
C109   H622    1.109   1_554 S
C110   H132    1.113   .     S
C110   O154    1.409   .     S
C110   H131    1.113   .     S
C110   H625    1.109   .     S
C111   O154    1.382   .     S
C111   C113    1.414   .     A
C112   H134    1.081   .     S
C112   N147    1.364   .     A
C113   N148    1.363   .     A
C113   H135    1.082   .     S
C114   H136    1.081   .     S
C114   C116    1.406   .     A
C114   N147    1.363   .     A
C115   H137    1.081   .     S
C115   N148    1.363   .     A
C116   H138    1.083   .     S
H130   C601    1.109   .     S
H133   C602    1.109   1_554 S
H139   C171    1.088   .     S
N147   Zn164   2.001   .     S
N148   Zn163   2.001   .     S
O149   Zn163   1.988   .     S
O155   Zn164   1.988   .     S
O156   Zn164   1.983   .     S
O157   Zn163   1.983   .     S
O158   Zn163   1.966   .     S
O159   Zn164   1.966   .     S
O160   Zn164   1.980   .     S
O161   Zn163   1.980   .     S
C165   O238    1.286   .     A
C165   O231    1.282   .     A
C165   C178    1.438   .     S
C166   C168    1.407   .     A
C166   C197    1.406   .     A
C166   H222    1.083   .     S
C167   C187    1.413   .     A
C167   C198    1.407   .     A
C167   C660    1.507   1_554 S
C168   C193    1.414   .     A
C168   C659    1.507   .     S
C169   C171    1.401   .     S
C169   O240    1.274   .     A
C169   O242    1.277   .     A
C170   O243    1.277   .     A
C170   O241    1.274   .     A
C170   C172    1.401   .     S
C172   C7      1.330   1_655 S
C172   H59     1.088   1_655 S
C173   C184    1.398   .     A
C173   C175    1.390   .     A
C173   H199    1.084   .     S
C174   C185    1.396   .     A
C174   H210    1.084   .     S
C174   C177    1.389   .     A
C175   C178    1.404   .     A
C175   O244    1.386   .     S
C176   O237    1.285   .     A
C176   C179    1.447   .     S
C176   O239    1.288   .     A
C177   C179    1.408   .     A
C177   O232    1.385   .     S
C178   C180    1.400   .     A
C179   C181    1.403   .     A
C180   H201    1.084   .     S
C180   C182    1.388   .     A
C181   C183    1.390   .     A
C181   H202    1.083   .     S
C182   O233    1.382   .     S
C182   C184    1.401   .     A
C183   C185    1.400   .     A
C183   O234    1.385   .     S
C184   C431    1.442   1_545 S
C185   C430    1.442   .     S
C186   H224    1.109   .     S
C186   H226    1.111   .     S
C186   O244    1.411   .     S
C186   H225    1.114   .     S
C187   C194    1.416   .     A
C187   O235    1.383   .     S
C188   H200    1.112   .     S
C188   H228    1.114   .     S
C188   H227    1.109   .     S
C188   O232    1.411   .     S
C189   H204    1.113   .     S
C189   H205    1.109   .     S
C189   O233    1.410   .     S
C189   H203    1.114   .     S
C190   H208    1.109   .     S
C190   H207    1.112   .     S
C190   O234    1.410   .     S
C190   H206    1.114   .     S
C191   H209    1.114   .     S
C191   O235    1.410   .     S
C191   H211    1.112   .     S
C191   H704    1.109   1_554 S
C192   H214    1.113   .     S
C192   O236    1.409   .     S
C192   H213    1.113   .     S
C192   H707    1.109   .     S
C193   O236    1.382   .     S
C193   C195    1.414   .     A
C194   H216    1.081   .     S
C194   N229    1.364   .     A
C195   N230    1.363   .     A
C195   H217    1.082   .     S
C196   H218    1.081   .     S
C196   C198    1.406   .     A
C196   N229    1.363   .     A
C197   H219    1.081   .     S
C197   N230    1.363   .     A
C198   H220    1.083   .     S
H212   C683    1.109   .     S
H215   C684    1.109   1_554 S
H221   C7      1.088   1_655 S
N229   Zn246   2.001   .     S
N230   Zn245   2.001   .     S
O231   Zn245   1.988   .     S
O237   Zn246   1.988   .     S
O238   Zn246   1.983   .     S
O239   Zn245   1.983   .     S
O240   Zn245   1.966   .     S
O241   Zn246   1.966   .     S
O242   Zn246   1.980   .     S
O243   Zn245   1.980   .     S
C247   O320    1.286   .     A
C247   O313    1.282   .     A
C247   C260    1.438   .     S
C248   C250    1.407   .     A
C248   C279    1.406   .     A
C248   H304    1.083   .     S
C249   C269    1.413   .     A
C249   C280    1.407   .     A
C249   C742    1.507   1_554 S
C250   C275    1.414   .     A
C250   C741    1.507   .     S
C251   C253    1.401   .     S
C251   O322    1.274   .     A
C251   O324    1.277   .     A
C252   O325    1.277   .     A
C252   O323    1.274   .     A
C252   C254    1.401   .     S
C253   C418    1.330   1_455 S
C253   H467    1.088   1_455 S
C254   C335    1.330   .     S
C254   H387    1.088   .     S
C255   C266    1.398   .     A
C255   C257    1.390   .     A
C255   H281    1.084   .     S
C256   C267    1.396   .     A
C256   H292    1.084   .     S
C256   C259    1.389   .     A
C257   C260    1.404   .     A
C257   O326    1.386   .     S
C258   O319    1.285   .     A
C258   C261    1.447   .     S
C258   O321    1.288   .     A
C259   C261    1.408   .     A
C259   O314    1.385   .     S
C260   C262    1.400   .     A
C261   C263    1.403   .     A
C262   H283    1.084   .     S
C262   C264    1.388   .     A
C263   C265    1.390   .     A
C263   H284    1.083   .     S
C264   O315    1.382   .     S
C264   C266    1.401   .     A
C265   C267    1.400   .     A
C265   O316    1.385   .     S
C267   C20     1.442   1_565 S
C268   H306    1.109   .     S
C268   H308    1.111   .     S
C268   O326    1.411   .     S
C268   H307    1.114   .     S
C269   C276    1.416   .     A
C269   O317    1.383   .     S
C270   H282    1.112   .     S
C270   H310    1.114   .     S
C270   H309    1.109   .     S
C270   O314    1.411   .     S
C271   H286    1.113   .     S
C271   H287    1.109   .     S
C271   O315    1.410   .     S
C271   H285    1.114   .     S
C272   H290    1.109   .     S
C272   H289    1.112   .     S
C272   O316    1.410   .     S
C272   H288    1.114   .     S
C273   H291    1.114   .     S
C273   O317    1.410   .     S
C273   H293    1.112   .     S
C273   H786    1.109   1_554 S
C274   H296    1.113   .     S
C274   O318    1.409   .     S
C274   H295    1.113   .     S
C274   H789    1.109   .     S
C275   O318    1.382   .     S
C275   C277    1.414   .     A
C276   H298    1.081   .     S
C276   N311    1.364   .     A
C277   N312    1.363   .     A
C277   H299    1.082   .     S
C278   H300    1.081   .     S
C278   C280    1.406   .     A
C278   N311    1.363   .     A
C279   H301    1.081   .     S
C279   N312    1.363   .     A
C280   H302    1.083   .     S
H294   C765    1.109   .     S
H297   C766    1.109   1_554 S
H303   C335    1.088   .     S
H305   C418    1.088   1_455 S
N311   Zn328   2.001   .     S
N312   Zn327   2.001   .     S
O313   Zn327   1.988   .     S
O319   Zn328   1.988   .     S
O320   Zn328   1.983   .     S
O321   Zn327   1.983   .     S
O322   Zn327   1.966   .     S
O323   Zn328   1.966   .     S
O324   Zn328   1.980   .     S
O325   Zn327   1.980   .     S
C329   O402    1.286   .     A
C329   O395    1.282   .     A
C329   C342    1.438   .     S
C330   C332    1.407   .     A
C330   C361    1.406   .     A
C330   H386    1.083   .     S
C331   C351    1.413   .     A
C331   C362    1.407   .     A
C331   C824    1.507   1_554 S
C332   C357    1.414   .     A
C332   C823    1.507   .     S
C333   C335    1.401   .     S
C333   O404    1.274   .     A
C333   O406    1.277   .     A
C334   O407    1.277   .     A
C334   O405    1.274   .     A
C334   C336    1.401   .     S
C336   C417    1.330   .     S
C336   H469    1.088   .     S
C337   C348    1.398   .     A
C337   C339    1.390   .     A
C337   H363    1.084   .     S
C338   C349    1.396   .     A
C338   H374    1.084   .     S
C338   C341    1.389   .     A
C339   C342    1.404   .     A
C339   O408    1.386   .     S
C340   O401    1.285   .     A
C340   C343    1.447   .     S
C340   O403    1.288   .     A
C341   C343    1.408   .     A
C341   O396    1.385   .     S
C342   C344    1.400   .     A
C343   C345    1.403   .     A
C344   H365    1.084   .     S
C344   C346    1.388   .     A
C345   C347    1.390   .     A
C345   H366    1.083   .     S
C346   O397    1.382   .     S
C346   C348    1.401   .     A
C347   C349    1.400   .     A
C347   O398    1.385   .     S
C349   C102    1.442   1_565 S
C350   H388    1.109   .     S
C350   H390    1.111   .     S
C350   O408    1.411   .     S
C350   H389    1.114   .     S
C351   C358    1.416   .     A
C351   O399    1.383   .     S
C352   H364    1.112   .     S
C352   H392    1.114   .     S
C352   H391    1.109   .     S
C352   O396    1.411   .     S
C353   H368    1.113   .     S
C353   H369    1.109   .     S
C353   O397    1.410   .     S
C353   H367    1.114   .     S
C354   H372    1.109   .     S
C354   H371    1.112   .     S
C354   O398    1.410   .     S
C354   H370    1.114   .     S
C355   H373    1.114   .     S
C355   O399    1.410   .     S
C355   H375    1.112   .     S
C355   H868    1.109   1_554 S
C356   H378    1.113   .     S
C356   O400    1.409   .     S
C356   H377    1.113   .     S
C356   H871    1.109   .     S
C357   O400    1.382   .     S
C357   C359    1.414   .     A
C358   H380    1.081   .     S
C358   N393    1.364   .     A
C359   N394    1.363   .     A
C359   H381    1.082   .     S
C360   H382    1.081   .     S
C360   C362    1.406   .     A
C360   N393    1.363   .     A
C361   H383    1.081   .     S
C361   N394    1.363   .     A
C362   H384    1.083   .     S
H376   C847    1.109   .     S
H379   C848    1.109   1_554 S
H385   C417    1.088   .     S
N393   Zn410   2.001   .     S
N394   Zn409   2.001   .     S
O395   Zn409   1.988   .     S
O401   Zn410   1.988   .     S
O402   Zn410   1.983   .     S
O403   Zn409   1.983   .     S
O404   Zn409   1.966   .     S
O405   Zn410   1.966   .     S
O406   Zn410   1.980   .     S
O407   Zn409   1.980   .     S
C411   O484    1.286   .     A
C411   O477    1.282   .     A
C411   C424    1.438   .     S
C412   C414    1.407   .     A
C412   C443    1.406   .     A
C412   H468    1.083   .     S
C413   C433    1.413   .     A
C413   C444    1.407   .     A
C413   C906    1.507   1_554 S
C414   C439    1.414   .     A
C414   C905    1.507   .     S
C415   C417    1.401   .     S
C415   O486    1.274   .     A
C415   O488    1.277   .     A
C416   O489    1.277   .     A
C416   O487    1.274   .     A
C416   C418    1.401   .     S
C418   C253    1.330   1_655 S
C418   H305    1.088   1_655 S
C419   C430    1.398   .     A
C419   C421    1.390   .     A
C419   H445    1.084   .     S
C420   C431    1.396   .     A
C420   H456    1.084   .     S
C420   C423    1.389   .     A
C421   C424    1.404   .     A
C421   O490    1.386   .     S
C422   O483    1.285   .     A
C422   C425    1.447   .     S
C422   O485    1.288   .     A
C423   C425    1.408   .     A
C423   O478    1.385   .     S
C424   C426    1.400   .     A
C425   C427    1.403   .     A
C426   H447    1.084   .     S
C426   C428    1.388   .     A
C427   C429    1.390   .     A
C427   H448    1.083   .     S
C428   O479    1.382   .     S
C428   C430    1.401   .     A
C429   C431    1.400   .     A
C429   O480    1.385   .     S
C431   C184    1.442   1_565 S
C432   H470    1.109   .     S
C432   H472    1.111   .     S
C432   O490    1.411   .     S
C432   H471    1.114   .     S
C433   C440    1.416   .     A
C433   O481    1.383   .     S
C434   H446    1.112   .     S
C434   H474    1.114   .     S
C434   H473    1.109   .     S
C434   O478    1.411   .     S
C435   H450    1.113   .     S
C435   H451    1.109   .     S
C435   O479    1.410   .     S
C435   H449    1.114   .     S
C436   H454    1.109   .     S
C436   H453    1.112   .     S
C436   O480    1.410   .     S
C436   H452    1.114   .     S
C437   H455    1.114   .     S
C437   O481    1.410   .     S
C437   H457    1.112   .     S
C437   H950    1.109   1_554 S
C438   H460    1.113   .     S
C438   O482    1.409   .     S
C438   H459    1.113   .     S
C438   H953    1.109   .     S
C439   O482    1.382   .     S
C439   C441    1.414   .     A
C440   H462    1.081   .     S
C440   N475    1.364   .     A
C441   N476    1.363   .     A
C441   H463    1.082   .     S
C442   H464    1.081   .     S
C442   C444    1.406   .     A
C442   N475    1.363   .     A
C443   H465    1.081   .     S
C443   N476    1.363   .     A
C444   H466    1.083   .     S
H458   C929    1.109   .     S
H461   C930    1.109   1_554 S
H467   C253    1.088   1_655 S
N475   Zn492   2.001   .     S
N476   Zn491   2.001   .     S
O477   Zn491   1.988   .     S
O483   Zn492   1.988   .     S
O484   Zn492   1.983   .     S
O485   Zn491   1.983   .     S
O486   Zn491   1.966   .     S
O487   Zn492   1.966   .     S
O488   Zn492   1.980   .     S
O489   Zn491   1.980   .     S
C493   O566    1.286   .     A
C493   O559    1.282   .     A
C493   C506    1.438   .     S
C494   C496    1.407   .     A
C494   C525    1.406   .     A
C494   H550    1.083   .     S
C495   C515    1.413   .     A
C495   C526    1.407   .     A
C496   C521    1.414   .     A
C496   C3      1.507   1_556 S
C497   C499    1.401   .     S
C497   O568    1.274   .     A
C497   O570    1.277   .     A
C498   O571    1.277   .     A
C498   O569    1.274   .     A
C498   C500    1.401   .     S
C499   C664    1.330   1_455 S
C499   H713    1.088   1_455 S
C500   C581    1.330   .     S
C500   H633    1.088   .     S
C501   C512    1.398   .     A
C501   C503    1.390   .     A
C501   H527    1.084   .     S
C502   C513    1.396   .     A
C502   H538    1.084   .     S
C502   C505    1.389   .     A
C503   C506    1.404   .     A
C503   O572    1.386   .     S
C504   O565    1.285   .     A
C504   C507    1.447   .     S
C504   O567    1.288   .     A
C505   C507    1.408   .     A
C505   O560    1.385   .     S
C506   C508    1.400   .     A
C507   C509    1.403   .     A
C508   H529    1.084   .     S
C508   C510    1.388   .     A
C509   C511    1.390   .     A
C509   H530    1.083   .     S
C510   O561    1.382   .     S
C510   C512    1.401   .     A
C511   C513    1.400   .     A
C511   O562    1.385   .     S
C512   C759    1.442   1_545 S
C513   C758    1.442   .     S
C514   H552    1.109   .     S
C514   H554    1.111   .     S
C514   O572    1.411   .     S
C514   H553    1.114   .     S
C515   C522    1.416   .     A
C515   O563    1.383   .     S
C516   H528    1.112   .     S
C516   H556    1.114   .     S
C516   H555    1.109   .     S
C516   O560    1.411   .     S
C517   H532    1.113   .     S
C517   H533    1.109   .     S
C517   O561    1.410   .     S
C517   H531    1.114   .     S
C518   H536    1.109   .     S
C518   H535    1.112   .     S
C518   O562    1.410   .     S
C518   H534    1.114   .     S
C519   H537    1.114   .     S
C519   O563    1.410   .     S
C519   H539    1.112   .     S
C520   H542    1.113   .     S
C520   O564    1.409   .     S
C520   H541    1.113   .     S
C520   H51     1.109   1_556 S
C521   O564    1.382   .     S
C521   C523    1.414   .     A
C522   H544    1.081   .     S
C522   N557    1.364   .     A
C523   N558    1.363   .     A
C523   H545    1.082   .     S
C524   H546    1.081   .     S
C524   C526    1.406   .     A
C524   N557    1.363   .     A
C525   H547    1.081   .     S
C525   N558    1.363   .     A
C526   H548    1.083   .     S
H540   C27     1.109   1_556 S
H549   C581    1.088   .     S
H551   C664    1.088   1_455 S
N557   Zn574   2.001   .     S
N558   Zn573   2.001   .     S
O559   Zn573   1.988   .     S
O565   Zn574   1.988   .     S
O566   Zn574   1.983   .     S
O567   Zn573   1.983   .     S
O568   Zn573   1.966   .     S
O569   Zn574   1.966   .     S
O570   Zn574   1.980   .     S
O571   Zn573   1.980   .     S
C575   O648    1.286   .     A
C575   O641    1.282   .     A
C575   C588    1.438   .     S
C576   C578    1.407   .     A
C576   C607    1.406   .     A
C576   H632    1.083   .     S
C577   C597    1.413   .     A
C577   C608    1.407   .     A
C578   C603    1.414   .     A
C578   C85     1.507   1_556 S
C579   C581    1.401   .     S
C579   O650    1.274   .     A
C579   O652    1.277   .     A
C580   O653    1.277   .     A
C580   O651    1.274   .     A
C580   C582    1.401   .     S
C582   C663    1.330   .     S
C582   H715    1.088   .     S
C583   C594    1.398   .     A
C583   C585    1.390   .     A
C583   H609    1.084   .     S
C584   C595    1.396   .     A
C584   H620    1.084   .     S
C584   C587    1.389   .     A
C585   C588    1.404   .     A
C585   O654    1.386   .     S
C586   O647    1.285   .     A
C586   C589    1.447   .     S
C586   O649    1.288   .     A
C587   C589    1.408   .     A
C587   O642    1.385   .     S
C588   C590    1.400   .     A
C589   C591    1.403   .     A
C590   H611    1.084   .     S
C590   C592    1.388   .     A
C591   C593    1.390   .     A
C591   H612    1.083   .     S
C592   O643    1.382   .     S
C592   C594    1.401   .     A
C593   C595    1.400   .     A
C593   O644    1.385   .     S
C594   C841    1.442   1_545 S
C595   C840    1.442   .     S
C596   H634    1.109   .     S
C596   H636    1.111   .     S
C596   O654    1.411   .     S
C596   H635    1.114   .     S
C597   C604    1.416   .     A
C597   O645    1.383   .     S
C598   H610    1.112   .     S
C598   H638    1.114   .     S
C598   H637    1.109   .     S
C598   O642    1.411   .     S
C599   H614    1.113   .     S
C599   H615    1.109   .     S
C599   O643    1.410   .     S
C599   H613    1.114   .     S
C600   H618    1.109   .     S
C600   H617    1.112   .     S
C600   O644    1.410   .     S
C600   H616    1.114   .     S
C601   H619    1.114   .     S
C601   O645    1.410   .     S
C601   H621    1.112   .     S
C602   H624    1.113   .     S
C602   O646    1.409   .     S
C602   H623    1.113   .     S
C602   H133    1.109   1_556 S
C603   O646    1.382   .     S
C603   C605    1.414   .     A
C604   H626    1.081   .     S
C604   N639    1.364   .     A
C605   N640    1.363   .     A
C605   H627    1.082   .     S
C606   H628    1.081   .     S
C606   C608    1.406   .     A
C606   N639    1.363   .     A
C607   H629    1.081   .     S
C607   N640    1.363   .     A
C608   H630    1.083   .     S
H622   C109    1.109   1_556 S
H631   C663    1.088   .     S
N639   Zn656   2.001   .     S
N640   Zn655   2.001   .     S
O641   Zn655   1.988   .     S
O647   Zn656   1.988   .     S
O648   Zn656   1.983   .     S
O649   Zn655   1.983   .     S
O650   Zn655   1.966   .     S
O651   Zn656   1.966   .     S
O652   Zn656   1.980   .     S
O653   Zn655   1.980   .     S
C657   O730    1.286   .     A
C657   O723    1.282   .     A
C657   C670    1.438   .     S
C658   C660    1.407   .     A
C658   C689    1.406   .     A
C658   H714    1.083   .     S
C659   C679    1.413   .     A
C659   C690    1.407   .     A
C660   C685    1.414   .     A
C660   C167    1.507   1_556 S
C661   C663    1.401   .     S
C661   O732    1.274   .     A
C661   O734    1.277   .     A
C662   O735    1.277   .     A
C662   O733    1.274   .     A
C662   C664    1.401   .     S
C664   C499    1.330   1_655 S
C664   H551    1.088   1_655 S
C665   C676    1.398   .     A
C665   C667    1.390   .     A
C665   H691    1.084   .     S
C666   C677    1.396   .     A
C666   H702    1.084   .     S
C666   C669    1.389   .     A
C667   C670    1.404   .     A
C667   O736    1.386   .     S
C668   O729    1.285   .     A
C668   C671    1.447   .     S
C668   O731    1.288   .     A
C669   C671    1.408   .     A
C669   O724    1.385   .     S
C670   C672    1.400   .     A
C671   C673    1.403   .     A
C672   H693    1.084   .     S
C672   C674    1.388   .     A
C673   C675    1.390   .     A
C673   H694    1.083   .     S
C674   O725    1.382   .     S
C674   C676    1.401   .     A
C675   C677    1.400   .     A
C675   O726    1.385   .     S
C676   C923    1.442   1_545 S
C677   C922    1.442   .     S
C678   H716    1.109   .     S
C678   H718    1.111   .     S
C678   O736    1.411   .     S
C678   H717    1.114   .     S
C679   C686    1.416   .     A
C679   O727    1.383   .     S
C680   H692    1.112   .     S
C680   H720    1.114   .     S
C680   H719    1.109   .     S
C680   O724    1.411   .     S
C681   H696    1.113   .     S
C681   H697    1.109   .     S
C681   O725    1.410   .     S
C681   H695    1.114   .     S
C682   H700    1.109   .     S
C682   H699    1.112   .     S
C682   O726    1.410   .     S
C682   H698    1.114   .     S
C683   H701    1.114   .     S
C683   O727    1.410   .     S
C683   H703    1.112   .     S
C684   H706    1.113   .     S
C684   O728    1.409   .     S
C684   H705    1.113   .     S
C684   H215    1.109   1_556 S
C685   O728    1.382   .     S
C685   C687    1.414   .     A
C686   H708    1.081   .     S
C686   N721    1.364   .     A
C687   N722    1.363   .     A
C687   H709    1.082   .     S
C688   H710    1.081   .     S
C688   C690    1.406   .     A
C688   N721    1.363   .     A
C689   H711    1.081   .     S
C689   N722    1.363   .     A
C690   H712    1.083   .     S
H704   C191    1.109   1_556 S
H713   C499    1.088   1_655 S
N721   Zn738   2.001   .     S
N722   Zn737   2.001   .     S
O723   Zn737   1.988   .     S
O729   Zn738   1.988   .     S
O730   Zn738   1.983   .     S
O731   Zn737   1.983   .     S
O732   Zn737   1.966   .     S
O733   Zn738   1.966   .     S
O734   Zn738   1.980   .     S
O735   Zn737   1.980   .     S
C739   O812    1.286   .     A
C739   O805    1.282   .     A
C739   C752    1.438   .     S
C740   C742    1.407   .     A
C740   C771    1.406   .     A
C740   H796    1.083   .     S
C741   C761    1.413   .     A
C741   C772    1.407   .     A
C742   C767    1.414   .     A
C742   C249    1.507   1_556 S
C743   C745    1.401   .     S
C743   O814    1.274   .     A
C743   O816    1.277   .     A
C744   O817    1.277   .     A
C744   O815    1.274   .     A
C744   C746    1.401   .     S
C745   C910    1.330   1_455 S
C745   H959    1.088   1_455 S
C746   C827    1.330   .     S
C746   H879    1.088   .     S
C747   C758    1.398   .     A
C747   C749    1.390   .     A
C747   H773    1.084   .     S
C748   C759    1.396   .     A
C748   H784    1.084   .     S
C748   C751    1.389   .     A
C749   C752    1.404   .     A
C749   O818    1.386   .     S
C750   O811    1.285   .     A
C750   C753    1.447   .     S
C750   O813    1.288   .     A
C751   C753    1.408   .     A
C751   O806    1.385   .     S
C752   C754    1.400   .     A
C753   C755    1.403   .     A
C754   H775    1.084   .     S
C754   C756    1.388   .     A
C755   C757    1.390   .     A
C755   H776    1.083   .     S
C756   O807    1.382   .     S
C756   C758    1.401   .     A
C757   C759    1.400   .     A
C757   O808    1.385   .     S
C759   C512    1.442   1_565 S
C760   H798    1.109   .     S
C760   H800    1.111   .     S
C760   O818    1.411   .     S
C760   H799    1.114   .     S
C761   C768    1.416   .     A
C761   O809    1.383   .     S
C762   H774    1.112   .     S
C762   H802    1.114   .     S
C762   H801    1.109   .     S
C762   O806    1.411   .     S
C763   H778    1.113   .     S
C763   H779    1.109   .     S
C763   O807    1.410   .     S
C763   H777    1.114   .     S
C764   H782    1.109   .     S
C764   H781    1.112   .     S
C764   O808    1.410   .     S
C764   H780    1.114   .     S
C765   H783    1.114   .     S
C765   O809    1.410   .     S
C765   H785    1.112   .     S
C766   H788    1.113   .     S
C766   O810    1.409   .     S
C766   H787    1.113   .     S
C766   H297    1.109   1_556 S
C767   O810    1.382   .     S
C767   C769    1.414   .     A
C768   H790    1.081   .     S
C768   N803    1.364   .     A
C769   N804    1.363   .     A
C769   H791    1.082   .     S
C770   H792    1.081   .     S
C770   C772    1.406   .     A
C770   N803    1.363   .     A
C771   H793    1.081   .     S
C771   N804    1.363   .     A
C772   H794    1.083   .     S
H786   C273    1.109   1_556 S
H795   C827    1.088   .     S
H797   C910    1.088   1_455 S
N803   Zn820   2.001   .     S
N804   Zn819   2.001   .     S
O805   Zn819   1.988   .     S
O811   Zn820   1.988   .     S
O812   Zn820   1.983   .     S
O813   Zn819   1.983   .     S
O814   Zn819   1.966   .     S
O815   Zn820   1.966   .     S
O816   Zn820   1.980   .     S
O817   Zn819   1.980   .     S
C821   O894    1.286   .     A
C821   O887    1.282   .     A
C821   C834    1.438   .     S
C822   C824    1.407   .     A
C822   C853    1.406   .     A
C822   H878    1.083   .     S
C823   C843    1.413   .     A
C823   C854    1.407   .     A
C824   C849    1.414   .     A
C824   C331    1.507   1_556 S
C825   C827    1.401   .     S
C825   O896    1.274   .     A
C825   O898    1.277   .     A
C826   O899    1.277   .     A
C826   O897    1.274   .     A
C826   C828    1.401   .     S
C828   C909    1.330   .     S
C828   H961    1.088   .     S
C829   C840    1.398   .     A
C829   C831    1.390   .     A
C829   H855    1.084   .     S
C830   C841    1.396   .     A
C830   H866    1.084   .     S
C830   C833    1.389   .     A
C831   C834    1.404   .     A
C831   O900    1.386   .     S
C832   O893    1.285   .     A
C832   C835    1.447   .     S
C832   O895    1.288   .     A
C833   C835    1.408   .     A
C833   O888    1.385   .     S
C834   C836    1.400   .     A
C835   C837    1.403   .     A
C836   H857    1.084   .     S
C836   C838    1.388   .     A
C837   C839    1.390   .     A
C837   H858    1.083   .     S
C838   O889    1.382   .     S
C838   C840    1.401   .     A
C839   C841    1.400   .     A
C839   O890    1.385   .     S
C841   C594    1.442   1_565 S
C842   H880    1.109   .     S
C842   H882    1.111   .     S
C842   O900    1.411   .     S
C842   H881    1.114   .     S
C843   C850    1.416   .     A
C843   O891    1.383   .     S
C844   H856    1.112   .     S
C844   H884    1.114   .     S
C844   H883    1.109   .     S
C844   O888    1.411   .     S
C845   H860    1.113   .     S
C845   H861    1.109   .     S
C845   O889    1.410   .     S
C845   H859    1.114   .     S
C846   H864    1.109   .     S
C846   H863    1.112   .     S
C846   O890    1.410   .     S
C846   H862    1.114   .     S
C847   H865    1.114   .     S
C847   O891    1.410   .     S
C847   H867    1.112   .     S
C848   H870    1.113   .     S
C848   O892    1.409   .     S
C848   H869    1.113   .     S
C848   H379    1.109   1_556 S
C849   O892    1.382   .     S
C849   C851    1.414   .     A
C850   H872    1.081   .     S
C850   N885    1.364   .     A
C851   N886    1.363   .     A
C851   H873    1.082   .     S
C852   H874    1.081   .     S
C852   C854    1.406   .     A
C852   N885    1.363   .     A
C853   H875    1.081   .     S
C853   N886    1.363   .     A
C854   H876    1.083   .     S
H868   C355    1.109   1_556 S
H877   C909    1.088   .     S
N885   Zn902   2.001   .     S
N886   Zn901   2.001   .     S
O887   Zn901   1.988   .     S
O893   Zn902   1.988   .     S
O894   Zn902   1.983   .     S
O895   Zn901   1.983   .     S
O896   Zn901   1.966   .     S
O897   Zn902   1.966   .     S
O898   Zn902   1.980   .     S
O899   Zn901   1.980   .     S
C903   O976    1.286   .     A
C903   O969    1.282   .     A
C903   C916    1.438   .     S
C904   C906    1.407   .     A
C904   C935    1.406   .     A
C904   H960    1.083   .     S
C905   C925    1.413   .     A
C905   C936    1.407   .     A
C906   C931    1.414   .     A
C906   C413    1.507   1_556 S
C907   C909    1.401   .     S
C907   O978    1.274   .     A
C907   O980    1.277   .     A
C908   O981    1.277   .     A
C908   O979    1.274   .     A
C908   C910    1.401   .     S
C910   C745    1.330   1_655 S
C910   H797    1.088   1_655 S
C911   C922    1.398   .     A
C911   C913    1.390   .     A
C911   H937    1.084   .     S
C912   C923    1.396   .     A
C912   H948    1.084   .     S
C912   C915    1.389   .     A
C913   C916    1.404   .     A
C913   O982    1.386   .     S
C914   O975    1.285   .     A
C914   C917    1.447   .     S
C914   O977    1.288   .     A
C915   C917    1.408   .     A
C915   O970    1.385   .     S
C916   C918    1.400   .     A
C917   C919    1.403   .     A
C918   H939    1.084   .     S
C918   C920    1.388   .     A
C919   C921    1.390   .     A
C919   H940    1.083   .     S
C920   O971    1.382   .     S
C920   C922    1.401   .     A
C921   C923    1.400   .     A
C921   O972    1.385   .     S
C923   C676    1.442   1_565 S
C924   H962    1.109   .     S
C924   H964    1.111   .     S
C924   O982    1.411   .     S
C924   H963    1.114   .     S
C925   C932    1.416   .     A
C925   O973    1.383   .     S
C926   H938    1.112   .     S
C926   H966    1.114   .     S
C926   H965    1.109   .     S
C926   O970    1.411   .     S
C927   H942    1.113   .     S
C927   H943    1.109   .     S
C927   O971    1.410   .     S
C927   H941    1.114   .     S
C928   H946    1.109   .     S
C928   H945    1.112   .     S
C928   O972    1.410   .     S
C928   H944    1.114   .     S
C929   H947    1.114   .     S
C929   O973    1.410   .     S
C929   H949    1.112   .     S
C930   H952    1.113   .     S
C930   O974    1.409   .     S
C930   H951    1.113   .     S
C930   H461    1.109   1_556 S
C931   O974    1.382   .     S
C931   C933    1.414   .     A
C932   H954    1.081   .     S
C932   N967    1.364   .     A
C933   N968    1.363   .     A
C933   H955    1.082   .     S
C934   H956    1.081   .     S
C934   C936    1.406   .     A
C934   N967    1.363   .     A
C935   H957    1.081   .     S
C935   N968    1.363   .     A
C936   H958    1.083   .     S
H950   C437    1.109   1_556 S
H959   C745    1.088   1_655 S
N967   Zn984   2.001   .     S
N968   Zn983   2.001   .     S
O969   Zn983   1.988   .     S
O975   Zn984   1.988   .     S
O976   Zn984   1.983   .     S
O977   Zn983   1.983   .     S
O978   Zn983   1.966   .     S
O979   Zn984   1.966   .     S
O980   Zn984   1.980   .     S
O981   Zn983   1.980   .     S
