data_str_m3_o1_o10_pcu_sym.104
_audit_creation_date              2020-01-03
_audit_creation_method            'Materials Studio'
_symmetry_space_group_name_H-M    'P1'
_symmetry_Int_Tables_number       1
_symmetry_cell_setting            triclinic
loop_
_symmetry_equiv_pos_as_xyz
  x,y,z
_cell_length_a                    25.7250
_cell_length_b                    31.8015
_cell_length_c                    29.7907
_cell_angle_alpha                 90.7470
_cell_angle_beta                  99.1295
_cell_angle_gamma                 90.9258
loop_
_atom_site_label
_atom_site_type_symbol
_atom_site_fract_x
_atom_site_fract_y
_atom_site_fract_z
_atom_site_U_iso_or_equiv
_atom_site_adp_type
_atom_site_occupancy
C1     C     0.16711   0.08689   0.16648   0.00000  Uiso   1.00
C2     C     0.16623   0.24644   0.16686   0.00000  Uiso   1.00
C3     C     0.06708   0.16658   0.15465   0.00000  Uiso   1.00
C4     C     0.26625   0.16676   0.17869   0.00000  Uiso   1.00
C5     C     0.01187   0.16653   0.14831   0.00000  Uiso   1.00
C6     C     0.32147   0.16680   0.18502   0.00000  Uiso   1.00
C7     C     0.12144   0.02141   0.14737   0.00000  Uiso   1.00
C8     C     0.21189   0.31192   0.18597   0.00000  Uiso   1.00
C9     C     0.11978   0.31128   0.14775   0.00000  Uiso   1.00
C10    C     0.21355   0.02205   0.18558   0.00000  Uiso   1.00
C11    C     0.16555   0.29061   0.16716   0.00000  Uiso   1.00
C12    C     0.16778   0.04272   0.16617   0.00000  Uiso   1.00
C13    C     0.20390   0.18892   0.02987   0.00000  Uiso   1.00
C14    C     0.12943   0.14441   0.30346   0.00000  Uiso   1.00
C15    C     0.20446   0.18893   0.31545   0.00000  Uiso   1.00
C16    C     0.12887   0.14441   0.01788   0.00000  Uiso   1.00
H17    H     0.32427   0.16626   0.11358   0.00000  Uiso   1.00
H18    H     0.00906   0.16707   0.21975   0.00000  Uiso   1.00
N19    N     0.16665   0.16666   0.28573   0.00000  Uiso   1.00
N20    N     0.16668   0.16668   0.04760   0.00000  Uiso   1.00
O21    O     0.16666   0.10558   0.20487   0.00000  Uiso   1.00
O22    O     0.16667   0.22775   0.12846   0.00000  Uiso   1.00
O23    O     0.16666   0.10559   0.12843   0.00000  Uiso   1.00
O24    O     0.16667   0.22774   0.20490   0.00000  Uiso   1.00
O25    O     0.09058   0.16666   0.19595   0.00000  Uiso   1.00
O26    O     0.24275   0.16667   0.13739   0.00000  Uiso   1.00
O27    O     0.09058   0.16667   0.11950   0.00000  Uiso   1.00
O28    O     0.24275   0.16666   0.21383   0.00000  Uiso   1.00
Zn29   Zn    0.16667   0.16666   0.21771   0.00000  Uiso   1.00
Zn30   Zn    0.16667   0.16667   0.11563   0.00000  Uiso   1.00
F31    F     0.07812   0.04328   0.12963   0.00000  Uiso   1.00
F32    F     0.25522   0.29006   0.20371   0.00000  Uiso   1.00
C33    C     0.06975   0.28727   0.12864   0.00000  Uiso   1.00
H34    H     0.05726   0.26721   0.15539   0.00000  Uiso   1.00
H35    H     0.03679   0.30840   0.11629   0.00000  Uiso   1.00
H36    H     0.07661   0.26702   0.09959   0.00000  Uiso   1.00
C37    C     0.26359   0.04606   0.20469   0.00000  Uiso   1.00
H38    H     0.27608   0.06612   0.17793   0.00000  Uiso   1.00
H39    H     0.25674   0.06631   0.23373   0.00000  Uiso   1.00
H40    H     0.29655   0.02494   0.21703   0.00000  Uiso   1.00
F41    F     0.24090   0.21106   0.05866   0.00000  Uiso   1.00
F42    F     0.09244   0.12227   0.27467   0.00000  Uiso   1.00
C43    C     0.24860   0.21240   0.29860   0.00000  Uiso   1.00
H44    H     0.23380   0.23158   0.26894   0.00000  Uiso   1.00
H45    H     0.26943   0.23466   0.32463   0.00000  Uiso   1.00
H46    H     0.27820   0.18982   0.29038   0.00000  Uiso   1.00
C47    C     0.08473   0.12094   0.03473   0.00000  Uiso   1.00
H48    H     0.09953   0.10175   0.06439   0.00000  Uiso   1.00
H49    H     0.05513   0.14352   0.04296   0.00000  Uiso   1.00
H50    H     0.06390   0.09868   0.00870   0.00000  Uiso   1.00
C51    C     0.50044   0.08689   0.16648   0.00000  Uiso   1.00
C52    C     0.49956   0.24644   0.16686   0.00000  Uiso   1.00
C53    C     0.40042   0.16658   0.15465   0.00000  Uiso   1.00
C54    C     0.59958   0.16676   0.17869   0.00000  Uiso   1.00
C55    C     0.34520   0.16653   0.14831   0.00000  Uiso   1.00
C56    C     0.65480   0.16680   0.18502   0.00000  Uiso   1.00
C57    C     0.45478   0.02141   0.14737   0.00000  Uiso   1.00
C58    C     0.54523   0.31192   0.18597   0.00000  Uiso   1.00
C59    C     0.45312   0.31128   0.14775   0.00000  Uiso   1.00
C60    C     0.54689   0.02205   0.18558   0.00000  Uiso   1.00
C61    C     0.49888   0.29061   0.16716   0.00000  Uiso   1.00
C62    C     0.50112   0.04272   0.16617   0.00000  Uiso   1.00
C63    C     0.53723   0.18892   0.02987   0.00000  Uiso   1.00
C64    C     0.46277   0.14441   0.30346   0.00000  Uiso   1.00
C65    C     0.53780   0.18893   0.31545   0.00000  Uiso   1.00
C66    C     0.46220   0.14441   0.01788   0.00000  Uiso   1.00
H67    H     0.65761   0.16626   0.11358   0.00000  Uiso   1.00
H68    H     0.34239   0.16707   0.21975   0.00000  Uiso   1.00
N69    N     0.49999   0.16666   0.28573   0.00000  Uiso   1.00
N70    N     0.50001   0.16668   0.04760   0.00000  Uiso   1.00
O71    O     0.50000   0.10558   0.20487   0.00000  Uiso   1.00
O72    O     0.50000   0.22775   0.12846   0.00000  Uiso   1.00
O73    O     0.50000   0.10559   0.12843   0.00000  Uiso   1.00
O74    O     0.50000   0.22774   0.20490   0.00000  Uiso   1.00
O75    O     0.42392   0.16666   0.19595   0.00000  Uiso   1.00
O76    O     0.57608   0.16667   0.13739   0.00000  Uiso   1.00
O77    O     0.42392   0.16667   0.11950   0.00000  Uiso   1.00
O78    O     0.57608   0.16666   0.21383   0.00000  Uiso   1.00
Zn79   Zn    0.50000   0.16666   0.21771   0.00000  Uiso   1.00
Zn80   Zn    0.50000   0.16667   0.11563   0.00000  Uiso   1.00
F81    F     0.41145   0.04328   0.12963   0.00000  Uiso   1.00
F82    F     0.58855   0.29006   0.20371   0.00000  Uiso   1.00
C83    C     0.40308   0.28727   0.12864   0.00000  Uiso   1.00
H84    H     0.39059   0.26721   0.15539   0.00000  Uiso   1.00
H85    H     0.37012   0.30840   0.11629   0.00000  Uiso   1.00
H86    H     0.40994   0.26702   0.09959   0.00000  Uiso   1.00
C87    C     0.59692   0.04606   0.20469   0.00000  Uiso   1.00
H88    H     0.60941   0.06612   0.17793   0.00000  Uiso   1.00
H89    H     0.59007   0.06631   0.23373   0.00000  Uiso   1.00
H90    H     0.62989   0.02494   0.21703   0.00000  Uiso   1.00
F91    F     0.57423   0.21106   0.05866   0.00000  Uiso   1.00
F92    F     0.42577   0.12227   0.27467   0.00000  Uiso   1.00
C93    C     0.58193   0.21240   0.29860   0.00000  Uiso   1.00
H94    H     0.56714   0.23158   0.26894   0.00000  Uiso   1.00
H95    H     0.60276   0.23466   0.32463   0.00000  Uiso   1.00
H96    H     0.61154   0.18982   0.29038   0.00000  Uiso   1.00
C97    C     0.41807   0.12094   0.03473   0.00000  Uiso   1.00
H98    H     0.43287   0.10175   0.06439   0.00000  Uiso   1.00
H99    H     0.38847   0.14352   0.04296   0.00000  Uiso   1.00
H100   H     0.39724   0.09868   0.00870   0.00000  Uiso   1.00
C101   C     0.83377   0.08689   0.16648   0.00000  Uiso   1.00
C102   C     0.83289   0.24644   0.16686   0.00000  Uiso   1.00
C103   C     0.73375   0.16658   0.15465   0.00000  Uiso   1.00
C104   C     0.93292   0.16676   0.17869   0.00000  Uiso   1.00
C105   C     0.67853   0.16653   0.14831   0.00000  Uiso   1.00
C106   C     0.98813   0.16680   0.18502   0.00000  Uiso   1.00
C107   C     0.78811   0.02141   0.14737   0.00000  Uiso   1.00
C108   C     0.87856   0.31192   0.18597   0.00000  Uiso   1.00
C109   C     0.78645   0.31128   0.14775   0.00000  Uiso   1.00
C110   C     0.88022   0.02205   0.18558   0.00000  Uiso   1.00
C111   C     0.83222   0.29061   0.16716   0.00000  Uiso   1.00
C112   C     0.83445   0.04272   0.16617   0.00000  Uiso   1.00
C113   C     0.87057   0.18892   0.02987   0.00000  Uiso   1.00
C114   C     0.79610   0.14441   0.30346   0.00000  Uiso   1.00
C115   C     0.87113   0.18893   0.31545   0.00000  Uiso   1.00
C116   C     0.79554   0.14441   0.01788   0.00000  Uiso   1.00
H117   H     0.99094   0.16626   0.11358   0.00000  Uiso   1.00
H118   H     0.67573   0.16707   0.21975   0.00000  Uiso   1.00
N119   N     0.83332   0.16666   0.28573   0.00000  Uiso   1.00
N120   N     0.83335   0.16668   0.04760   0.00000  Uiso   1.00
O121   O     0.83333   0.10558   0.20487   0.00000  Uiso   1.00
O122   O     0.83334   0.22775   0.12846   0.00000  Uiso   1.00
O123   O     0.83333   0.10559   0.12843   0.00000  Uiso   1.00
O124   O     0.83334   0.22774   0.20490   0.00000  Uiso   1.00
O125   O     0.75725   0.16666   0.19595   0.00000  Uiso   1.00
O126   O     0.90942   0.16667   0.13739   0.00000  Uiso   1.00
O127   O     0.75725   0.16667   0.11950   0.00000  Uiso   1.00
O128   O     0.90942   0.16666   0.21383   0.00000  Uiso   1.00
Zn129  Zn    0.83333   0.16666   0.21771   0.00000  Uiso   1.00
Zn130  Zn    0.83333   0.16667   0.11563   0.00000  Uiso   1.00
F131   F     0.74479   0.04328   0.12963   0.00000  Uiso   1.00
F132   F     0.92188   0.29006   0.20371   0.00000  Uiso   1.00
C133   C     0.73641   0.28727   0.12864   0.00000  Uiso   1.00
H134   H     0.72393   0.26721   0.15539   0.00000  Uiso   1.00
H135   H     0.70345   0.30840   0.11629   0.00000  Uiso   1.00
H136   H     0.74327   0.26702   0.09959   0.00000  Uiso   1.00
C137   C     0.93026   0.04606   0.20469   0.00000  Uiso   1.00
H138   H     0.94274   0.06612   0.17793   0.00000  Uiso   1.00
H139   H     0.92341   0.06631   0.23373   0.00000  Uiso   1.00
H140   H     0.96322   0.02494   0.21703   0.00000  Uiso   1.00
F141   F     0.90757   0.21106   0.05866   0.00000  Uiso   1.00
F142   F     0.75910   0.12227   0.27467   0.00000  Uiso   1.00
C143   C     0.91527   0.21240   0.29860   0.00000  Uiso   1.00
H144   H     0.90047   0.23158   0.26894   0.00000  Uiso   1.00
H145   H     0.93610   0.23466   0.32463   0.00000  Uiso   1.00
H146   H     0.94487   0.18982   0.29038   0.00000  Uiso   1.00
C147   C     0.75140   0.12094   0.03473   0.00000  Uiso   1.00
H148   H     0.76620   0.10175   0.06439   0.00000  Uiso   1.00
H149   H     0.72180   0.14352   0.04296   0.00000  Uiso   1.00
H150   H     0.73057   0.09868   0.00870   0.00000  Uiso   1.00
C151   C     0.16711   0.42023   0.16648   0.00000  Uiso   1.00
C152   C     0.16623   0.57977   0.16686   0.00000  Uiso   1.00
C153   C     0.06708   0.49991   0.15465   0.00000  Uiso   1.00
C154   C     0.26625   0.50009   0.17869   0.00000  Uiso   1.00
C155   C     0.01187   0.49987   0.14831   0.00000  Uiso   1.00
C156   C     0.32147   0.50013   0.18502   0.00000  Uiso   1.00
C157   C     0.12144   0.35475   0.14737   0.00000  Uiso   1.00
C158   C     0.21189   0.64525   0.18597   0.00000  Uiso   1.00
C159   C     0.11978   0.64461   0.14775   0.00000  Uiso   1.00
C160   C     0.21355   0.35539   0.18558   0.00000  Uiso   1.00
C161   C     0.16555   0.62395   0.16716   0.00000  Uiso   1.00
C162   C     0.16778   0.37606   0.16617   0.00000  Uiso   1.00
C163   C     0.20390   0.52226   0.02987   0.00000  Uiso   1.00
C164   C     0.12943   0.47774   0.30346   0.00000  Uiso   1.00
C165   C     0.20446   0.52226   0.31545   0.00000  Uiso   1.00
C166   C     0.12887   0.47774   0.01788   0.00000  Uiso   1.00
H167   H     0.32427   0.49959   0.11358   0.00000  Uiso   1.00
H168   H     0.00906   0.50041   0.21975   0.00000  Uiso   1.00
N169   N     0.16665   0.49999   0.28573   0.00000  Uiso   1.00
N170   N     0.16668   0.50001   0.04760   0.00000  Uiso   1.00
O171   O     0.16666   0.43892   0.20487   0.00000  Uiso   1.00
O172   O     0.16667   0.56108   0.12846   0.00000  Uiso   1.00
O173   O     0.16666   0.43893   0.12843   0.00000  Uiso   1.00
O174   O     0.16667   0.56107   0.20490   0.00000  Uiso   1.00
O175   O     0.09058   0.50000   0.19595   0.00000  Uiso   1.00
O176   O     0.24275   0.50000   0.13739   0.00000  Uiso   1.00
O177   O     0.09058   0.50000   0.11950   0.00000  Uiso   1.00
O178   O     0.24275   0.50000   0.21383   0.00000  Uiso   1.00
Zn179  Zn    0.16667   0.49999   0.21771   0.00000  Uiso   1.00
Zn180  Zn    0.16667   0.50001   0.11563   0.00000  Uiso   1.00
F181   F     0.07812   0.37661   0.12963   0.00000  Uiso   1.00
F182   F     0.25522   0.62339   0.20371   0.00000  Uiso   1.00
C183   C     0.06975   0.62060   0.12864   0.00000  Uiso   1.00
H184   H     0.05726   0.60054   0.15539   0.00000  Uiso   1.00
H185   H     0.03679   0.64173   0.11629   0.00000  Uiso   1.00
H186   H     0.07661   0.60036   0.09959   0.00000  Uiso   1.00
C187   C     0.26359   0.37940   0.20469   0.00000  Uiso   1.00
H188   H     0.27608   0.39946   0.17793   0.00000  Uiso   1.00
H189   H     0.25674   0.39965   0.23373   0.00000  Uiso   1.00
H190   H     0.29655   0.35827   0.21703   0.00000  Uiso   1.00
F191   F     0.24090   0.54439   0.05866   0.00000  Uiso   1.00
F192   F     0.09244   0.45561   0.27467   0.00000  Uiso   1.00
C193   C     0.24860   0.54573   0.29860   0.00000  Uiso   1.00
H194   H     0.23380   0.56491   0.26894   0.00000  Uiso   1.00
H195   H     0.26943   0.56799   0.32463   0.00000  Uiso   1.00
H196   H     0.27820   0.52315   0.29038   0.00000  Uiso   1.00
C197   C     0.08473   0.45427   0.03473   0.00000  Uiso   1.00
H198   H     0.09953   0.43509   0.06439   0.00000  Uiso   1.00
H199   H     0.05513   0.47685   0.04296   0.00000  Uiso   1.00
H200   H     0.06390   0.43201   0.00870   0.00000  Uiso   1.00
C201   C     0.50044   0.42023   0.16648   0.00000  Uiso   1.00
C202   C     0.49956   0.57977   0.16686   0.00000  Uiso   1.00
C203   C     0.40042   0.49991   0.15465   0.00000  Uiso   1.00
C204   C     0.59958   0.50009   0.17869   0.00000  Uiso   1.00
C205   C     0.34520   0.49987   0.14831   0.00000  Uiso   1.00
C206   C     0.65480   0.50013   0.18502   0.00000  Uiso   1.00
C207   C     0.45478   0.35475   0.14737   0.00000  Uiso   1.00
C208   C     0.54523   0.64525   0.18597   0.00000  Uiso   1.00
C209   C     0.45312   0.64461   0.14775   0.00000  Uiso   1.00
C210   C     0.54689   0.35539   0.18558   0.00000  Uiso   1.00
C211   C     0.49888   0.62395   0.16716   0.00000  Uiso   1.00
C212   C     0.50112   0.37606   0.16617   0.00000  Uiso   1.00
C213   C     0.53723   0.52226   0.02987   0.00000  Uiso   1.00
C214   C     0.46277   0.47774   0.30346   0.00000  Uiso   1.00
C215   C     0.53780   0.52226   0.31545   0.00000  Uiso   1.00
C216   C     0.46220   0.47774   0.01788   0.00000  Uiso   1.00
H217   H     0.65761   0.49959   0.11358   0.00000  Uiso   1.00
H218   H     0.34239   0.50041   0.21975   0.00000  Uiso   1.00
N219   N     0.49999   0.49999   0.28573   0.00000  Uiso   1.00
N220   N     0.50001   0.50001   0.04760   0.00000  Uiso   1.00
O221   O     0.50000   0.43892   0.20487   0.00000  Uiso   1.00
O222   O     0.50000   0.56108   0.12846   0.00000  Uiso   1.00
O223   O     0.50000   0.43893   0.12843   0.00000  Uiso   1.00
O224   O     0.50000   0.56107   0.20490   0.00000  Uiso   1.00
O225   O     0.42392   0.50000   0.19595   0.00000  Uiso   1.00
O226   O     0.57608   0.50000   0.13739   0.00000  Uiso   1.00
O227   O     0.42392   0.50000   0.11950   0.00000  Uiso   1.00
O228   O     0.57608   0.50000   0.21383   0.00000  Uiso   1.00
Zn229  Zn    0.50000   0.49999   0.21771   0.00000  Uiso   1.00
Zn230  Zn    0.50000   0.50001   0.11563   0.00000  Uiso   1.00
F231   F     0.41145   0.37661   0.12963   0.00000  Uiso   1.00
F232   F     0.58855   0.62339   0.20371   0.00000  Uiso   1.00
C233   C     0.40308   0.62060   0.12864   0.00000  Uiso   1.00
H234   H     0.39059   0.60054   0.15539   0.00000  Uiso   1.00
H235   H     0.37012   0.64173   0.11629   0.00000  Uiso   1.00
H236   H     0.40994   0.60036   0.09959   0.00000  Uiso   1.00
C237   C     0.59692   0.37940   0.20469   0.00000  Uiso   1.00
H238   H     0.60941   0.39946   0.17793   0.00000  Uiso   1.00
H239   H     0.59007   0.39965   0.23373   0.00000  Uiso   1.00
H240   H     0.62989   0.35827   0.21703   0.00000  Uiso   1.00
F241   F     0.57423   0.54439   0.05866   0.00000  Uiso   1.00
F242   F     0.42577   0.45561   0.27467   0.00000  Uiso   1.00
C243   C     0.58193   0.54573   0.29860   0.00000  Uiso   1.00
H244   H     0.56714   0.56491   0.26894   0.00000  Uiso   1.00
H245   H     0.60276   0.56799   0.32463   0.00000  Uiso   1.00
H246   H     0.61154   0.52315   0.29038   0.00000  Uiso   1.00
C247   C     0.41807   0.45427   0.03473   0.00000  Uiso   1.00
H248   H     0.43287   0.43509   0.06439   0.00000  Uiso   1.00
H249   H     0.38847   0.47685   0.04296   0.00000  Uiso   1.00
H250   H     0.39724   0.43201   0.00870   0.00000  Uiso   1.00
C251   C     0.83377   0.42023   0.16648   0.00000  Uiso   1.00
C252   C     0.83289   0.57977   0.16686   0.00000  Uiso   1.00
C253   C     0.73375   0.49991   0.15465   0.00000  Uiso   1.00
C254   C     0.93292   0.50009   0.17869   0.00000  Uiso   1.00
C255   C     0.67853   0.49987   0.14831   0.00000  Uiso   1.00
C256   C     0.98813   0.50013   0.18502   0.00000  Uiso   1.00
C257   C     0.78811   0.35475   0.14737   0.00000  Uiso   1.00
C258   C     0.87856   0.64525   0.18597   0.00000  Uiso   1.00
C259   C     0.78645   0.64461   0.14775   0.00000  Uiso   1.00
C260   C     0.88022   0.35539   0.18558   0.00000  Uiso   1.00
C261   C     0.83222   0.62395   0.16716   0.00000  Uiso   1.00
C262   C     0.83445   0.37606   0.16617   0.00000  Uiso   1.00
C263   C     0.87057   0.52226   0.02987   0.00000  Uiso   1.00
C264   C     0.79610   0.47774   0.30346   0.00000  Uiso   1.00
C265   C     0.87113   0.52226   0.31545   0.00000  Uiso   1.00
C266   C     0.79554   0.47774   0.01788   0.00000  Uiso   1.00
H267   H     0.99094   0.49959   0.11358   0.00000  Uiso   1.00
H268   H     0.67573   0.50041   0.21975   0.00000  Uiso   1.00
N269   N     0.83332   0.49999   0.28573   0.00000  Uiso   1.00
N270   N     0.83335   0.50001   0.04760   0.00000  Uiso   1.00
O271   O     0.83333   0.43892   0.20487   0.00000  Uiso   1.00
O272   O     0.83334   0.56108   0.12846   0.00000  Uiso   1.00
O273   O     0.83333   0.43893   0.12843   0.00000  Uiso   1.00
O274   O     0.83334   0.56107   0.20490   0.00000  Uiso   1.00
O275   O     0.75725   0.50000   0.19595   0.00000  Uiso   1.00
O276   O     0.90942   0.50000   0.13739   0.00000  Uiso   1.00
O277   O     0.75725   0.50000   0.11950   0.00000  Uiso   1.00
O278   O     0.90942   0.50000   0.21383   0.00000  Uiso   1.00
Zn279  Zn    0.83333   0.49999   0.21771   0.00000  Uiso   1.00
Zn280  Zn    0.83333   0.50001   0.11563   0.00000  Uiso   1.00
F281   F     0.74479   0.37661   0.12963   0.00000  Uiso   1.00
F282   F     0.92188   0.62339   0.20371   0.00000  Uiso   1.00
C283   C     0.73641   0.62060   0.12864   0.00000  Uiso   1.00
H284   H     0.72393   0.60054   0.15539   0.00000  Uiso   1.00
H285   H     0.70345   0.64173   0.11629   0.00000  Uiso   1.00
H286   H     0.74327   0.60036   0.09959   0.00000  Uiso   1.00
C287   C     0.93026   0.37940   0.20469   0.00000  Uiso   1.00
H288   H     0.94274   0.39946   0.17793   0.00000  Uiso   1.00
H289   H     0.92341   0.39965   0.23373   0.00000  Uiso   1.00
H290   H     0.96322   0.35827   0.21703   0.00000  Uiso   1.00
F291   F     0.90757   0.54439   0.05866   0.00000  Uiso   1.00
F292   F     0.75910   0.45561   0.27467   0.00000  Uiso   1.00
C293   C     0.91527   0.54573   0.29860   0.00000  Uiso   1.00
H294   H     0.90047   0.56491   0.26894   0.00000  Uiso   1.00
H295   H     0.93610   0.56799   0.32463   0.00000  Uiso   1.00
H296   H     0.94487   0.52315   0.29038   0.00000  Uiso   1.00
C297   C     0.75140   0.45427   0.03473   0.00000  Uiso   1.00
H298   H     0.76620   0.43509   0.06439   0.00000  Uiso   1.00
H299   H     0.72180   0.47685   0.04296   0.00000  Uiso   1.00
H300   H     0.73057   0.43201   0.00870   0.00000  Uiso   1.00
C301   C     0.16711   0.75356   0.16648   0.00000  Uiso   1.00
C302   C     0.16623   0.91311   0.16686   0.00000  Uiso   1.00
C303   C     0.06708   0.83324   0.15465   0.00000  Uiso   1.00
C304   C     0.26625   0.83342   0.17869   0.00000  Uiso   1.00
C305   C     0.01187   0.83320   0.14831   0.00000  Uiso   1.00
C306   C     0.32147   0.83347   0.18502   0.00000  Uiso   1.00
C307   C     0.12144   0.68808   0.14737   0.00000  Uiso   1.00
C308   C     0.21189   0.97859   0.18597   0.00000  Uiso   1.00
C309   C     0.11978   0.97795   0.14775   0.00000  Uiso   1.00
C310   C     0.21355   0.68872   0.18558   0.00000  Uiso   1.00
C311   C     0.16555   0.95728   0.16716   0.00000  Uiso   1.00
C312   C     0.16778   0.70939   0.16617   0.00000  Uiso   1.00
C313   C     0.20390   0.85559   0.02987   0.00000  Uiso   1.00
C314   C     0.12943   0.81108   0.30346   0.00000  Uiso   1.00
C315   C     0.20446   0.85559   0.31545   0.00000  Uiso   1.00
C316   C     0.12887   0.81107   0.01788   0.00000  Uiso   1.00
H317   H     0.32427   0.83293   0.11358   0.00000  Uiso   1.00
H318   H     0.00906   0.83374   0.21975   0.00000  Uiso   1.00
N319   N     0.16665   0.83332   0.28573   0.00000  Uiso   1.00
N320   N     0.16668   0.83334   0.04760   0.00000  Uiso   1.00
O321   O     0.16666   0.77225   0.20487   0.00000  Uiso   1.00
O322   O     0.16667   0.89442   0.12846   0.00000  Uiso   1.00
O323   O     0.16666   0.77226   0.12843   0.00000  Uiso   1.00
O324   O     0.16667   0.89441   0.20490   0.00000  Uiso   1.00
O325   O     0.09058   0.83333   0.19595   0.00000  Uiso   1.00
O326   O     0.24275   0.83334   0.13739   0.00000  Uiso   1.00
O327   O     0.09058   0.83334   0.11950   0.00000  Uiso   1.00
O328   O     0.24275   0.83333   0.21383   0.00000  Uiso   1.00
Zn329  Zn    0.16667   0.83333   0.21771   0.00000  Uiso   1.00
Zn330  Zn    0.16667   0.83334   0.11563   0.00000  Uiso   1.00
F331   F     0.07812   0.70994   0.12963   0.00000  Uiso   1.00
F332   F     0.25522   0.95672   0.20371   0.00000  Uiso   1.00
C333   C     0.06975   0.95394   0.12864   0.00000  Uiso   1.00
H334   H     0.05726   0.93387   0.15539   0.00000  Uiso   1.00
H335   H     0.03679   0.97506   0.11629   0.00000  Uiso   1.00
H336   H     0.07661   0.93369   0.09959   0.00000  Uiso   1.00
C337   C     0.26359   0.71273   0.20469   0.00000  Uiso   1.00
H338   H     0.27608   0.73279   0.17793   0.00000  Uiso   1.00
H339   H     0.25674   0.73298   0.23373   0.00000  Uiso   1.00
H340   H     0.29655   0.69160   0.21703   0.00000  Uiso   1.00
F341   F     0.24090   0.87773   0.05866   0.00000  Uiso   1.00
F342   F     0.09244   0.78894   0.27467   0.00000  Uiso   1.00
C343   C     0.24860   0.87906   0.29860   0.00000  Uiso   1.00
H344   H     0.23380   0.89825   0.26894   0.00000  Uiso   1.00
H345   H     0.26943   0.90132   0.32463   0.00000  Uiso   1.00
H346   H     0.27820   0.85648   0.29038   0.00000  Uiso   1.00
C347   C     0.08473   0.78760   0.03473   0.00000  Uiso   1.00
H348   H     0.09953   0.76842   0.06439   0.00000  Uiso   1.00
H349   H     0.05513   0.81018   0.04296   0.00000  Uiso   1.00
H350   H     0.06390   0.76534   0.00870   0.00000  Uiso   1.00
C351   C     0.50044   0.75356   0.16648   0.00000  Uiso   1.00
C352   C     0.49956   0.91311   0.16686   0.00000  Uiso   1.00
C353   C     0.40042   0.83324   0.15465   0.00000  Uiso   1.00
C354   C     0.59958   0.83342   0.17869   0.00000  Uiso   1.00
C355   C     0.34520   0.83320   0.14831   0.00000  Uiso   1.00
C356   C     0.65480   0.83347   0.18502   0.00000  Uiso   1.00
C357   C     0.45478   0.68808   0.14737   0.00000  Uiso   1.00
C358   C     0.54523   0.97859   0.18597   0.00000  Uiso   1.00
C359   C     0.45312   0.97795   0.14775   0.00000  Uiso   1.00
C360   C     0.54689   0.68872   0.18558   0.00000  Uiso   1.00
C361   C     0.49888   0.95728   0.16716   0.00000  Uiso   1.00
C362   C     0.50112   0.70939   0.16617   0.00000  Uiso   1.00
C363   C     0.53723   0.85559   0.02987   0.00000  Uiso   1.00
C364   C     0.46277   0.81108   0.30346   0.00000  Uiso   1.00
C365   C     0.53780   0.85559   0.31545   0.00000  Uiso   1.00
C366   C     0.46220   0.81107   0.01788   0.00000  Uiso   1.00
H367   H     0.65761   0.83293   0.11358   0.00000  Uiso   1.00
H368   H     0.34239   0.83374   0.21975   0.00000  Uiso   1.00
N369   N     0.49999   0.83332   0.28573   0.00000  Uiso   1.00
N370   N     0.50001   0.83334   0.04760   0.00000  Uiso   1.00
O371   O     0.50000   0.77225   0.20487   0.00000  Uiso   1.00
O372   O     0.50000   0.89442   0.12846   0.00000  Uiso   1.00
O373   O     0.50000   0.77226   0.12843   0.00000  Uiso   1.00
O374   O     0.50000   0.89441   0.20490   0.00000  Uiso   1.00
O375   O     0.42392   0.83333   0.19595   0.00000  Uiso   1.00
O376   O     0.57608   0.83334   0.13739   0.00000  Uiso   1.00
O377   O     0.42392   0.83334   0.11950   0.00000  Uiso   1.00
O378   O     0.57608   0.83333   0.21383   0.00000  Uiso   1.00
Zn379  Zn    0.50000   0.83333   0.21771   0.00000  Uiso   1.00
Zn380  Zn    0.50000   0.83334   0.11563   0.00000  Uiso   1.00
F381   F     0.41145   0.70994   0.12963   0.00000  Uiso   1.00
F382   F     0.58855   0.95672   0.20371   0.00000  Uiso   1.00
C383   C     0.40308   0.95394   0.12864   0.00000  Uiso   1.00
H384   H     0.39059   0.93387   0.15539   0.00000  Uiso   1.00
H385   H     0.37012   0.97506   0.11629   0.00000  Uiso   1.00
H386   H     0.40994   0.93369   0.09959   0.00000  Uiso   1.00
C387   C     0.59692   0.71273   0.20469   0.00000  Uiso   1.00
H388   H     0.60941   0.73279   0.17793   0.00000  Uiso   1.00
H389   H     0.59007   0.73298   0.23373   0.00000  Uiso   1.00
H390   H     0.62989   0.69160   0.21703   0.00000  Uiso   1.00
F391   F     0.57423   0.87773   0.05866   0.00000  Uiso   1.00
F392   F     0.42577   0.78894   0.27467   0.00000  Uiso   1.00
C393   C     0.58193   0.87906   0.29860   0.00000  Uiso   1.00
H394   H     0.56714   0.89825   0.26894   0.00000  Uiso   1.00
H395   H     0.60276   0.90132   0.32463   0.00000  Uiso   1.00
H396   H     0.61154   0.85648   0.29038   0.00000  Uiso   1.00
C397   C     0.41807   0.78760   0.03473   0.00000  Uiso   1.00
H398   H     0.43287   0.76842   0.06439   0.00000  Uiso   1.00
H399   H     0.38847   0.81018   0.04296   0.00000  Uiso   1.00
H400   H     0.39724   0.76534   0.00870   0.00000  Uiso   1.00
C401   C     0.83377   0.75356   0.16648   0.00000  Uiso   1.00
C402   C     0.83289   0.91311   0.16686   0.00000  Uiso   1.00
C403   C     0.73375   0.83324   0.15465   0.00000  Uiso   1.00
C404   C     0.93292   0.83342   0.17869   0.00000  Uiso   1.00
C405   C     0.67853   0.83320   0.14831   0.00000  Uiso   1.00
C406   C     0.98813   0.83347   0.18502   0.00000  Uiso   1.00
C407   C     0.78811   0.68808   0.14737   0.00000  Uiso   1.00
C408   C     0.87856   0.97859   0.18597   0.00000  Uiso   1.00
C409   C     0.78645   0.97795   0.14775   0.00000  Uiso   1.00
C410   C     0.88022   0.68872   0.18558   0.00000  Uiso   1.00
C411   C     0.83222   0.95728   0.16716   0.00000  Uiso   1.00
C412   C     0.83445   0.70939   0.16617   0.00000  Uiso   1.00
C413   C     0.87057   0.85559   0.02987   0.00000  Uiso   1.00
C414   C     0.79610   0.81108   0.30346   0.00000  Uiso   1.00
C415   C     0.87113   0.85559   0.31545   0.00000  Uiso   1.00
C416   C     0.79554   0.81107   0.01788   0.00000  Uiso   1.00
H417   H     0.99094   0.83293   0.11358   0.00000  Uiso   1.00
H418   H     0.67573   0.83374   0.21975   0.00000  Uiso   1.00
N419   N     0.83332   0.83332   0.28573   0.00000  Uiso   1.00
N420   N     0.83335   0.83334   0.04760   0.00000  Uiso   1.00
O421   O     0.83333   0.77225   0.20487   0.00000  Uiso   1.00
O422   O     0.83334   0.89442   0.12846   0.00000  Uiso   1.00
O423   O     0.83333   0.77226   0.12843   0.00000  Uiso   1.00
O424   O     0.83334   0.89441   0.20490   0.00000  Uiso   1.00
O425   O     0.75725   0.83333   0.19595   0.00000  Uiso   1.00
O426   O     0.90942   0.83334   0.13739   0.00000  Uiso   1.00
O427   O     0.75725   0.83334   0.11950   0.00000  Uiso   1.00
O428   O     0.90942   0.83333   0.21383   0.00000  Uiso   1.00
Zn429  Zn    0.83333   0.83333   0.21771   0.00000  Uiso   1.00
Zn430  Zn    0.83333   0.83334   0.11563   0.00000  Uiso   1.00
F431   F     0.74479   0.70994   0.12963   0.00000  Uiso   1.00
F432   F     0.92188   0.95672   0.20371   0.00000  Uiso   1.00
C433   C     0.73641   0.95394   0.12864   0.00000  Uiso   1.00
H434   H     0.72393   0.93387   0.15539   0.00000  Uiso   1.00
H435   H     0.70345   0.97506   0.11629   0.00000  Uiso   1.00
H436   H     0.74327   0.93369   0.09959   0.00000  Uiso   1.00
C437   C     0.93026   0.71273   0.20469   0.00000  Uiso   1.00
H438   H     0.94274   0.73279   0.17793   0.00000  Uiso   1.00
H439   H     0.92341   0.73298   0.23373   0.00000  Uiso   1.00
H440   H     0.96322   0.69160   0.21703   0.00000  Uiso   1.00
F441   F     0.90757   0.87773   0.05866   0.00000  Uiso   1.00
F442   F     0.75910   0.78894   0.27467   0.00000  Uiso   1.00
C443   C     0.91527   0.87906   0.29860   0.00000  Uiso   1.00
H444   H     0.90047   0.89825   0.26894   0.00000  Uiso   1.00
H445   H     0.93610   0.90132   0.32463   0.00000  Uiso   1.00
H446   H     0.94487   0.85648   0.29038   0.00000  Uiso   1.00
C447   C     0.75140   0.78760   0.03473   0.00000  Uiso   1.00
H448   H     0.76620   0.76842   0.06439   0.00000  Uiso   1.00
H449   H     0.72180   0.81018   0.04296   0.00000  Uiso   1.00
H450   H     0.73057   0.76534   0.00870   0.00000  Uiso   1.00
C451   C     0.16711   0.08689   0.49981   0.00000  Uiso   1.00
C452   C     0.16623   0.24644   0.50019   0.00000  Uiso   1.00
C453   C     0.06708   0.16658   0.48798   0.00000  Uiso   1.00
C454   C     0.26625   0.16676   0.51202   0.00000  Uiso   1.00
C455   C     0.01187   0.16653   0.48164   0.00000  Uiso   1.00
C456   C     0.32147   0.16680   0.51836   0.00000  Uiso   1.00
C457   C     0.12144   0.02141   0.48070   0.00000  Uiso   1.00
C458   C     0.21189   0.31192   0.51930   0.00000  Uiso   1.00
C459   C     0.11978   0.31128   0.48109   0.00000  Uiso   1.00
C460   C     0.21355   0.02205   0.51891   0.00000  Uiso   1.00
C461   C     0.16555   0.29061   0.50050   0.00000  Uiso   1.00
C462   C     0.16778   0.04272   0.49950   0.00000  Uiso   1.00
C463   C     0.20390   0.18892   0.36320   0.00000  Uiso   1.00
C464   C     0.12943   0.14441   0.63680   0.00000  Uiso   1.00
C465   C     0.20446   0.18893   0.64878   0.00000  Uiso   1.00
C466   C     0.12887   0.14441   0.35122   0.00000  Uiso   1.00
H467   H     0.32427   0.16626   0.44692   0.00000  Uiso   1.00
H468   H     0.00906   0.16707   0.55308   0.00000  Uiso   1.00
N469   N     0.16665   0.16666   0.61907   0.00000  Uiso   1.00
N470   N     0.16668   0.16668   0.38093   0.00000  Uiso   1.00
O471   O     0.16666   0.10558   0.53821   0.00000  Uiso   1.00
O472   O     0.16667   0.22775   0.46179   0.00000  Uiso   1.00
O473   O     0.16666   0.10559   0.46176   0.00000  Uiso   1.00
O474   O     0.16667   0.22774   0.53824   0.00000  Uiso   1.00
O475   O     0.09058   0.16666   0.52928   0.00000  Uiso   1.00
O476   O     0.24275   0.16667   0.47072   0.00000  Uiso   1.00
O477   O     0.09058   0.16667   0.45284   0.00000  Uiso   1.00
O478   O     0.24275   0.16666   0.54716   0.00000  Uiso   1.00
Zn479  Zn    0.16667   0.16666   0.55104   0.00000  Uiso   1.00
Zn480  Zn    0.16667   0.16667   0.44896   0.00000  Uiso   1.00
F481   F     0.07812   0.04328   0.46296   0.00000  Uiso   1.00
F482   F     0.25522   0.29006   0.53704   0.00000  Uiso   1.00
C483   C     0.06975   0.28727   0.46197   0.00000  Uiso   1.00
H484   H     0.05726   0.26721   0.48873   0.00000  Uiso   1.00
H485   H     0.03679   0.30840   0.44963   0.00000  Uiso   1.00
H486   H     0.07661   0.26702   0.43292   0.00000  Uiso   1.00
C487   C     0.26359   0.04606   0.53802   0.00000  Uiso   1.00
H488   H     0.27608   0.06612   0.51126   0.00000  Uiso   1.00
H489   H     0.25674   0.06631   0.56707   0.00000  Uiso   1.00
H490   H     0.29655   0.02494   0.55036   0.00000  Uiso   1.00
F491   F     0.24090   0.21106   0.39199   0.00000  Uiso   1.00
F492   F     0.09244   0.12227   0.60801   0.00000  Uiso   1.00
C493   C     0.24860   0.21240   0.63193   0.00000  Uiso   1.00
H494   H     0.23380   0.23158   0.60227   0.00000  Uiso   1.00
H495   H     0.26943   0.23466   0.65796   0.00000  Uiso   1.00
H496   H     0.27820   0.18982   0.62371   0.00000  Uiso   1.00
C497   C     0.08473   0.12094   0.36807   0.00000  Uiso   1.00
H498   H     0.09953   0.10175   0.39772   0.00000  Uiso   1.00
H499   H     0.05513   0.14352   0.37629   0.00000  Uiso   1.00
H500   H     0.06390   0.09868   0.34204   0.00000  Uiso   1.00
C501   C     0.50044   0.08689   0.49981   0.00000  Uiso   1.00
C502   C     0.49956   0.24644   0.50019   0.00000  Uiso   1.00
C503   C     0.40042   0.16658   0.48798   0.00000  Uiso   1.00
C504   C     0.59958   0.16676   0.51202   0.00000  Uiso   1.00
C505   C     0.34520   0.16653   0.48164   0.00000  Uiso   1.00
C506   C     0.65480   0.16680   0.51836   0.00000  Uiso   1.00
C507   C     0.45478   0.02141   0.48070   0.00000  Uiso   1.00
C508   C     0.54523   0.31192   0.51930   0.00000  Uiso   1.00
C509   C     0.45312   0.31128   0.48109   0.00000  Uiso   1.00
C510   C     0.54689   0.02205   0.51891   0.00000  Uiso   1.00
C511   C     0.49888   0.29061   0.50050   0.00000  Uiso   1.00
C512   C     0.50112   0.04272   0.49950   0.00000  Uiso   1.00
C513   C     0.53723   0.18892   0.36320   0.00000  Uiso   1.00
C514   C     0.46277   0.14441   0.63680   0.00000  Uiso   1.00
C515   C     0.53780   0.18893   0.64878   0.00000  Uiso   1.00
C516   C     0.46220   0.14441   0.35122   0.00000  Uiso   1.00
H517   H     0.65761   0.16626   0.44692   0.00000  Uiso   1.00
H518   H     0.34239   0.16707   0.55308   0.00000  Uiso   1.00
N519   N     0.49999   0.16666   0.61907   0.00000  Uiso   1.00
N520   N     0.50001   0.16668   0.38093   0.00000  Uiso   1.00
O521   O     0.50000   0.10558   0.53821   0.00000  Uiso   1.00
O522   O     0.50000   0.22775   0.46179   0.00000  Uiso   1.00
O523   O     0.50000   0.10559   0.46176   0.00000  Uiso   1.00
O524   O     0.50000   0.22774   0.53824   0.00000  Uiso   1.00
O525   O     0.42392   0.16666   0.52928   0.00000  Uiso   1.00
O526   O     0.57608   0.16667   0.47072   0.00000  Uiso   1.00
O527   O     0.42392   0.16667   0.45284   0.00000  Uiso   1.00
O528   O     0.57608   0.16666   0.54716   0.00000  Uiso   1.00
Zn529  Zn    0.50000   0.16666   0.55104   0.00000  Uiso   1.00
Zn530  Zn    0.50000   0.16667   0.44896   0.00000  Uiso   1.00
F531   F     0.41145   0.04328   0.46296   0.00000  Uiso   1.00
F532   F     0.58855   0.29006   0.53704   0.00000  Uiso   1.00
C533   C     0.40308   0.28727   0.46197   0.00000  Uiso   1.00
H534   H     0.39059   0.26721   0.48873   0.00000  Uiso   1.00
H535   H     0.37012   0.30840   0.44963   0.00000  Uiso   1.00
H536   H     0.40994   0.26702   0.43292   0.00000  Uiso   1.00
C537   C     0.59692   0.04606   0.53802   0.00000  Uiso   1.00
H538   H     0.60941   0.06612   0.51126   0.00000  Uiso   1.00
H539   H     0.59007   0.06631   0.56707   0.00000  Uiso   1.00
H540   H     0.62989   0.02494   0.55036   0.00000  Uiso   1.00
F541   F     0.57423   0.21106   0.39199   0.00000  Uiso   1.00
F542   F     0.42577   0.12227   0.60801   0.00000  Uiso   1.00
C543   C     0.58193   0.21240   0.63193   0.00000  Uiso   1.00
H544   H     0.56714   0.23158   0.60227   0.00000  Uiso   1.00
H545   H     0.60276   0.23466   0.65796   0.00000  Uiso   1.00
H546   H     0.61154   0.18982   0.62371   0.00000  Uiso   1.00
C547   C     0.41807   0.12094   0.36807   0.00000  Uiso   1.00
H548   H     0.43287   0.10175   0.39772   0.00000  Uiso   1.00
H549   H     0.38847   0.14352   0.37629   0.00000  Uiso   1.00
H550   H     0.39724   0.09868   0.34204   0.00000  Uiso   1.00
C551   C     0.83377   0.08689   0.49981   0.00000  Uiso   1.00
C552   C     0.83289   0.24644   0.50019   0.00000  Uiso   1.00
C553   C     0.73375   0.16658   0.48798   0.00000  Uiso   1.00
C554   C     0.93292   0.16676   0.51202   0.00000  Uiso   1.00
C555   C     0.67853   0.16653   0.48164   0.00000  Uiso   1.00
C556   C     0.98813   0.16680   0.51836   0.00000  Uiso   1.00
C557   C     0.78811   0.02141   0.48070   0.00000  Uiso   1.00
C558   C     0.87856   0.31192   0.51930   0.00000  Uiso   1.00
C559   C     0.78645   0.31128   0.48109   0.00000  Uiso   1.00
C560   C     0.88022   0.02205   0.51891   0.00000  Uiso   1.00
C561   C     0.83222   0.29061   0.50050   0.00000  Uiso   1.00
C562   C     0.83445   0.04272   0.49950   0.00000  Uiso   1.00
C563   C     0.87057   0.18892   0.36320   0.00000  Uiso   1.00
C564   C     0.79610   0.14441   0.63680   0.00000  Uiso   1.00
C565   C     0.87113   0.18893   0.64878   0.00000  Uiso   1.00
C566   C     0.79554   0.14441   0.35122   0.00000  Uiso   1.00
H567   H     0.99094   0.16626   0.44692   0.00000  Uiso   1.00
H568   H     0.67573   0.16707   0.55308   0.00000  Uiso   1.00
N569   N     0.83332   0.16666   0.61907   0.00000  Uiso   1.00
N570   N     0.83335   0.16668   0.38093   0.00000  Uiso   1.00
O571   O     0.83333   0.10558   0.53821   0.00000  Uiso   1.00
O572   O     0.83334   0.22775   0.46179   0.00000  Uiso   1.00
O573   O     0.83333   0.10559   0.46176   0.00000  Uiso   1.00
O574   O     0.83334   0.22774   0.53824   0.00000  Uiso   1.00
O575   O     0.75725   0.16666   0.52928   0.00000  Uiso   1.00
O576   O     0.90942   0.16667   0.47072   0.00000  Uiso   1.00
O577   O     0.75725   0.16667   0.45284   0.00000  Uiso   1.00
O578   O     0.90942   0.16666   0.54716   0.00000  Uiso   1.00
Zn579  Zn    0.83333   0.16666   0.55104   0.00000  Uiso   1.00
Zn580  Zn    0.83333   0.16667   0.44896   0.00000  Uiso   1.00
F581   F     0.74479   0.04328   0.46296   0.00000  Uiso   1.00
F582   F     0.92188   0.29006   0.53704   0.00000  Uiso   1.00
C583   C     0.73641   0.28727   0.46197   0.00000  Uiso   1.00
H584   H     0.72393   0.26721   0.48873   0.00000  Uiso   1.00
H585   H     0.70345   0.30840   0.44963   0.00000  Uiso   1.00
H586   H     0.74327   0.26702   0.43292   0.00000  Uiso   1.00
C587   C     0.93026   0.04606   0.53802   0.00000  Uiso   1.00
H588   H     0.94274   0.06612   0.51126   0.00000  Uiso   1.00
H589   H     0.92341   0.06631   0.56707   0.00000  Uiso   1.00
H590   H     0.96322   0.02494   0.55036   0.00000  Uiso   1.00
F591   F     0.90757   0.21106   0.39199   0.00000  Uiso   1.00
F592   F     0.75910   0.12227   0.60801   0.00000  Uiso   1.00
C593   C     0.91527   0.21240   0.63193   0.00000  Uiso   1.00
H594   H     0.90047   0.23158   0.60227   0.00000  Uiso   1.00
H595   H     0.93610   0.23466   0.65796   0.00000  Uiso   1.00
H596   H     0.94487   0.18982   0.62371   0.00000  Uiso   1.00
C597   C     0.75140   0.12094   0.36807   0.00000  Uiso   1.00
H598   H     0.76620   0.10175   0.39772   0.00000  Uiso   1.00
H599   H     0.72180   0.14352   0.37629   0.00000  Uiso   1.00
H600   H     0.73057   0.09868   0.34204   0.00000  Uiso   1.00
C601   C     0.16711   0.42023   0.49981   0.00000  Uiso   1.00
C602   C     0.16623   0.57977   0.50019   0.00000  Uiso   1.00
C603   C     0.06708   0.49991   0.48798   0.00000  Uiso   1.00
C604   C     0.26625   0.50009   0.51202   0.00000  Uiso   1.00
C605   C     0.01187   0.49987   0.48164   0.00000  Uiso   1.00
C606   C     0.32147   0.50013   0.51836   0.00000  Uiso   1.00
C607   C     0.12144   0.35475   0.48070   0.00000  Uiso   1.00
C608   C     0.21189   0.64525   0.51930   0.00000  Uiso   1.00
C609   C     0.11978   0.64461   0.48109   0.00000  Uiso   1.00
C610   C     0.21355   0.35539   0.51891   0.00000  Uiso   1.00
C611   C     0.16555   0.62395   0.50050   0.00000  Uiso   1.00
C612   C     0.16778   0.37606   0.49950   0.00000  Uiso   1.00
C613   C     0.20390   0.52226   0.36320   0.00000  Uiso   1.00
C614   C     0.12943   0.47774   0.63680   0.00000  Uiso   1.00
C615   C     0.20446   0.52226   0.64878   0.00000  Uiso   1.00
C616   C     0.12887   0.47774   0.35122   0.00000  Uiso   1.00
H617   H     0.32427   0.49959   0.44692   0.00000  Uiso   1.00
H618   H     0.00906   0.50041   0.55308   0.00000  Uiso   1.00
N619   N     0.16665   0.49999   0.61907   0.00000  Uiso   1.00
N620   N     0.16668   0.50001   0.38093   0.00000  Uiso   1.00
O621   O     0.16666   0.43892   0.53821   0.00000  Uiso   1.00
O622   O     0.16667   0.56108   0.46179   0.00000  Uiso   1.00
O623   O     0.16666   0.43893   0.46176   0.00000  Uiso   1.00
O624   O     0.16667   0.56107   0.53824   0.00000  Uiso   1.00
O625   O     0.09058   0.50000   0.52928   0.00000  Uiso   1.00
O626   O     0.24275   0.50000   0.47072   0.00000  Uiso   1.00
O627   O     0.09058   0.50000   0.45284   0.00000  Uiso   1.00
O628   O     0.24275   0.50000   0.54716   0.00000  Uiso   1.00
Zn629  Zn    0.16667   0.49999   0.55104   0.00000  Uiso   1.00
Zn630  Zn    0.16667   0.50001   0.44896   0.00000  Uiso   1.00
F631   F     0.07812   0.37661   0.46296   0.00000  Uiso   1.00
F632   F     0.25522   0.62339   0.53704   0.00000  Uiso   1.00
C633   C     0.06975   0.62060   0.46197   0.00000  Uiso   1.00
H634   H     0.05726   0.60054   0.48873   0.00000  Uiso   1.00
H635   H     0.03679   0.64173   0.44963   0.00000  Uiso   1.00
H636   H     0.07661   0.60036   0.43292   0.00000  Uiso   1.00
C637   C     0.26359   0.37940   0.53802   0.00000  Uiso   1.00
H638   H     0.27608   0.39946   0.51126   0.00000  Uiso   1.00
H639   H     0.25674   0.39965   0.56707   0.00000  Uiso   1.00
H640   H     0.29655   0.35827   0.55036   0.00000  Uiso   1.00
F641   F     0.24090   0.54439   0.39199   0.00000  Uiso   1.00
F642   F     0.09244   0.45561   0.60801   0.00000  Uiso   1.00
C643   C     0.24860   0.54573   0.63193   0.00000  Uiso   1.00
H644   H     0.23380   0.56491   0.60227   0.00000  Uiso   1.00
H645   H     0.26943   0.56799   0.65796   0.00000  Uiso   1.00
H646   H     0.27820   0.52315   0.62371   0.00000  Uiso   1.00
C647   C     0.08473   0.45427   0.36807   0.00000  Uiso   1.00
H648   H     0.09953   0.43509   0.39772   0.00000  Uiso   1.00
H649   H     0.05513   0.47685   0.37629   0.00000  Uiso   1.00
H650   H     0.06390   0.43201   0.34204   0.00000  Uiso   1.00
C651   C     0.50044   0.42023   0.49981   0.00000  Uiso   1.00
C652   C     0.49956   0.57977   0.50019   0.00000  Uiso   1.00
C653   C     0.40042   0.49991   0.48798   0.00000  Uiso   1.00
C654   C     0.59958   0.50009   0.51202   0.00000  Uiso   1.00
C655   C     0.34520   0.49987   0.48164   0.00000  Uiso   1.00
C656   C     0.65480   0.50013   0.51836   0.00000  Uiso   1.00
C657   C     0.45478   0.35475   0.48070   0.00000  Uiso   1.00
C658   C     0.54523   0.64525   0.51930   0.00000  Uiso   1.00
C659   C     0.45312   0.64461   0.48109   0.00000  Uiso   1.00
C660   C     0.54689   0.35539   0.51891   0.00000  Uiso   1.00
C661   C     0.49888   0.62395   0.50050   0.00000  Uiso   1.00
C662   C     0.50112   0.37606   0.49950   0.00000  Uiso   1.00
C663   C     0.53723   0.52226   0.36320   0.00000  Uiso   1.00
C664   C     0.46277   0.47774   0.63680   0.00000  Uiso   1.00
C665   C     0.53780   0.52226   0.64878   0.00000  Uiso   1.00
C666   C     0.46220   0.47774   0.35122   0.00000  Uiso   1.00
H667   H     0.65761   0.49959   0.44692   0.00000  Uiso   1.00
H668   H     0.34239   0.50041   0.55308   0.00000  Uiso   1.00
N669   N     0.49999   0.49999   0.61907   0.00000  Uiso   1.00
N670   N     0.50001   0.50001   0.38093   0.00000  Uiso   1.00
O671   O     0.50000   0.43892   0.53821   0.00000  Uiso   1.00
O672   O     0.50000   0.56108   0.46179   0.00000  Uiso   1.00
O673   O     0.50000   0.43893   0.46176   0.00000  Uiso   1.00
O674   O     0.50000   0.56107   0.53824   0.00000  Uiso   1.00
O675   O     0.42392   0.50000   0.52928   0.00000  Uiso   1.00
O676   O     0.57608   0.50000   0.47072   0.00000  Uiso   1.00
O677   O     0.42392   0.50000   0.45284   0.00000  Uiso   1.00
O678   O     0.57608   0.50000   0.54716   0.00000  Uiso   1.00
Zn679  Zn    0.50000   0.49999   0.55104   0.00000  Uiso   1.00
Zn680  Zn    0.50000   0.50001   0.44896   0.00000  Uiso   1.00
F681   F     0.41145   0.37661   0.46296   0.00000  Uiso   1.00
F682   F     0.58855   0.62339   0.53704   0.00000  Uiso   1.00
C683   C     0.40308   0.62060   0.46197   0.00000  Uiso   1.00
H684   H     0.39059   0.60054   0.48873   0.00000  Uiso   1.00
H685   H     0.37012   0.64173   0.44963   0.00000  Uiso   1.00
H686   H     0.40994   0.60036   0.43292   0.00000  Uiso   1.00
C687   C     0.59692   0.37940   0.53802   0.00000  Uiso   1.00
H688   H     0.60941   0.39946   0.51126   0.00000  Uiso   1.00
H689   H     0.59007   0.39965   0.56707   0.00000  Uiso   1.00
H690   H     0.62989   0.35827   0.55036   0.00000  Uiso   1.00
F691   F     0.57423   0.54439   0.39199   0.00000  Uiso   1.00
F692   F     0.42577   0.45561   0.60801   0.00000  Uiso   1.00
C693   C     0.58193   0.54573   0.63193   0.00000  Uiso   1.00
H694   H     0.56714   0.56491   0.60227   0.00000  Uiso   1.00
H695   H     0.60276   0.56799   0.65796   0.00000  Uiso   1.00
H696   H     0.61154   0.52315   0.62371   0.00000  Uiso   1.00
C697   C     0.41807   0.45427   0.36807   0.00000  Uiso   1.00
H698   H     0.43287   0.43509   0.39772   0.00000  Uiso   1.00
H699   H     0.38847   0.47685   0.37629   0.00000  Uiso   1.00
H700   H     0.39724   0.43201   0.34204   0.00000  Uiso   1.00
C701   C     0.83377   0.42023   0.49981   0.00000  Uiso   1.00
C702   C     0.83289   0.57977   0.50019   0.00000  Uiso   1.00
C703   C     0.73375   0.49991   0.48798   0.00000  Uiso   1.00
C704   C     0.93292   0.50009   0.51202   0.00000  Uiso   1.00
C705   C     0.67853   0.49987   0.48164   0.00000  Uiso   1.00
C706   C     0.98813   0.50013   0.51836   0.00000  Uiso   1.00
C707   C     0.78811   0.35475   0.48070   0.00000  Uiso   1.00
C708   C     0.87856   0.64525   0.51930   0.00000  Uiso   1.00
C709   C     0.78645   0.64461   0.48109   0.00000  Uiso   1.00
C710   C     0.88022   0.35539   0.51891   0.00000  Uiso   1.00
C711   C     0.83222   0.62395   0.50050   0.00000  Uiso   1.00
C712   C     0.83445   0.37606   0.49950   0.00000  Uiso   1.00
C713   C     0.87057   0.52226   0.36320   0.00000  Uiso   1.00
C714   C     0.79610   0.47774   0.63680   0.00000  Uiso   1.00
C715   C     0.87113   0.52226   0.64878   0.00000  Uiso   1.00
C716   C     0.79554   0.47774   0.35122   0.00000  Uiso   1.00
H717   H     0.99094   0.49959   0.44692   0.00000  Uiso   1.00
H718   H     0.67573   0.50041   0.55308   0.00000  Uiso   1.00
N719   N     0.83332   0.49999   0.61907   0.00000  Uiso   1.00
N720   N     0.83335   0.50001   0.38093   0.00000  Uiso   1.00
O721   O     0.83333   0.43892   0.53821   0.00000  Uiso   1.00
O722   O     0.83334   0.56108   0.46179   0.00000  Uiso   1.00
O723   O     0.83333   0.43893   0.46176   0.00000  Uiso   1.00
O724   O     0.83334   0.56107   0.53824   0.00000  Uiso   1.00
O725   O     0.75725   0.50000   0.52928   0.00000  Uiso   1.00
O726   O     0.90942   0.50000   0.47072   0.00000  Uiso   1.00
O727   O     0.75725   0.50000   0.45284   0.00000  Uiso   1.00
O728   O     0.90942   0.50000   0.54716   0.00000  Uiso   1.00
Zn729  Zn    0.83333   0.49999   0.55104   0.00000  Uiso   1.00
Zn730  Zn    0.83333   0.50001   0.44896   0.00000  Uiso   1.00
F731   F     0.74479   0.37661   0.46296   0.00000  Uiso   1.00
F732   F     0.92188   0.62339   0.53704   0.00000  Uiso   1.00
C733   C     0.73641   0.62060   0.46197   0.00000  Uiso   1.00
H734   H     0.72393   0.60054   0.48873   0.00000  Uiso   1.00
H735   H     0.70345   0.64173   0.44963   0.00000  Uiso   1.00
H736   H     0.74327   0.60036   0.43292   0.00000  Uiso   1.00
C737   C     0.93026   0.37940   0.53802   0.00000  Uiso   1.00
H738   H     0.94274   0.39946   0.51126   0.00000  Uiso   1.00
H739   H     0.92341   0.39965   0.56707   0.00000  Uiso   1.00
H740   H     0.96322   0.35827   0.55036   0.00000  Uiso   1.00
F741   F     0.90757   0.54439   0.39199   0.00000  Uiso   1.00
F742   F     0.75910   0.45561   0.60801   0.00000  Uiso   1.00
C743   C     0.91527   0.54573   0.63193   0.00000  Uiso   1.00
H744   H     0.90047   0.56491   0.60227   0.00000  Uiso   1.00
H745   H     0.93610   0.56799   0.65796   0.00000  Uiso   1.00
H746   H     0.94487   0.52315   0.62371   0.00000  Uiso   1.00
C747   C     0.75140   0.45427   0.36807   0.00000  Uiso   1.00
H748   H     0.76620   0.43509   0.39772   0.00000  Uiso   1.00
H749   H     0.72180   0.47685   0.37629   0.00000  Uiso   1.00
H750   H     0.73057   0.43201   0.34204   0.00000  Uiso   1.00
C751   C     0.16711   0.75356   0.49981   0.00000  Uiso   1.00
C752   C     0.16623   0.91311   0.50019   0.00000  Uiso   1.00
C753   C     0.06708   0.83324   0.48798   0.00000  Uiso   1.00
C754   C     0.26625   0.83342   0.51202   0.00000  Uiso   1.00
C755   C     0.01187   0.83320   0.48164   0.00000  Uiso   1.00
C756   C     0.32147   0.83347   0.51836   0.00000  Uiso   1.00
C757   C     0.12144   0.68808   0.48070   0.00000  Uiso   1.00
C758   C     0.21189   0.97859   0.51930   0.00000  Uiso   1.00
C759   C     0.11978   0.97795   0.48109   0.00000  Uiso   1.00
C760   C     0.21355   0.68872   0.51891   0.00000  Uiso   1.00
C761   C     0.16555   0.95728   0.50050   0.00000  Uiso   1.00
C762   C     0.16778   0.70939   0.49950   0.00000  Uiso   1.00
C763   C     0.20390   0.85559   0.36320   0.00000  Uiso   1.00
C764   C     0.12943   0.81108   0.63680   0.00000  Uiso   1.00
C765   C     0.20446   0.85559   0.64878   0.00000  Uiso   1.00
C766   C     0.12887   0.81107   0.35122   0.00000  Uiso   1.00
H767   H     0.32427   0.83293   0.44692   0.00000  Uiso   1.00
H768   H     0.00906   0.83374   0.55308   0.00000  Uiso   1.00
N769   N     0.16665   0.83332   0.61907   0.00000  Uiso   1.00
N770   N     0.16668   0.83334   0.38093   0.00000  Uiso   1.00
O771   O     0.16666   0.77225   0.53821   0.00000  Uiso   1.00
O772   O     0.16667   0.89442   0.46179   0.00000  Uiso   1.00
O773   O     0.16666   0.77226   0.46176   0.00000  Uiso   1.00
O774   O     0.16667   0.89441   0.53824   0.00000  Uiso   1.00
O775   O     0.09058   0.83333   0.52928   0.00000  Uiso   1.00
O776   O     0.24275   0.83334   0.47072   0.00000  Uiso   1.00
O777   O     0.09058   0.83334   0.45284   0.00000  Uiso   1.00
O778   O     0.24275   0.83333   0.54716   0.00000  Uiso   1.00
Zn779  Zn    0.16667   0.83333   0.55104   0.00000  Uiso   1.00
Zn780  Zn    0.16667   0.83334   0.44896   0.00000  Uiso   1.00
F781   F     0.07812   0.70994   0.46296   0.00000  Uiso   1.00
F782   F     0.25522   0.95672   0.53704   0.00000  Uiso   1.00
C783   C     0.06975   0.95394   0.46197   0.00000  Uiso   1.00
H784   H     0.05726   0.93387   0.48873   0.00000  Uiso   1.00
H785   H     0.03679   0.97506   0.44963   0.00000  Uiso   1.00
H786   H     0.07661   0.93369   0.43292   0.00000  Uiso   1.00
C787   C     0.26359   0.71273   0.53802   0.00000  Uiso   1.00
H788   H     0.27608   0.73279   0.51126   0.00000  Uiso   1.00
H789   H     0.25674   0.73298   0.56707   0.00000  Uiso   1.00
H790   H     0.29655   0.69160   0.55036   0.00000  Uiso   1.00
F791   F     0.24090   0.87773   0.39199   0.00000  Uiso   1.00
F792   F     0.09244   0.78894   0.60801   0.00000  Uiso   1.00
C793   C     0.24860   0.87906   0.63193   0.00000  Uiso   1.00
H794   H     0.23380   0.89825   0.60227   0.00000  Uiso   1.00
H795   H     0.26943   0.90132   0.65796   0.00000  Uiso   1.00
H796   H     0.27820   0.85648   0.62371   0.00000  Uiso   1.00
C797   C     0.08473   0.78760   0.36807   0.00000  Uiso   1.00
H798   H     0.09953   0.76842   0.39772   0.00000  Uiso   1.00
H799   H     0.05513   0.81018   0.37629   0.00000  Uiso   1.00
H800   H     0.06390   0.76534   0.34204   0.00000  Uiso   1.00
C801   C     0.50044   0.75356   0.49981   0.00000  Uiso   1.00
C802   C     0.49956   0.91311   0.50019   0.00000  Uiso   1.00
C803   C     0.40042   0.83324   0.48798   0.00000  Uiso   1.00
C804   C     0.59958   0.83342   0.51202   0.00000  Uiso   1.00
C805   C     0.34520   0.83320   0.48164   0.00000  Uiso   1.00
C806   C     0.65480   0.83347   0.51836   0.00000  Uiso   1.00
C807   C     0.45478   0.68808   0.48070   0.00000  Uiso   1.00
C808   C     0.54523   0.97859   0.51930   0.00000  Uiso   1.00
C809   C     0.45312   0.97795   0.48109   0.00000  Uiso   1.00
C810   C     0.54689   0.68872   0.51891   0.00000  Uiso   1.00
C811   C     0.49888   0.95728   0.50050   0.00000  Uiso   1.00
C812   C     0.50112   0.70939   0.49950   0.00000  Uiso   1.00
C813   C     0.53723   0.85559   0.36320   0.00000  Uiso   1.00
C814   C     0.46277   0.81108   0.63680   0.00000  Uiso   1.00
C815   C     0.53780   0.85559   0.64878   0.00000  Uiso   1.00
C816   C     0.46220   0.81107   0.35122   0.00000  Uiso   1.00
H817   H     0.65761   0.83293   0.44692   0.00000  Uiso   1.00
H818   H     0.34239   0.83374   0.55308   0.00000  Uiso   1.00
N819   N     0.49999   0.83332   0.61907   0.00000  Uiso   1.00
N820   N     0.50001   0.83334   0.38093   0.00000  Uiso   1.00
O821   O     0.50000   0.77225   0.53821   0.00000  Uiso   1.00
O822   O     0.50000   0.89442   0.46179   0.00000  Uiso   1.00
O823   O     0.50000   0.77226   0.46176   0.00000  Uiso   1.00
O824   O     0.50000   0.89441   0.53824   0.00000  Uiso   1.00
O825   O     0.42392   0.83333   0.52928   0.00000  Uiso   1.00
O826   O     0.57608   0.83334   0.47072   0.00000  Uiso   1.00
O827   O     0.42392   0.83334   0.45284   0.00000  Uiso   1.00
O828   O     0.57608   0.83333   0.54716   0.00000  Uiso   1.00
Zn829  Zn    0.50000   0.83333   0.55104   0.00000  Uiso   1.00
Zn830  Zn    0.50000   0.83334   0.44896   0.00000  Uiso   1.00
F831   F     0.41145   0.70994   0.46296   0.00000  Uiso   1.00
F832   F     0.58855   0.95672   0.53704   0.00000  Uiso   1.00
C833   C     0.40308   0.95394   0.46197   0.00000  Uiso   1.00
H834   H     0.39059   0.93387   0.48873   0.00000  Uiso   1.00
H835   H     0.37012   0.97506   0.44963   0.00000  Uiso   1.00
H836   H     0.40994   0.93369   0.43292   0.00000  Uiso   1.00
C837   C     0.59692   0.71273   0.53802   0.00000  Uiso   1.00
H838   H     0.60941   0.73279   0.51126   0.00000  Uiso   1.00
H839   H     0.59007   0.73298   0.56707   0.00000  Uiso   1.00
H840   H     0.62989   0.69160   0.55036   0.00000  Uiso   1.00
F841   F     0.57423   0.87773   0.39199   0.00000  Uiso   1.00
F842   F     0.42577   0.78894   0.60801   0.00000  Uiso   1.00
C843   C     0.58193   0.87906   0.63193   0.00000  Uiso   1.00
H844   H     0.56714   0.89825   0.60227   0.00000  Uiso   1.00
H845   H     0.60276   0.90132   0.65796   0.00000  Uiso   1.00
H846   H     0.61154   0.85648   0.62371   0.00000  Uiso   1.00
C847   C     0.41807   0.78760   0.36807   0.00000  Uiso   1.00
H848   H     0.43287   0.76842   0.39772   0.00000  Uiso   1.00
H849   H     0.38847   0.81018   0.37629   0.00000  Uiso   1.00
H850   H     0.39724   0.76534   0.34204   0.00000  Uiso   1.00
C851   C     0.83377   0.75356   0.49981   0.00000  Uiso   1.00
C852   C     0.83289   0.91311   0.50019   0.00000  Uiso   1.00
C853   C     0.73375   0.83324   0.48798   0.00000  Uiso   1.00
C854   C     0.93292   0.83342   0.51202   0.00000  Uiso   1.00
C855   C     0.67853   0.83320   0.48164   0.00000  Uiso   1.00
C856   C     0.98813   0.83347   0.51836   0.00000  Uiso   1.00
C857   C     0.78811   0.68808   0.48070   0.00000  Uiso   1.00
C858   C     0.87856   0.97859   0.51930   0.00000  Uiso   1.00
C859   C     0.78645   0.97795   0.48109   0.00000  Uiso   1.00
C860   C     0.88022   0.68872   0.51891   0.00000  Uiso   1.00
C861   C     0.83222   0.95728   0.50050   0.00000  Uiso   1.00
C862   C     0.83445   0.70939   0.49950   0.00000  Uiso   1.00
C863   C     0.87057   0.85559   0.36320   0.00000  Uiso   1.00
C864   C     0.79610   0.81108   0.63680   0.00000  Uiso   1.00
C865   C     0.87113   0.85559   0.64878   0.00000  Uiso   1.00
C866   C     0.79554   0.81107   0.35122   0.00000  Uiso   1.00
H867   H     0.99094   0.83293   0.44692   0.00000  Uiso   1.00
H868   H     0.67573   0.83374   0.55308   0.00000  Uiso   1.00
N869   N     0.83332   0.83332   0.61907   0.00000  Uiso   1.00
N870   N     0.83335   0.83334   0.38093   0.00000  Uiso   1.00
O871   O     0.83333   0.77225   0.53821   0.00000  Uiso   1.00
O872   O     0.83334   0.89442   0.46179   0.00000  Uiso   1.00
O873   O     0.83333   0.77226   0.46176   0.00000  Uiso   1.00
O874   O     0.83334   0.89441   0.53824   0.00000  Uiso   1.00
O875   O     0.75725   0.83333   0.52928   0.00000  Uiso   1.00
O876   O     0.90942   0.83334   0.47072   0.00000  Uiso   1.00
O877   O     0.75725   0.83334   0.45284   0.00000  Uiso   1.00
O878   O     0.90942   0.83333   0.54716   0.00000  Uiso   1.00
Zn879  Zn    0.83333   0.83333   0.55104   0.00000  Uiso   1.00
Zn880  Zn    0.83333   0.83334   0.44896   0.00000  Uiso   1.00
F881   F     0.74479   0.70994   0.46296   0.00000  Uiso   1.00
F882   F     0.92188   0.95672   0.53704   0.00000  Uiso   1.00
C883   C     0.73641   0.95394   0.46197   0.00000  Uiso   1.00
H884   H     0.72393   0.93387   0.48873   0.00000  Uiso   1.00
H885   H     0.70345   0.97506   0.44963   0.00000  Uiso   1.00
H886   H     0.74327   0.93369   0.43292   0.00000  Uiso   1.00
C887   C     0.93026   0.71273   0.53802   0.00000  Uiso   1.00
H888   H     0.94274   0.73279   0.51126   0.00000  Uiso   1.00
H889   H     0.92341   0.73298   0.56707   0.00000  Uiso   1.00
H890   H     0.96322   0.69160   0.55036   0.00000  Uiso   1.00
F891   F     0.90757   0.87773   0.39199   0.00000  Uiso   1.00
F892   F     0.75910   0.78894   0.60801   0.00000  Uiso   1.00
C893   C     0.91527   0.87906   0.63193   0.00000  Uiso   1.00
H894   H     0.90047   0.89825   0.60227   0.00000  Uiso   1.00
H895   H     0.93610   0.90132   0.65796   0.00000  Uiso   1.00
H896   H     0.94487   0.85648   0.62371   0.00000  Uiso   1.00
C897   C     0.75140   0.78760   0.36807   0.00000  Uiso   1.00
H898   H     0.76620   0.76842   0.39772   0.00000  Uiso   1.00
H899   H     0.72180   0.81018   0.37629   0.00000  Uiso   1.00
H900   H     0.73057   0.76534   0.34204   0.00000  Uiso   1.00
C901   C     0.16711   0.08689   0.83314   0.00000  Uiso   1.00
C902   C     0.16623   0.24644   0.83352   0.00000  Uiso   1.00
C903   C     0.06708   0.16658   0.82131   0.00000  Uiso   1.00
C904   C     0.26625   0.16676   0.84535   0.00000  Uiso   1.00
C905   C     0.01187   0.16653   0.81498   0.00000  Uiso   1.00
C906   C     0.32147   0.16680   0.85169   0.00000  Uiso   1.00
C907   C     0.12144   0.02141   0.81403   0.00000  Uiso   1.00
C908   C     0.21189   0.31192   0.85263   0.00000  Uiso   1.00
C909   C     0.11978   0.31128   0.81442   0.00000  Uiso   1.00
C910   C     0.21355   0.02205   0.85224   0.00000  Uiso   1.00
C911   C     0.16555   0.29061   0.83383   0.00000  Uiso   1.00
C912   C     0.16778   0.04272   0.83284   0.00000  Uiso   1.00
C913   C     0.20390   0.18892   0.69654   0.00000  Uiso   1.00
C914   C     0.12943   0.14441   0.97013   0.00000  Uiso   1.00
C915   C     0.20446   0.18893   0.98212   0.00000  Uiso   1.00
C916   C     0.12887   0.14441   0.68455   0.00000  Uiso   1.00
H917   H     0.32427   0.16626   0.78025   0.00000  Uiso   1.00
H918   H     0.00906   0.16707   0.88642   0.00000  Uiso   1.00
N919   N     0.16665   0.16666   0.95240   0.00000  Uiso   1.00
N920   N     0.16668   0.16668   0.71427   0.00000  Uiso   1.00
O921   O     0.16666   0.10558   0.87154   0.00000  Uiso   1.00
O922   O     0.16667   0.22775   0.79513   0.00000  Uiso   1.00
O923   O     0.16666   0.10559   0.79510   0.00000  Uiso   1.00
O924   O     0.16667   0.22774   0.87157   0.00000  Uiso   1.00
O925   O     0.09058   0.16666   0.86261   0.00000  Uiso   1.00
O926   O     0.24275   0.16667   0.80405   0.00000  Uiso   1.00
O927   O     0.09058   0.16667   0.78617   0.00000  Uiso   1.00
O928   O     0.24275   0.16666   0.88050   0.00000  Uiso   1.00
Zn929  Zn    0.16667   0.16666   0.88437   0.00000  Uiso   1.00
Zn930  Zn    0.16667   0.16667   0.78229   0.00000  Uiso   1.00
F931   F     0.07812   0.04328   0.79629   0.00000  Uiso   1.00
F932   F     0.25522   0.29006   0.87037   0.00000  Uiso   1.00
C933   C     0.06975   0.28727   0.79530   0.00000  Uiso   1.00
H934   H     0.05726   0.26721   0.82206   0.00000  Uiso   1.00
H935   H     0.03679   0.30840   0.78296   0.00000  Uiso   1.00
H936   H     0.07661   0.26702   0.76626   0.00000  Uiso   1.00
C937   C     0.26359   0.04606   0.87135   0.00000  Uiso   1.00
H938   H     0.27608   0.06612   0.84460   0.00000  Uiso   1.00
H939   H     0.25674   0.06631   0.90040   0.00000  Uiso   1.00
H940   H     0.29655   0.02494   0.88370   0.00000  Uiso   1.00
F941   F     0.24090   0.21106   0.72533   0.00000  Uiso   1.00
F942   F     0.09244   0.12227   0.94134   0.00000  Uiso   1.00
C943   C     0.24860   0.21240   0.96527   0.00000  Uiso   1.00
H944   H     0.23380   0.23158   0.93561   0.00000  Uiso   1.00
H945   H     0.26943   0.23466   0.99130   0.00000  Uiso   1.00
H946   H     0.27820   0.18982   0.95705   0.00000  Uiso   1.00
C947   C     0.08473   0.12094   0.70140   0.00000  Uiso   1.00
H948   H     0.09953   0.10175   0.73106   0.00000  Uiso   1.00
H949   H     0.05513   0.14352   0.70962   0.00000  Uiso   1.00
H950   H     0.06390   0.09868   0.67537   0.00000  Uiso   1.00
C951   C     0.50044   0.08689   0.83314   0.00000  Uiso   1.00
C952   C     0.49956   0.24644   0.83352   0.00000  Uiso   1.00
C953   C     0.40042   0.16658   0.82131   0.00000  Uiso   1.00
C954   C     0.59958   0.16676   0.84535   0.00000  Uiso   1.00
C955   C     0.34520   0.16653   0.81498   0.00000  Uiso   1.00
C956   C     0.65480   0.16680   0.85169   0.00000  Uiso   1.00
C957   C     0.45478   0.02141   0.81403   0.00000  Uiso   1.00
C958   C     0.54523   0.31192   0.85263   0.00000  Uiso   1.00
C959   C     0.45312   0.31128   0.81442   0.00000  Uiso   1.00
C960   C     0.54689   0.02205   0.85224   0.00000  Uiso   1.00
C961   C     0.49888   0.29061   0.83383   0.00000  Uiso   1.00
C962   C     0.50112   0.04272   0.83284   0.00000  Uiso   1.00
C963   C     0.53723   0.18892   0.69654   0.00000  Uiso   1.00
C964   C     0.46277   0.14441   0.97013   0.00000  Uiso   1.00
C965   C     0.53780   0.18893   0.98212   0.00000  Uiso   1.00
C966   C     0.46220   0.14441   0.68455   0.00000  Uiso   1.00
H967   H     0.65761   0.16626   0.78025   0.00000  Uiso   1.00
H968   H     0.34239   0.16707   0.88642   0.00000  Uiso   1.00
N969   N     0.49999   0.16666   0.95240   0.00000  Uiso   1.00
N970   N     0.50001   0.16668   0.71427   0.00000  Uiso   1.00
O971   O     0.50000   0.10558   0.87154   0.00000  Uiso   1.00
O972   O     0.50000   0.22775   0.79513   0.00000  Uiso   1.00
O973   O     0.50000   0.10559   0.79510   0.00000  Uiso   1.00
O974   O     0.50000   0.22774   0.87157   0.00000  Uiso   1.00
O975   O     0.42392   0.16666   0.86261   0.00000  Uiso   1.00
O976   O     0.57608   0.16667   0.80405   0.00000  Uiso   1.00
O977   O     0.42392   0.16667   0.78617   0.00000  Uiso   1.00
O978   O     0.57608   0.16666   0.88050   0.00000  Uiso   1.00
Zn979  Zn    0.50000   0.16666   0.88437   0.00000  Uiso   1.00
Zn980  Zn    0.50000   0.16667   0.78229   0.00000  Uiso   1.00
F981   F     0.41145   0.04328   0.79629   0.00000  Uiso   1.00
F982   F     0.58855   0.29006   0.87037   0.00000  Uiso   1.00
C983   C     0.40308   0.28727   0.79530   0.00000  Uiso   1.00
H984   H     0.39059   0.26721   0.82206   0.00000  Uiso   1.00
H985   H     0.37012   0.30840   0.78296   0.00000  Uiso   1.00
H986   H     0.40994   0.26702   0.76626   0.00000  Uiso   1.00
C987   C     0.59692   0.04606   0.87135   0.00000  Uiso   1.00
H988   H     0.60941   0.06612   0.84460   0.00000  Uiso   1.00
H989   H     0.59007   0.06631   0.90040   0.00000  Uiso   1.00
H990   H     0.62989   0.02494   0.88370   0.00000  Uiso   1.00
F991   F     0.57423   0.21106   0.72533   0.00000  Uiso   1.00
F992   F     0.42577   0.12227   0.94134   0.00000  Uiso   1.00
C993   C     0.58193   0.21240   0.96527   0.00000  Uiso   1.00
H994   H     0.56714   0.23158   0.93561   0.00000  Uiso   1.00
H995   H     0.60276   0.23466   0.99130   0.00000  Uiso   1.00
H996   H     0.61154   0.18982   0.95705   0.00000  Uiso   1.00
C997   C     0.41807   0.12094   0.70140   0.00000  Uiso   1.00
H998   H     0.43287   0.10175   0.73106   0.00000  Uiso   1.00
H999   H     0.38847   0.14352   0.70962   0.00000  Uiso   1.00
H1000  H     0.39724   0.09868   0.67537   0.00000  Uiso   1.00
C1001  C     0.83377   0.08689   0.83314   0.00000  Uiso   1.00
C1002  C     0.83289   0.24644   0.83352   0.00000  Uiso   1.00
C1003  C     0.73375   0.16658   0.82131   0.00000  Uiso   1.00
C1004  C     0.93292   0.16676   0.84535   0.00000  Uiso   1.00
C1005  C     0.67853   0.16653   0.81498   0.00000  Uiso   1.00
C1006  C     0.98813   0.16680   0.85169   0.00000  Uiso   1.00
C1007  C     0.78811   0.02141   0.81403   0.00000  Uiso   1.00
C1008  C     0.87856   0.31192   0.85263   0.00000  Uiso   1.00
C1009  C     0.78645   0.31128   0.81442   0.00000  Uiso   1.00
C1010  C     0.88022   0.02205   0.85224   0.00000  Uiso   1.00
C1011  C     0.83222   0.29061   0.83383   0.00000  Uiso   1.00
C1012  C     0.83445   0.04272   0.83284   0.00000  Uiso   1.00
C1013  C     0.87057   0.18892   0.69654   0.00000  Uiso   1.00
C1014  C     0.79610   0.14441   0.97013   0.00000  Uiso   1.00
C1015  C     0.87113   0.18893   0.98212   0.00000  Uiso   1.00
C1016  C     0.79554   0.14441   0.68455   0.00000  Uiso   1.00
H1017  H     0.99094   0.16626   0.78025   0.00000  Uiso   1.00
H1018  H     0.67573   0.16707   0.88642   0.00000  Uiso   1.00
N1019  N     0.83332   0.16666   0.95240   0.00000  Uiso   1.00
N1020  N     0.83335   0.16668   0.71427   0.00000  Uiso   1.00
O1021  O     0.83333   0.10558   0.87154   0.00000  Uiso   1.00
O1022  O     0.83334   0.22775   0.79513   0.00000  Uiso   1.00
O1023  O     0.83333   0.10559   0.79510   0.00000  Uiso   1.00
O1024  O     0.83334   0.22774   0.87157   0.00000  Uiso   1.00
O1025  O     0.75725   0.16666   0.86261   0.00000  Uiso   1.00
O1026  O     0.90942   0.16667   0.80405   0.00000  Uiso   1.00
O1027  O     0.75725   0.16667   0.78617   0.00000  Uiso   1.00
O1028  O     0.90942   0.16666   0.88050   0.00000  Uiso   1.00
Zn1029 Zn    0.83333   0.16666   0.88437   0.00000  Uiso   1.00
Zn1030 Zn    0.83333   0.16667   0.78229   0.00000  Uiso   1.00
F1031  F     0.74479   0.04328   0.79629   0.00000  Uiso   1.00
F1032  F     0.92188   0.29006   0.87037   0.00000  Uiso   1.00
C1033  C     0.73641   0.28727   0.79530   0.00000  Uiso   1.00
H1034  H     0.72393   0.26721   0.82206   0.00000  Uiso   1.00
H1035  H     0.70345   0.30840   0.78296   0.00000  Uiso   1.00
H1036  H     0.74327   0.26702   0.76626   0.00000  Uiso   1.00
C1037  C     0.93026   0.04606   0.87135   0.00000  Uiso   1.00
H1038  H     0.94274   0.06612   0.84460   0.00000  Uiso   1.00
H1039  H     0.92341   0.06631   0.90040   0.00000  Uiso   1.00
H1040  H     0.96322   0.02494   0.88370   0.00000  Uiso   1.00
F1041  F     0.90757   0.21106   0.72533   0.00000  Uiso   1.00
F1042  F     0.75910   0.12227   0.94134   0.00000  Uiso   1.00
C1043  C     0.91527   0.21240   0.96527   0.00000  Uiso   1.00
H1044  H     0.90047   0.23158   0.93561   0.00000  Uiso   1.00
H1045  H     0.93610   0.23466   0.99130   0.00000  Uiso   1.00
H1046  H     0.94487   0.18982   0.95705   0.00000  Uiso   1.00
C1047  C     0.75140   0.12094   0.70140   0.00000  Uiso   1.00
H1048  H     0.76620   0.10175   0.73106   0.00000  Uiso   1.00
H1049  H     0.72180   0.14352   0.70962   0.00000  Uiso   1.00
H1050  H     0.73057   0.09868   0.67537   0.00000  Uiso   1.00
C1051  C     0.16711   0.42023   0.83314   0.00000  Uiso   1.00
C1052  C     0.16623   0.57977   0.83352   0.00000  Uiso   1.00
C1053  C     0.06708   0.49991   0.82131   0.00000  Uiso   1.00
C1054  C     0.26625   0.50009   0.84535   0.00000  Uiso   1.00
C1055  C     0.01187   0.49987   0.81498   0.00000  Uiso   1.00
C1056  C     0.32147   0.50013   0.85169   0.00000  Uiso   1.00
C1057  C     0.12144   0.35475   0.81403   0.00000  Uiso   1.00
C1058  C     0.21189   0.64525   0.85263   0.00000  Uiso   1.00
C1059  C     0.11978   0.64461   0.81442   0.00000  Uiso   1.00
C1060  C     0.21355   0.35539   0.85224   0.00000  Uiso   1.00
C1061  C     0.16555   0.62395   0.83383   0.00000  Uiso   1.00
C1062  C     0.16778   0.37606   0.83284   0.00000  Uiso   1.00
C1063  C     0.20390   0.52226   0.69654   0.00000  Uiso   1.00
C1064  C     0.12943   0.47774   0.97013   0.00000  Uiso   1.00
C1065  C     0.20446   0.52226   0.98212   0.00000  Uiso   1.00
C1066  C     0.12887   0.47774   0.68455   0.00000  Uiso   1.00
H1067  H     0.32427   0.49959   0.78025   0.00000  Uiso   1.00
H1068  H     0.00906   0.50041   0.88642   0.00000  Uiso   1.00
N1069  N     0.16665   0.49999   0.95240   0.00000  Uiso   1.00
N1070  N     0.16668   0.50001   0.71427   0.00000  Uiso   1.00
O1071  O     0.16666   0.43892   0.87154   0.00000  Uiso   1.00
O1072  O     0.16667   0.56108   0.79513   0.00000  Uiso   1.00
O1073  O     0.16666   0.43893   0.79510   0.00000  Uiso   1.00
O1074  O     0.16667   0.56107   0.87157   0.00000  Uiso   1.00
O1075  O     0.09058   0.50000   0.86261   0.00000  Uiso   1.00
O1076  O     0.24275   0.50000   0.80405   0.00000  Uiso   1.00
O1077  O     0.09058   0.50000   0.78617   0.00000  Uiso   1.00
O1078  O     0.24275   0.50000   0.88050   0.00000  Uiso   1.00
Zn1079 Zn    0.16667   0.49999   0.88437   0.00000  Uiso   1.00
Zn1080 Zn    0.16667   0.50001   0.78229   0.00000  Uiso   1.00
F1081  F     0.07812   0.37661   0.79629   0.00000  Uiso   1.00
F1082  F     0.25522   0.62339   0.87037   0.00000  Uiso   1.00
C1083  C     0.06975   0.62060   0.79530   0.00000  Uiso   1.00
H1084  H     0.05726   0.60054   0.82206   0.00000  Uiso   1.00
H1085  H     0.03679   0.64173   0.78296   0.00000  Uiso   1.00
H1086  H     0.07661   0.60036   0.76626   0.00000  Uiso   1.00
C1087  C     0.26359   0.37940   0.87135   0.00000  Uiso   1.00
H1088  H     0.27608   0.39946   0.84460   0.00000  Uiso   1.00
H1089  H     0.25674   0.39965   0.90040   0.00000  Uiso   1.00
H1090  H     0.29655   0.35827   0.88370   0.00000  Uiso   1.00
F1091  F     0.24090   0.54439   0.72533   0.00000  Uiso   1.00
F1092  F     0.09244   0.45561   0.94134   0.00000  Uiso   1.00
C1093  C     0.24860   0.54573   0.96527   0.00000  Uiso   1.00
H1094  H     0.23380   0.56491   0.93561   0.00000  Uiso   1.00
H1095  H     0.26943   0.56799   0.99130   0.00000  Uiso   1.00
H1096  H     0.27820   0.52315   0.95705   0.00000  Uiso   1.00
C1097  C     0.08473   0.45427   0.70140   0.00000  Uiso   1.00
H1098  H     0.09953   0.43509   0.73106   0.00000  Uiso   1.00
H1099  H     0.05513   0.47685   0.70962   0.00000  Uiso   1.00
H1100  H     0.06390   0.43201   0.67537   0.00000  Uiso   1.00
C1101  C     0.50044   0.42023   0.83314   0.00000  Uiso   1.00
C1102  C     0.49956   0.57977   0.83352   0.00000  Uiso   1.00
C1103  C     0.40042   0.49991   0.82131   0.00000  Uiso   1.00
C1104  C     0.59958   0.50009   0.84535   0.00000  Uiso   1.00
C1105  C     0.34520   0.49987   0.81498   0.00000  Uiso   1.00
C1106  C     0.65480   0.50013   0.85169   0.00000  Uiso   1.00
C1107  C     0.45478   0.35475   0.81403   0.00000  Uiso   1.00
C1108  C     0.54523   0.64525   0.85263   0.00000  Uiso   1.00
C1109  C     0.45312   0.64461   0.81442   0.00000  Uiso   1.00
C1110  C     0.54689   0.35539   0.85224   0.00000  Uiso   1.00
C1111  C     0.49888   0.62395   0.83383   0.00000  Uiso   1.00
C1112  C     0.50112   0.37606   0.83284   0.00000  Uiso   1.00
C1113  C     0.53723   0.52226   0.69654   0.00000  Uiso   1.00
C1114  C     0.46277   0.47774   0.97013   0.00000  Uiso   1.00
C1115  C     0.53780   0.52226   0.98212   0.00000  Uiso   1.00
C1116  C     0.46220   0.47774   0.68455   0.00000  Uiso   1.00
H1117  H     0.65761   0.49959   0.78025   0.00000  Uiso   1.00
H1118  H     0.34239   0.50041   0.88642   0.00000  Uiso   1.00
N1119  N     0.49999   0.49999   0.95240   0.00000  Uiso   1.00
N1120  N     0.50001   0.50001   0.71427   0.00000  Uiso   1.00
O1121  O     0.50000   0.43892   0.87154   0.00000  Uiso   1.00
O1122  O     0.50000   0.56108   0.79513   0.00000  Uiso   1.00
O1123  O     0.50000   0.43893   0.79510   0.00000  Uiso   1.00
O1124  O     0.50000   0.56107   0.87157   0.00000  Uiso   1.00
O1125  O     0.42392   0.50000   0.86261   0.00000  Uiso   1.00
O1126  O     0.57608   0.50000   0.80405   0.00000  Uiso   1.00
O1127  O     0.42392   0.50000   0.78617   0.00000  Uiso   1.00
O1128  O     0.57608   0.50000   0.88050   0.00000  Uiso   1.00
Zn1129 Zn    0.50000   0.49999   0.88437   0.00000  Uiso   1.00
Zn1130 Zn    0.50000   0.50001   0.78229   0.00000  Uiso   1.00
F1131  F     0.41145   0.37661   0.79629   0.00000  Uiso   1.00
F1132  F     0.58855   0.62339   0.87037   0.00000  Uiso   1.00
C1133  C     0.40308   0.62060   0.79530   0.00000  Uiso   1.00
H1134  H     0.39059   0.60054   0.82206   0.00000  Uiso   1.00
H1135  H     0.37012   0.64173   0.78296   0.00000  Uiso   1.00
H1136  H     0.40994   0.60036   0.76626   0.00000  Uiso   1.00
C1137  C     0.59692   0.37940   0.87135   0.00000  Uiso   1.00
H1138  H     0.60941   0.39946   0.84460   0.00000  Uiso   1.00
H1139  H     0.59007   0.39965   0.90040   0.00000  Uiso   1.00
H1140  H     0.62989   0.35827   0.88370   0.00000  Uiso   1.00
F1141  F     0.57423   0.54439   0.72533   0.00000  Uiso   1.00
F1142  F     0.42577   0.45561   0.94134   0.00000  Uiso   1.00
C1143  C     0.58193   0.54573   0.96527   0.00000  Uiso   1.00
H1144  H     0.56714   0.56491   0.93561   0.00000  Uiso   1.00
H1145  H     0.60276   0.56799   0.99130   0.00000  Uiso   1.00
H1146  H     0.61154   0.52315   0.95705   0.00000  Uiso   1.00
C1147  C     0.41807   0.45427   0.70140   0.00000  Uiso   1.00
H1148  H     0.43287   0.43509   0.73106   0.00000  Uiso   1.00
H1149  H     0.38847   0.47685   0.70962   0.00000  Uiso   1.00
H1150  H     0.39724   0.43201   0.67537   0.00000  Uiso   1.00
C1151  C     0.83377   0.42023   0.83314   0.00000  Uiso   1.00
C1152  C     0.83289   0.57977   0.83352   0.00000  Uiso   1.00
C1153  C     0.73375   0.49991   0.82131   0.00000  Uiso   1.00
C1154  C     0.93292   0.50009   0.84535   0.00000  Uiso   1.00
C1155  C     0.67853   0.49987   0.81498   0.00000  Uiso   1.00
C1156  C     0.98813   0.50013   0.85169   0.00000  Uiso   1.00
C1157  C     0.78811   0.35475   0.81403   0.00000  Uiso   1.00
C1158  C     0.87856   0.64525   0.85263   0.00000  Uiso   1.00
C1159  C     0.78645   0.64461   0.81442   0.00000  Uiso   1.00
C1160  C     0.88022   0.35539   0.85224   0.00000  Uiso   1.00
C1161  C     0.83222   0.62395   0.83383   0.00000  Uiso   1.00
C1162  C     0.83445   0.37606   0.83284   0.00000  Uiso   1.00
C1163  C     0.87057   0.52226   0.69654   0.00000  Uiso   1.00
C1164  C     0.79610   0.47774   0.97013   0.00000  Uiso   1.00
C1165  C     0.87113   0.52226   0.98212   0.00000  Uiso   1.00
C1166  C     0.79554   0.47774   0.68455   0.00000  Uiso   1.00
H1167  H     0.99094   0.49959   0.78025   0.00000  Uiso   1.00
H1168  H     0.67573   0.50041   0.88642   0.00000  Uiso   1.00
N1169  N     0.83332   0.49999   0.95240   0.00000  Uiso   1.00
N1170  N     0.83335   0.50001   0.71427   0.00000  Uiso   1.00
O1171  O     0.83333   0.43892   0.87154   0.00000  Uiso   1.00
O1172  O     0.83334   0.56108   0.79513   0.00000  Uiso   1.00
O1173  O     0.83333   0.43893   0.79510   0.00000  Uiso   1.00
O1174  O     0.83334   0.56107   0.87157   0.00000  Uiso   1.00
O1175  O     0.75725   0.50000   0.86261   0.00000  Uiso   1.00
O1176  O     0.90942   0.50000   0.80405   0.00000  Uiso   1.00
O1177  O     0.75725   0.50000   0.78617   0.00000  Uiso   1.00
O1178  O     0.90942   0.50000   0.88050   0.00000  Uiso   1.00
Zn1179 Zn    0.83333   0.49999   0.88437   0.00000  Uiso   1.00
Zn1180 Zn    0.83333   0.50001   0.78229   0.00000  Uiso   1.00
F1181  F     0.74479   0.37661   0.79629   0.00000  Uiso   1.00
F1182  F     0.92188   0.62339   0.87037   0.00000  Uiso   1.00
C1183  C     0.73641   0.62060   0.79530   0.00000  Uiso   1.00
H1184  H     0.72393   0.60054   0.82206   0.00000  Uiso   1.00
H1185  H     0.70345   0.64173   0.78296   0.00000  Uiso   1.00
H1186  H     0.74327   0.60036   0.76626   0.00000  Uiso   1.00
C1187  C     0.93026   0.37940   0.87135   0.00000  Uiso   1.00
H1188  H     0.94274   0.39946   0.84460   0.00000  Uiso   1.00
H1189  H     0.92341   0.39965   0.90040   0.00000  Uiso   1.00
H1190  H     0.96322   0.35827   0.88370   0.00000  Uiso   1.00
F1191  F     0.90757   0.54439   0.72533   0.00000  Uiso   1.00
F1192  F     0.75910   0.45561   0.94134   0.00000  Uiso   1.00
C1193  C     0.91527   0.54573   0.96527   0.00000  Uiso   1.00
H1194  H     0.90047   0.56491   0.93561   0.00000  Uiso   1.00
H1195  H     0.93610   0.56799   0.99130   0.00000  Uiso   1.00
H1196  H     0.94487   0.52315   0.95705   0.00000  Uiso   1.00
C1197  C     0.75140   0.45427   0.70140   0.00000  Uiso   1.00
H1198  H     0.76620   0.43509   0.73106   0.00000  Uiso   1.00
H1199  H     0.72180   0.47685   0.70962   0.00000  Uiso   1.00
H1200  H     0.73057   0.43201   0.67537   0.00000  Uiso   1.00
C1201  C     0.16711   0.75356   0.83314   0.00000  Uiso   1.00
C1202  C     0.16623   0.91311   0.83352   0.00000  Uiso   1.00
C1203  C     0.06708   0.83324   0.82131   0.00000  Uiso   1.00
C1204  C     0.26625   0.83342   0.84535   0.00000  Uiso   1.00
C1205  C     0.01187   0.83320   0.81498   0.00000  Uiso   1.00
C1206  C     0.32147   0.83347   0.85169   0.00000  Uiso   1.00
C1207  C     0.12144   0.68808   0.81403   0.00000  Uiso   1.00
C1208  C     0.21189   0.97859   0.85263   0.00000  Uiso   1.00
C1209  C     0.11978   0.97795   0.81442   0.00000  Uiso   1.00
C1210  C     0.21355   0.68872   0.85224   0.00000  Uiso   1.00
C1211  C     0.16555   0.95728   0.83383   0.00000  Uiso   1.00
C1212  C     0.16778   0.70939   0.83284   0.00000  Uiso   1.00
C1213  C     0.20390   0.85559   0.69654   0.00000  Uiso   1.00
C1214  C     0.12943   0.81108   0.97013   0.00000  Uiso   1.00
C1215  C     0.20446   0.85559   0.98212   0.00000  Uiso   1.00
C1216  C     0.12887   0.81107   0.68455   0.00000  Uiso   1.00
H1217  H     0.32427   0.83293   0.78025   0.00000  Uiso   1.00
H1218  H     0.00906   0.83374   0.88642   0.00000  Uiso   1.00
N1219  N     0.16665   0.83332   0.95240   0.00000  Uiso   1.00
N1220  N     0.16668   0.83334   0.71427   0.00000  Uiso   1.00
O1221  O     0.16666   0.77225   0.87154   0.00000  Uiso   1.00
O1222  O     0.16667   0.89442   0.79513   0.00000  Uiso   1.00
O1223  O     0.16666   0.77226   0.79510   0.00000  Uiso   1.00
O1224  O     0.16667   0.89441   0.87157   0.00000  Uiso   1.00
O1225  O     0.09058   0.83333   0.86261   0.00000  Uiso   1.00
O1226  O     0.24275   0.83334   0.80405   0.00000  Uiso   1.00
O1227  O     0.09058   0.83334   0.78617   0.00000  Uiso   1.00
O1228  O     0.24275   0.83333   0.88050   0.00000  Uiso   1.00
Zn1229 Zn    0.16667   0.83333   0.88437   0.00000  Uiso   1.00
Zn1230 Zn    0.16667   0.83334   0.78229   0.00000  Uiso   1.00
F1231  F     0.07812   0.70994   0.79629   0.00000  Uiso   1.00
F1232  F     0.25522   0.95672   0.87037   0.00000  Uiso   1.00
C1233  C     0.06975   0.95394   0.79530   0.00000  Uiso   1.00
H1234  H     0.05726   0.93387   0.82206   0.00000  Uiso   1.00
H1235  H     0.03679   0.97506   0.78296   0.00000  Uiso   1.00
H1236  H     0.07661   0.93369   0.76626   0.00000  Uiso   1.00
C1237  C     0.26359   0.71273   0.87135   0.00000  Uiso   1.00
H1238  H     0.27608   0.73279   0.84460   0.00000  Uiso   1.00
H1239  H     0.25674   0.73298   0.90040   0.00000  Uiso   1.00
H1240  H     0.29655   0.69160   0.88370   0.00000  Uiso   1.00
F1241  F     0.24090   0.87773   0.72533   0.00000  Uiso   1.00
F1242  F     0.09244   0.78894   0.94134   0.00000  Uiso   1.00
C1243  C     0.24860   0.87906   0.96527   0.00000  Uiso   1.00
H1244  H     0.23380   0.89825   0.93561   0.00000  Uiso   1.00
H1245  H     0.26943   0.90132   0.99130   0.00000  Uiso   1.00
H1246  H     0.27820   0.85648   0.95705   0.00000  Uiso   1.00
C1247  C     0.08473   0.78760   0.70140   0.00000  Uiso   1.00
H1248  H     0.09953   0.76842   0.73106   0.00000  Uiso   1.00
H1249  H     0.05513   0.81018   0.70962   0.00000  Uiso   1.00
H1250  H     0.06390   0.76534   0.67537   0.00000  Uiso   1.00
C1251  C     0.50044   0.75356   0.83314   0.00000  Uiso   1.00
C1252  C     0.49956   0.91311   0.83352   0.00000  Uiso   1.00
C1253  C     0.40042   0.83324   0.82131   0.00000  Uiso   1.00
C1254  C     0.59958   0.83342   0.84535   0.00000  Uiso   1.00
C1255  C     0.34520   0.83320   0.81498   0.00000  Uiso   1.00
C1256  C     0.65480   0.83347   0.85169   0.00000  Uiso   1.00
C1257  C     0.45478   0.68808   0.81403   0.00000  Uiso   1.00
C1258  C     0.54523   0.97859   0.85263   0.00000  Uiso   1.00
C1259  C     0.45312   0.97795   0.81442   0.00000  Uiso   1.00
C1260  C     0.54689   0.68872   0.85224   0.00000  Uiso   1.00
C1261  C     0.49888   0.95728   0.83383   0.00000  Uiso   1.00
C1262  C     0.50112   0.70939   0.83284   0.00000  Uiso   1.00
C1263  C     0.53723   0.85559   0.69654   0.00000  Uiso   1.00
C1264  C     0.46277   0.81108   0.97013   0.00000  Uiso   1.00
C1265  C     0.53780   0.85559   0.98212   0.00000  Uiso   1.00
C1266  C     0.46220   0.81107   0.68455   0.00000  Uiso   1.00
H1267  H     0.65761   0.83293   0.78025   0.00000  Uiso   1.00
H1268  H     0.34239   0.83374   0.88642   0.00000  Uiso   1.00
N1269  N     0.49999   0.83332   0.95240   0.00000  Uiso   1.00
N1270  N     0.50001   0.83334   0.71427   0.00000  Uiso   1.00
O1271  O     0.50000   0.77225   0.87154   0.00000  Uiso   1.00
O1272  O     0.50000   0.89442   0.79513   0.00000  Uiso   1.00
O1273  O     0.50000   0.77226   0.79510   0.00000  Uiso   1.00
O1274  O     0.50000   0.89441   0.87157   0.00000  Uiso   1.00
O1275  O     0.42392   0.83333   0.86261   0.00000  Uiso   1.00
O1276  O     0.57608   0.83334   0.80405   0.00000  Uiso   1.00
O1277  O     0.42392   0.83334   0.78617   0.00000  Uiso   1.00
O1278  O     0.57608   0.83333   0.88050   0.00000  Uiso   1.00
Zn1279 Zn    0.50000   0.83333   0.88437   0.00000  Uiso   1.00
Zn1280 Zn    0.50000   0.83334   0.78229   0.00000  Uiso   1.00
F1281  F     0.41145   0.70994   0.79629   0.00000  Uiso   1.00
F1282  F     0.58855   0.95672   0.87037   0.00000  Uiso   1.00
C1283  C     0.40308   0.95394   0.79530   0.00000  Uiso   1.00
H1284  H     0.39059   0.93387   0.82206   0.00000  Uiso   1.00
H1285  H     0.37012   0.97506   0.78296   0.00000  Uiso   1.00
H1286  H     0.40994   0.93369   0.76626   0.00000  Uiso   1.00
C1287  C     0.59692   0.71273   0.87135   0.00000  Uiso   1.00
H1288  H     0.60941   0.73279   0.84460   0.00000  Uiso   1.00
H1289  H     0.59007   0.73298   0.90040   0.00000  Uiso   1.00
H1290  H     0.62989   0.69160   0.88370   0.00000  Uiso   1.00
F1291  F     0.57423   0.87773   0.72533   0.00000  Uiso   1.00
F1292  F     0.42577   0.78894   0.94134   0.00000  Uiso   1.00
C1293  C     0.58193   0.87906   0.96527   0.00000  Uiso   1.00
H1294  H     0.56714   0.89825   0.93561   0.00000  Uiso   1.00
H1295  H     0.60276   0.90132   0.99130   0.00000  Uiso   1.00
H1296  H     0.61154   0.85648   0.95705   0.00000  Uiso   1.00
C1297  C     0.41807   0.78760   0.70140   0.00000  Uiso   1.00
H1298  H     0.43287   0.76842   0.73106   0.00000  Uiso   1.00
H1299  H     0.38847   0.81018   0.70962   0.00000  Uiso   1.00
H1300  H     0.39724   0.76534   0.67537   0.00000  Uiso   1.00
C1301  C     0.83377   0.75356   0.83314   0.00000  Uiso   1.00
C1302  C     0.83289   0.91311   0.83352   0.00000  Uiso   1.00
C1303  C     0.73375   0.83324   0.82131   0.00000  Uiso   1.00
C1304  C     0.93292   0.83342   0.84535   0.00000  Uiso   1.00
C1305  C     0.67853   0.83320   0.81498   0.00000  Uiso   1.00
C1306  C     0.98813   0.83347   0.85169   0.00000  Uiso   1.00
C1307  C     0.78811   0.68808   0.81403   0.00000  Uiso   1.00
C1308  C     0.87856   0.97859   0.85263   0.00000  Uiso   1.00
C1309  C     0.78645   0.97795   0.81442   0.00000  Uiso   1.00
C1310  C     0.88022   0.68872   0.85224   0.00000  Uiso   1.00
C1311  C     0.83222   0.95728   0.83383   0.00000  Uiso   1.00
C1312  C     0.83445   0.70939   0.83284   0.00000  Uiso   1.00
C1313  C     0.87057   0.85559   0.69654   0.00000  Uiso   1.00
C1314  C     0.79610   0.81108   0.97013   0.00000  Uiso   1.00
C1315  C     0.87113   0.85559   0.98212   0.00000  Uiso   1.00
C1316  C     0.79554   0.81107   0.68455   0.00000  Uiso   1.00
H1317  H     0.99094   0.83293   0.78025   0.00000  Uiso   1.00
H1318  H     0.67573   0.83374   0.88642   0.00000  Uiso   1.00
N1319  N     0.83332   0.83332   0.95240   0.00000  Uiso   1.00
N1320  N     0.83335   0.83334   0.71427   0.00000  Uiso   1.00
O1321  O     0.83333   0.77225   0.87154   0.00000  Uiso   1.00
O1322  O     0.83334   0.89442   0.79513   0.00000  Uiso   1.00
O1323  O     0.83333   0.77226   0.79510   0.00000  Uiso   1.00
O1324  O     0.83334   0.89441   0.87157   0.00000  Uiso   1.00
O1325  O     0.75725   0.83333   0.86261   0.00000  Uiso   1.00
O1326  O     0.90942   0.83334   0.80405   0.00000  Uiso   1.00
O1327  O     0.75725   0.83334   0.78617   0.00000  Uiso   1.00
O1328  O     0.90942   0.83333   0.88050   0.00000  Uiso   1.00
Zn1329 Zn    0.83333   0.83333   0.88437   0.00000  Uiso   1.00
Zn1330 Zn    0.83333   0.83334   0.78229   0.00000  Uiso   1.00
F1331  F     0.74479   0.70994   0.79629   0.00000  Uiso   1.00
F1332  F     0.92188   0.95672   0.87037   0.00000  Uiso   1.00
C1333  C     0.73641   0.95394   0.79530   0.00000  Uiso   1.00
H1334  H     0.72393   0.93387   0.82206   0.00000  Uiso   1.00
H1335  H     0.70345   0.97506   0.78296   0.00000  Uiso   1.00
H1336  H     0.74327   0.93369   0.76626   0.00000  Uiso   1.00
C1337  C     0.93026   0.71273   0.87135   0.00000  Uiso   1.00
H1338  H     0.94274   0.73279   0.84460   0.00000  Uiso   1.00
H1339  H     0.92341   0.73298   0.90040   0.00000  Uiso   1.00
H1340  H     0.96322   0.69160   0.88370   0.00000  Uiso   1.00
F1341  F     0.90757   0.87773   0.72533   0.00000  Uiso   1.00
F1342  F     0.75910   0.78894   0.94134   0.00000  Uiso   1.00
C1343  C     0.91527   0.87906   0.96527   0.00000  Uiso   1.00
H1344  H     0.90047   0.89825   0.93561   0.00000  Uiso   1.00
H1345  H     0.93610   0.90132   0.99130   0.00000  Uiso   1.00
H1346  H     0.94487   0.85648   0.95705   0.00000  Uiso   1.00
C1347  C     0.75140   0.78760   0.70140   0.00000  Uiso   1.00
H1348  H     0.76620   0.76842   0.73106   0.00000  Uiso   1.00
H1349  H     0.72180   0.81018   0.70962   0.00000  Uiso   1.00
H1350  H     0.73057   0.76534   0.67537   0.00000  Uiso   1.00
loop_
_geom_bond_atom_site_label_1
_geom_bond_atom_site_label_2
_geom_bond_distance
_geom_bond_site_symmetry_2
_ccdc_geom_bond_type
C1     O21     1.284   .     A
C1     O23     1.285   .     A
C1     C12     1.405   .     S
C2     O22     1.284   .     A
C2     C11     1.405   .     S
C2     O24     1.285   .     A
C3     O27     1.289   .     A
C3     O25     1.282   .     A
C3     C5      1.403   .     S
C4     O26     1.282   .     A
C4     O28     1.289   .     A
C4     C6      1.403   .     S
C5     C106    1.334   1_455 S
C5     H117    1.088   1_455 S
C6     C55     1.334   .     S
C6     H68     1.088   .     S
C7     C12     1.395   .     A
C7     F31     1.361   .     S
C7     C309    1.382   1_545 S
C8     C11     1.395   .     A
C8     F32     1.361   .     S
C8     C160    1.382   .     S
C9     C11     1.404   .     A
C9     C33     1.513   .     S
C9     C157    1.382   .     S
C10    C12     1.404   .     A
C10    C37     1.513   .     S
C10    C308    1.382   1_545 S
C13    F41     1.357   .     S
C13    N20     1.358   .     A
C13    C915    1.425   1_554 S
C14    F42     1.357   .     S
C14    N19     1.358   .     A
C14    C466    1.425   .     S
C15    C43     1.504   .     S
C15    N19     1.385   .     A
C15    C463    1.425   .     S
C16    N20     1.385   .     A
C16    C47     1.504   .     S
C16    C914    1.425   1_554 S
H17    C55     1.088   .     S
H18    C106    1.088   1_455 S
N19    Zn29    2.027   .     S
N20    Zn30    2.027   .     S
O21    Zn29    1.975   .     S
O22    Zn30    1.975   .     S
O23    Zn30    1.984   .     S
O24    Zn29    1.984   .     S
O25    Zn29    1.962   .     S
O26    Zn30    1.962   .     S
O27    Zn30    1.979   .     S
O28    Zn29    1.979   .     S
C33    H34     1.111   .     S
C33    H36     1.110   .     S
C33    H35     1.110   .     S
C37    H38     1.111   .     S
C37    H39     1.110   .     S
C37    H40     1.110   .     S
C43    H44     1.101   .     S
C43    H45     1.110   .     S
C43    H46     1.108   .     S
C47    H49     1.108   .     S
C47    H48     1.101   .     S
C47    H50     1.110   .     S
C51    O71     1.284   .     A
C51    O73     1.285   .     A
C51    C62     1.405   .     S
C52    O72     1.284   .     A
C52    C61     1.405   .     S
C52    O74     1.285   .     A
C53    O77     1.289   .     A
C53    O75     1.282   .     A
C53    C55     1.403   .     S
C54    O76     1.282   .     A
C54    O78     1.289   .     A
C54    C56     1.403   .     S
C56    C105    1.334   .     S
C56    H118    1.088   .     S
C57    C62     1.395   .     A
C57    F81     1.361   .     S
C57    C359    1.382   1_545 S
C58    C61     1.395   .     A
C58    F82     1.361   .     S
C58    C210    1.382   .     S
C59    C61     1.404   .     A
C59    C83     1.513   .     S
C59    C207    1.382   .     S
C60    C62     1.404   .     A
C60    C87     1.513   .     S
C60    C358    1.382   1_545 S
C63    F91     1.357   .     S
C63    N70     1.358   .     A
C63    C965    1.425   1_554 S
C64    F92     1.357   .     S
C64    N69     1.358   .     A
C64    C516    1.425   .     S
C65    C93     1.504   .     S
C65    N69     1.385   .     A
C65    C513    1.425   .     S
C66    N70     1.385   .     A
C66    C97     1.504   .     S
C66    C964    1.425   1_554 S
H67    C105    1.088   .     S
N69    Zn79    2.027   .     S
N70    Zn80    2.027   .     S
O71    Zn79    1.975   .     S
O72    Zn80    1.975   .     S
O73    Zn80    1.984   .     S
O74    Zn79    1.984   .     S
O75    Zn79    1.962   .     S
O76    Zn80    1.962   .     S
O77    Zn80    1.979   .     S
O78    Zn79    1.979   .     S
C83    H84     1.111   .     S
C83    H86     1.110   .     S
C83    H85     1.110   .     S
C87    H88     1.111   .     S
C87    H89     1.110   .     S
C87    H90     1.110   .     S
C93    H94     1.101   .     S
C93    H95     1.110   .     S
C93    H96     1.108   .     S
C97    H99     1.108   .     S
C97    H98     1.101   .     S
C97    H100    1.110   .     S
C101   O121    1.284   .     A
C101   O123    1.285   .     A
C101   C112    1.405   .     S
C102   O122    1.284   .     A
C102   C111    1.405   .     S
C102   O124    1.285   .     A
C103   O127    1.289   .     A
C103   O125    1.282   .     A
C103   C105    1.403   .     S
C104   O126    1.282   .     A
C104   O128    1.289   .     A
C104   C106    1.403   .     S
C106   C5      1.334   1_655 S
C106   H18     1.088   1_655 S
C107   C112    1.395   .     A
C107   F131    1.361   .     S
C107   C409    1.382   1_545 S
C108   C111    1.395   .     A
C108   F132    1.361   .     S
C108   C260    1.382   .     S
C109   C111    1.404   .     A
C109   C133    1.513   .     S
C109   C257    1.382   .     S
C110   C112    1.404   .     A
C110   C137    1.513   .     S
C110   C408    1.382   1_545 S
C113   F141    1.357   .     S
C113   N120    1.358   .     A
C113   C1015   1.425   1_554 S
C114   F142    1.357   .     S
C114   N119    1.358   .     A
C114   C566    1.425   .     S
C115   C143    1.504   .     S
C115   N119    1.385   .     A
C115   C563    1.425   .     S
C116   N120    1.385   .     A
C116   C147    1.504   .     S
C116   C1014   1.425   1_554 S
H117   C5      1.088   1_655 S
N119   Zn129   2.027   .     S
N120   Zn130   2.027   .     S
O121   Zn129   1.975   .     S
O122   Zn130   1.975   .     S
O123   Zn130   1.984   .     S
O124   Zn129   1.984   .     S
O125   Zn129   1.962   .     S
O126   Zn130   1.962   .     S
O127   Zn130   1.979   .     S
O128   Zn129   1.979   .     S
C133   H134    1.111   .     S
C133   H136    1.110   .     S
C133   H135    1.110   .     S
C137   H138    1.111   .     S
C137   H139    1.110   .     S
C137   H140    1.110   .     S
C143   H144    1.101   .     S
C143   H145    1.110   .     S
C143   H146    1.108   .     S
C147   H149    1.108   .     S
C147   H148    1.101   .     S
C147   H150    1.110   .     S
C151   O171    1.284   .     A
C151   O173    1.285   .     A
C151   C162    1.405   .     S
C152   O172    1.284   .     A
C152   C161    1.405   .     S
C152   O174    1.285   .     A
C153   O177    1.289   .     A
C153   O175    1.282   .     A
C153   C155    1.403   .     S
C154   O176    1.282   .     A
C154   O178    1.289   .     A
C154   C156    1.403   .     S
C155   C256    1.334   1_455 S
C155   H267    1.088   1_455 S
C156   C205    1.334   .     S
C156   H218    1.088   .     S
C157   C162    1.395   .     A
C157   F181    1.361   .     S
C158   C161    1.395   .     A
C158   F182    1.361   .     S
C158   C310    1.382   .     S
C159   C161    1.404   .     A
C159   C183    1.513   .     S
C159   C307    1.382   .     S
C160   C162    1.404   .     A
C160   C187    1.513   .     S
C163   F191    1.357   .     S
C163   N170    1.358   .     A
C163   C1065   1.425   1_554 S
C164   F192    1.357   .     S
C164   N169    1.358   .     A
C164   C616    1.425   .     S
C165   C193    1.504   .     S
C165   N169    1.385   .     A
C165   C613    1.425   .     S
C166   N170    1.385   .     A
C166   C197    1.504   .     S
C166   C1064   1.425   1_554 S
H167   C205    1.088   .     S
H168   C256    1.088   1_455 S
N169   Zn179   2.027   .     S
N170   Zn180   2.027   .     S
O171   Zn179   1.975   .     S
O172   Zn180   1.975   .     S
O173   Zn180   1.984   .     S
O174   Zn179   1.984   .     S
O175   Zn179   1.962   .     S
O176   Zn180   1.962   .     S
O177   Zn180   1.979   .     S
O178   Zn179   1.979   .     S
C183   H184    1.111   .     S
C183   H186    1.110   .     S
C183   H185    1.110   .     S
C187   H188    1.111   .     S
C187   H189    1.110   .     S
C187   H190    1.110   .     S
C193   H194    1.101   .     S
C193   H195    1.110   .     S
C193   H196    1.108   .     S
C197   H199    1.108   .     S
C197   H198    1.101   .     S
C197   H200    1.110   .     S
C201   O221    1.284   .     A
C201   O223    1.285   .     A
C201   C212    1.405   .     S
C202   O222    1.284   .     A
C202   C211    1.405   .     S
C202   O224    1.285   .     A
C203   O227    1.289   .     A
C203   O225    1.282   .     A
C203   C205    1.403   .     S
C204   O226    1.282   .     A
C204   O228    1.289   .     A
C204   C206    1.403   .     S
C206   C255    1.334   .     S
C206   H268    1.088   .     S
C207   C212    1.395   .     A
C207   F231    1.361   .     S
C208   C211    1.395   .     A
C208   F232    1.361   .     S
C208   C360    1.382   .     S
C209   C211    1.404   .     A
C209   C233    1.513   .     S
C209   C357    1.382   .     S
C210   C212    1.404   .     A
C210   C237    1.513   .     S
C213   F241    1.357   .     S
C213   N220    1.358   .     A
C213   C1115   1.425   1_554 S
C214   F242    1.357   .     S
C214   N219    1.358   .     A
C214   C666    1.425   .     S
C215   C243    1.504   .     S
C215   N219    1.385   .     A
C215   C663    1.425   .     S
C216   N220    1.385   .     A
C216   C247    1.504   .     S
C216   C1114   1.425   1_554 S
H217   C255    1.088   .     S
N219   Zn229   2.027   .     S
N220   Zn230   2.027   .     S
O221   Zn229   1.975   .     S
O222   Zn230   1.975   .     S
O223   Zn230   1.984   .     S
O224   Zn229   1.984   .     S
O225   Zn229   1.962   .     S
O226   Zn230   1.962   .     S
O227   Zn230   1.979   .     S
O228   Zn229   1.979   .     S
C233   H234    1.111   .     S
C233   H236    1.110   .     S
C233   H235    1.110   .     S
C237   H238    1.111   .     S
C237   H239    1.110   .     S
C237   H240    1.110   .     S
C243   H244    1.101   .     S
C243   H245    1.110   .     S
C243   H246    1.108   .     S
C247   H249    1.108   .     S
C247   H248    1.101   .     S
C247   H250    1.110   .     S
C251   O271    1.284   .     A
C251   O273    1.285   .     A
C251   C262    1.405   .     S
C252   O272    1.284   .     A
C252   C261    1.405   .     S
C252   O274    1.285   .     A
C253   O277    1.289   .     A
C253   O275    1.282   .     A
C253   C255    1.403   .     S
C254   O276    1.282   .     A
C254   O278    1.289   .     A
C254   C256    1.403   .     S
C256   C155    1.334   1_655 S
C256   H168    1.088   1_655 S
C257   C262    1.395   .     A
C257   F281    1.361   .     S
C258   C261    1.395   .     A
C258   F282    1.361   .     S
C258   C410    1.382   .     S
C259   C261    1.404   .     A
C259   C283    1.513   .     S
C259   C407    1.382   .     S
C260   C262    1.404   .     A
C260   C287    1.513   .     S
C263   F291    1.357   .     S
C263   N270    1.358   .     A
C263   C1165   1.425   1_554 S
C264   F292    1.357   .     S
C264   N269    1.358   .     A
C264   C716    1.425   .     S
C265   C293    1.504   .     S
C265   N269    1.385   .     A
C265   C713    1.425   .     S
C266   N270    1.385   .     A
C266   C297    1.504   .     S
C266   C1164   1.425   1_554 S
H267   C155    1.088   1_655 S
N269   Zn279   2.027   .     S
N270   Zn280   2.027   .     S
O271   Zn279   1.975   .     S
O272   Zn280   1.975   .     S
O273   Zn280   1.984   .     S
O274   Zn279   1.984   .     S
O275   Zn279   1.962   .     S
O276   Zn280   1.962   .     S
O277   Zn280   1.979   .     S
O278   Zn279   1.979   .     S
C283   H284    1.111   .     S
C283   H286    1.110   .     S
C283   H285    1.110   .     S
C287   H288    1.111   .     S
C287   H289    1.110   .     S
C287   H290    1.110   .     S
C293   H294    1.101   .     S
C293   H295    1.110   .     S
C293   H296    1.108   .     S
C297   H299    1.108   .     S
C297   H298    1.101   .     S
C297   H300    1.110   .     S
C301   O321    1.284   .     A
C301   O323    1.285   .     A
C301   C312    1.405   .     S
C302   O322    1.284   .     A
C302   C311    1.405   .     S
C302   O324    1.285   .     A
C303   O327    1.289   .     A
C303   O325    1.282   .     A
C303   C305    1.403   .     S
C304   O326    1.282   .     A
C304   O328    1.289   .     A
C304   C306    1.403   .     S
C305   C406    1.334   1_455 S
C305   H417    1.088   1_455 S
C306   C355    1.334   .     S
C306   H368    1.088   .     S
C307   C312    1.395   .     A
C307   F331    1.361   .     S
C308   C311    1.395   .     A
C308   F332    1.361   .     S
C308   C10     1.382   1_565 S
C309   C311    1.404   .     A
C309   C333    1.513   .     S
C309   C7      1.382   1_565 S
C310   C312    1.404   .     A
C310   C337    1.513   .     S
C313   F341    1.357   .     S
C313   N320    1.358   .     A
C313   C1215   1.425   1_554 S
C314   F342    1.357   .     S
C314   N319    1.358   .     A
C314   C766    1.425   .     S
C315   C343    1.504   .     S
C315   N319    1.385   .     A
C315   C763    1.425   .     S
C316   N320    1.385   .     A
C316   C347    1.504   .     S
C316   C1214   1.425   1_554 S
H317   C355    1.088   .     S
H318   C406    1.088   1_455 S
N319   Zn329   2.027   .     S
N320   Zn330   2.027   .     S
O321   Zn329   1.975   .     S
O322   Zn330   1.975   .     S
O323   Zn330   1.984   .     S
O324   Zn329   1.984   .     S
O325   Zn329   1.962   .     S
O326   Zn330   1.962   .     S
O327   Zn330   1.979   .     S
O328   Zn329   1.979   .     S
C333   H334    1.111   .     S
C333   H336    1.110   .     S
C333   H335    1.110   .     S
C337   H338    1.111   .     S
C337   H339    1.110   .     S
C337   H340    1.110   .     S
C343   H344    1.101   .     S
C343   H345    1.110   .     S
C343   H346    1.108   .     S
C347   H349    1.108   .     S
C347   H348    1.101   .     S
C347   H350    1.110   .     S
C351   O371    1.284   .     A
C351   O373    1.285   .     A
C351   C362    1.405   .     S
C352   O372    1.284   .     A
C352   C361    1.405   .     S
C352   O374    1.285   .     A
C353   O377    1.289   .     A
C353   O375    1.282   .     A
C353   C355    1.403   .     S
C354   O376    1.282   .     A
C354   O378    1.289   .     A
C354   C356    1.403   .     S
C356   C405    1.334   .     S
C356   H418    1.088   .     S
C357   C362    1.395   .     A
C357   F381    1.361   .     S
C358   C361    1.395   .     A
C358   F382    1.361   .     S
C358   C60     1.382   1_565 S
C359   C361    1.404   .     A
C359   C383    1.513   .     S
C359   C57     1.382   1_565 S
C360   C362    1.404   .     A
C360   C387    1.513   .     S
C363   F391    1.357   .     S
C363   N370    1.358   .     A
C363   C1265   1.425   1_554 S
C364   F392    1.357   .     S
C364   N369    1.358   .     A
C364   C816    1.425   .     S
C365   C393    1.504   .     S
C365   N369    1.385   .     A
C365   C813    1.425   .     S
C366   N370    1.385   .     A
C366   C397    1.504   .     S
C366   C1264   1.425   1_554 S
H367   C405    1.088   .     S
N369   Zn379   2.027   .     S
N370   Zn380   2.027   .     S
O371   Zn379   1.975   .     S
O372   Zn380   1.975   .     S
O373   Zn380   1.984   .     S
O374   Zn379   1.984   .     S
O375   Zn379   1.962   .     S
O376   Zn380   1.962   .     S
O377   Zn380   1.979   .     S
O378   Zn379   1.979   .     S
C383   H384    1.111   .     S
C383   H386    1.110   .     S
C383   H385    1.110   .     S
C387   H388    1.111   .     S
C387   H389    1.110   .     S
C387   H390    1.110   .     S
C393   H394    1.101   .     S
C393   H395    1.110   .     S
C393   H396    1.108   .     S
C397   H399    1.108   .     S
C397   H398    1.101   .     S
C397   H400    1.110   .     S
C401   O421    1.284   .     A
C401   O423    1.285   .     A
C401   C412    1.405   .     S
C402   O422    1.284   .     A
C402   C411    1.405   .     S
C402   O424    1.285   .     A
C403   O427    1.289   .     A
C403   O425    1.282   .     A
C403   C405    1.403   .     S
C404   O426    1.282   .     A
C404   O428    1.289   .     A
C404   C406    1.403   .     S
C406   C305    1.334   1_655 S
C406   H318    1.088   1_655 S
C407   C412    1.395   .     A
C407   F431    1.361   .     S
C408   C411    1.395   .     A
C408   F432    1.361   .     S
C408   C110    1.382   1_565 S
C409   C411    1.404   .     A
C409   C433    1.513   .     S
C409   C107    1.382   1_565 S
C410   C412    1.404   .     A
C410   C437    1.513   .     S
C413   F441    1.357   .     S
C413   N420    1.358   .     A
C413   C1315   1.425   1_554 S
C414   F442    1.357   .     S
C414   N419    1.358   .     A
C414   C866    1.425   .     S
C415   C443    1.504   .     S
C415   N419    1.385   .     A
C415   C863    1.425   .     S
C416   N420    1.385   .     A
C416   C447    1.504   .     S
C416   C1314   1.425   1_554 S
H417   C305    1.088   1_655 S
N419   Zn429   2.027   .     S
N420   Zn430   2.027   .     S
O421   Zn429   1.975   .     S
O422   Zn430   1.975   .     S
O423   Zn430   1.984   .     S
O424   Zn429   1.984   .     S
O425   Zn429   1.962   .     S
O426   Zn430   1.962   .     S
O427   Zn430   1.979   .     S
O428   Zn429   1.979   .     S
C433   H434    1.111   .     S
C433   H436    1.110   .     S
C433   H435    1.110   .     S
C437   H438    1.111   .     S
C437   H439    1.110   .     S
C437   H440    1.110   .     S
C443   H444    1.101   .     S
C443   H445    1.110   .     S
C443   H446    1.108   .     S
C447   H449    1.108   .     S
C447   H448    1.101   .     S
C447   H450    1.110   .     S
C451   O471    1.284   .     A
C451   O473    1.285   .     A
C451   C462    1.405   .     S
C452   O472    1.284   .     A
C452   C461    1.405   .     S
C452   O474    1.285   .     A
C453   O477    1.289   .     A
C453   O475    1.282   .     A
C453   C455    1.403   .     S
C454   O476    1.282   .     A
C454   O478    1.289   .     A
C454   C456    1.403   .     S
C455   C556    1.334   1_455 S
C455   H567    1.088   1_455 S
C456   C505    1.334   .     S
C456   H518    1.088   .     S
C457   C462    1.395   .     A
C457   F481    1.361   .     S
C457   C759    1.382   1_545 S
C458   C461    1.395   .     A
C458   F482    1.361   .     S
C458   C610    1.382   .     S
C459   C461    1.404   .     A
C459   C483    1.513   .     S
C459   C607    1.382   .     S
C460   C462    1.404   .     A
C460   C487    1.513   .     S
C460   C758    1.382   1_545 S
C463   F491    1.357   .     S
C463   N470    1.358   .     A
C464   F492    1.357   .     S
C464   N469    1.358   .     A
C464   C916    1.425   .     S
C465   C493    1.504   .     S
C465   N469    1.385   .     A
C465   C913    1.425   .     S
C466   N470    1.385   .     A
C466   C497    1.504   .     S
H467   C505    1.088   .     S
H468   C556    1.088   1_455 S
N469   Zn479   2.027   .     S
N470   Zn480   2.027   .     S
O471   Zn479   1.975   .     S
O472   Zn480   1.975   .     S
O473   Zn480   1.984   .     S
O474   Zn479   1.984   .     S
O475   Zn479   1.962   .     S
O476   Zn480   1.962   .     S
O477   Zn480   1.979   .     S
O478   Zn479   1.979   .     S
C483   H484    1.111   .     S
C483   H486    1.110   .     S
C483   H485    1.110   .     S
C487   H488    1.111   .     S
C487   H489    1.110   .     S
C487   H490    1.110   .     S
C493   H494    1.101   .     S
C493   H495    1.110   .     S
C493   H496    1.108   .     S
C497   H499    1.108   .     S
C497   H498    1.101   .     S
C497   H500    1.110   .     S
C501   O521    1.284   .     A
C501   O523    1.285   .     A
C501   C512    1.405   .     S
C502   O522    1.284   .     A
C502   C511    1.405   .     S
C502   O524    1.285   .     A
C503   O527    1.289   .     A
C503   O525    1.282   .     A
C503   C505    1.403   .     S
C504   O526    1.282   .     A
C504   O528    1.289   .     A
C504   C506    1.403   .     S
C506   C555    1.334   .     S
C506   H568    1.088   .     S
C507   C512    1.395   .     A
C507   F531    1.361   .     S
C507   C809    1.382   1_545 S
C508   C511    1.395   .     A
C508   F532    1.361   .     S
C508   C660    1.382   .     S
C509   C511    1.404   .     A
C509   C533    1.513   .     S
C509   C657    1.382   .     S
C510   C512    1.404   .     A
C510   C537    1.513   .     S
C510   C808    1.382   1_545 S
C513   F541    1.357   .     S
C513   N520    1.358   .     A
C514   F542    1.357   .     S
C514   N519    1.358   .     A
C514   C966    1.425   .     S
C515   C543    1.504   .     S
C515   N519    1.385   .     A
C515   C963    1.425   .     S
C516   N520    1.385   .     A
C516   C547    1.504   .     S
H517   C555    1.088   .     S
N519   Zn529   2.027   .     S
N520   Zn530   2.027   .     S
O521   Zn529   1.975   .     S
O522   Zn530   1.975   .     S
O523   Zn530   1.984   .     S
O524   Zn529   1.984   .     S
O525   Zn529   1.962   .     S
O526   Zn530   1.962   .     S
O527   Zn530   1.979   .     S
O528   Zn529   1.979   .     S
C533   H534    1.111   .     S
C533   H536    1.110   .     S
C533   H535    1.110   .     S
C537   H538    1.111   .     S
C537   H539    1.110   .     S
C537   H540    1.110   .     S
C543   H544    1.101   .     S
C543   H545    1.110   .     S
C543   H546    1.108   .     S
C547   H549    1.108   .     S
C547   H548    1.101   .     S
C547   H550    1.110   .     S
C551   O571    1.284   .     A
C551   O573    1.285   .     A
C551   C562    1.405   .     S
C552   O572    1.284   .     A
C552   C561    1.405   .     S
C552   O574    1.285   .     A
C553   O577    1.289   .     A
C553   O575    1.282   .     A
C553   C555    1.403   .     S
C554   O576    1.282   .     A
C554   O578    1.289   .     A
C554   C556    1.403   .     S
C556   C455    1.334   1_655 S
C556   H468    1.088   1_655 S
C557   C562    1.395   .     A
C557   F581    1.361   .     S
C557   C859    1.382   1_545 S
C558   C561    1.395   .     A
C558   F582    1.361   .     S
C558   C710    1.382   .     S
C559   C561    1.404   .     A
C559   C583    1.513   .     S
C559   C707    1.382   .     S
C560   C562    1.404   .     A
C560   C587    1.513   .     S
C560   C858    1.382   1_545 S
C563   F591    1.357   .     S
C563   N570    1.358   .     A
C564   F592    1.357   .     S
C564   N569    1.358   .     A
C564   C1016   1.425   .     S
C565   C593    1.504   .     S
C565   N569    1.385   .     A
C565   C1013   1.425   .     S
C566   N570    1.385   .     A
C566   C597    1.504   .     S
H567   C455    1.088   1_655 S
N569   Zn579   2.027   .     S
N570   Zn580   2.027   .     S
O571   Zn579   1.975   .     S
O572   Zn580   1.975   .     S
O573   Zn580   1.984   .     S
O574   Zn579   1.984   .     S
O575   Zn579   1.962   .     S
O576   Zn580   1.962   .     S
O577   Zn580   1.979   .     S
O578   Zn579   1.979   .     S
C583   H584    1.111   .     S
C583   H586    1.110   .     S
C583   H585    1.110   .     S
C587   H588    1.111   .     S
C587   H589    1.110   .     S
C587   H590    1.110   .     S
C593   H594    1.101   .     S
C593   H595    1.110   .     S
C593   H596    1.108   .     S
C597   H599    1.108   .     S
C597   H598    1.101   .     S
C597   H600    1.110   .     S
C601   O621    1.284   .     A
C601   O623    1.285   .     A
C601   C612    1.405   .     S
C602   O622    1.284   .     A
C602   C611    1.405   .     S
C602   O624    1.285   .     A
C603   O627    1.289   .     A
C603   O625    1.282   .     A
C603   C605    1.403   .     S
C604   O626    1.282   .     A
C604   O628    1.289   .     A
C604   C606    1.403   .     S
C605   C706    1.334   1_455 S
C605   H717    1.088   1_455 S
C606   C655    1.334   .     S
C606   H668    1.088   .     S
C607   C612    1.395   .     A
C607   F631    1.361   .     S
C608   C611    1.395   .     A
C608   F632    1.361   .     S
C608   C760    1.382   .     S
C609   C611    1.404   .     A
C609   C633    1.513   .     S
C609   C757    1.382   .     S
C610   C612    1.404   .     A
C610   C637    1.513   .     S
C613   F641    1.357   .     S
C613   N620    1.358   .     A
C614   F642    1.357   .     S
C614   N619    1.358   .     A
C614   C1066   1.425   .     S
C615   C643    1.504   .     S
C615   N619    1.385   .     A
C615   C1063   1.425   .     S
C616   N620    1.385   .     A
C616   C647    1.504   .     S
H617   C655    1.088   .     S
H618   C706    1.088   1_455 S
N619   Zn629   2.027   .     S
N620   Zn630   2.027   .     S
O621   Zn629   1.975   .     S
O622   Zn630   1.975   .     S
O623   Zn630   1.984   .     S
O624   Zn629   1.984   .     S
O625   Zn629   1.962   .     S
O626   Zn630   1.962   .     S
O627   Zn630   1.979   .     S
O628   Zn629   1.979   .     S
C633   H634    1.111   .     S
C633   H636    1.110   .     S
C633   H635    1.110   .     S
C637   H638    1.111   .     S
C637   H639    1.110   .     S
C637   H640    1.110   .     S
C643   H644    1.101   .     S
C643   H645    1.110   .     S
C643   H646    1.108   .     S
C647   H649    1.108   .     S
C647   H648    1.101   .     S
C647   H650    1.110   .     S
C651   O671    1.284   .     A
C651   O673    1.285   .     A
C651   C662    1.405   .     S
C652   O672    1.284   .     A
C652   C661    1.405   .     S
C652   O674    1.285   .     A
C653   O677    1.289   .     A
C653   O675    1.282   .     A
C653   C655    1.403   .     S
C654   O676    1.282   .     A
C654   O678    1.289   .     A
C654   C656    1.403   .     S
C656   C705    1.334   .     S
C656   H718    1.088   .     S
C657   C662    1.395   .     A
C657   F681    1.361   .     S
C658   C661    1.395   .     A
C658   F682    1.361   .     S
C658   C810    1.382   .     S
C659   C661    1.404   .     A
C659   C683    1.513   .     S
C659   C807    1.382   .     S
C660   C662    1.404   .     A
C660   C687    1.513   .     S
C663   F691    1.357   .     S
C663   N670    1.358   .     A
C664   F692    1.357   .     S
C664   N669    1.358   .     A
C664   C1116   1.425   .     S
C665   C693    1.504   .     S
C665   N669    1.385   .     A
C665   C1113   1.425   .     S
C666   N670    1.385   .     A
C666   C697    1.504   .     S
H667   C705    1.088   .     S
N669   Zn679   2.027   .     S
N670   Zn680   2.027   .     S
O671   Zn679   1.975   .     S
O672   Zn680   1.975   .     S
O673   Zn680   1.984   .     S
O674   Zn679   1.984   .     S
O675   Zn679   1.962   .     S
O676   Zn680   1.962   .     S
O677   Zn680   1.979   .     S
O678   Zn679   1.979   .     S
C683   H684    1.111   .     S
C683   H686    1.110   .     S
C683   H685    1.110   .     S
C687   H688    1.111   .     S
C687   H689    1.110   .     S
C687   H690    1.110   .     S
C693   H694    1.101   .     S
C693   H695    1.110   .     S
C693   H696    1.108   .     S
C697   H699    1.108   .     S
C697   H698    1.101   .     S
C697   H700    1.110   .     S
C701   O721    1.284   .     A
C701   O723    1.285   .     A
C701   C712    1.405   .     S
C702   O722    1.284   .     A
C702   C711    1.405   .     S
C702   O724    1.285   .     A
C703   O727    1.289   .     A
C703   O725    1.282   .     A
C703   C705    1.403   .     S
C704   O726    1.282   .     A
C704   O728    1.289   .     A
C704   C706    1.403   .     S
C706   C605    1.334   1_655 S
C706   H618    1.088   1_655 S
C707   C712    1.395   .     A
C707   F731    1.361   .     S
C708   C711    1.395   .     A
C708   F732    1.361   .     S
C708   C860    1.382   .     S
C709   C711    1.404   .     A
C709   C733    1.513   .     S
C709   C857    1.382   .     S
C710   C712    1.404   .     A
C710   C737    1.513   .     S
C713   F741    1.357   .     S
C713   N720    1.358   .     A
C714   F742    1.357   .     S
C714   N719    1.358   .     A
C714   C1166   1.425   .     S
C715   C743    1.504   .     S
C715   N719    1.385   .     A
C715   C1163   1.425   .     S
C716   N720    1.385   .     A
C716   C747    1.504   .     S
H717   C605    1.088   1_655 S
N719   Zn729   2.027   .     S
N720   Zn730   2.027   .     S
O721   Zn729   1.975   .     S
O722   Zn730   1.975   .     S
O723   Zn730   1.984   .     S
O724   Zn729   1.984   .     S
O725   Zn729   1.962   .     S
O726   Zn730   1.962   .     S
O727   Zn730   1.979   .     S
O728   Zn729   1.979   .     S
C733   H734    1.111   .     S
C733   H736    1.110   .     S
C733   H735    1.110   .     S
C737   H738    1.111   .     S
C737   H739    1.110   .     S
C737   H740    1.110   .     S
C743   H744    1.101   .     S
C743   H745    1.110   .     S
C743   H746    1.108   .     S
C747   H749    1.108   .     S
C747   H748    1.101   .     S
C747   H750    1.110   .     S
C751   O771    1.284   .     A
C751   O773    1.285   .     A
C751   C762    1.405   .     S
C752   O772    1.284   .     A
C752   C761    1.405   .     S
C752   O774    1.285   .     A
C753   O777    1.289   .     A
C753   O775    1.282   .     A
C753   C755    1.403   .     S
C754   O776    1.282   .     A
C754   O778    1.289   .     A
C754   C756    1.403   .     S
C755   C856    1.334   1_455 S
C755   H867    1.088   1_455 S
C756   C805    1.334   .     S
C756   H818    1.088   .     S
C757   C762    1.395   .     A
C757   F781    1.361   .     S
C758   C761    1.395   .     A
C758   F782    1.361   .     S
C758   C460    1.382   1_565 S
C759   C761    1.404   .     A
C759   C783    1.513   .     S
C759   C457    1.382   1_565 S
C760   C762    1.404   .     A
C760   C787    1.513   .     S
C763   F791    1.357   .     S
C763   N770    1.358   .     A
C764   F792    1.357   .     S
C764   N769    1.358   .     A
C764   C1216   1.425   .     S
C765   C793    1.504   .     S
C765   N769    1.385   .     A
C765   C1213   1.425   .     S
C766   N770    1.385   .     A
C766   C797    1.504   .     S
H767   C805    1.088   .     S
H768   C856    1.088   1_455 S
N769   Zn779   2.027   .     S
N770   Zn780   2.027   .     S
O771   Zn779   1.975   .     S
O772   Zn780   1.975   .     S
O773   Zn780   1.984   .     S
O774   Zn779   1.984   .     S
O775   Zn779   1.962   .     S
O776   Zn780   1.962   .     S
O777   Zn780   1.979   .     S
O778   Zn779   1.979   .     S
C783   H784    1.111   .     S
C783   H786    1.110   .     S
C783   H785    1.110   .     S
C787   H788    1.111   .     S
C787   H789    1.110   .     S
C787   H790    1.110   .     S
C793   H794    1.101   .     S
C793   H795    1.110   .     S
C793   H796    1.108   .     S
C797   H799    1.108   .     S
C797   H798    1.101   .     S
C797   H800    1.110   .     S
C801   O821    1.284   .     A
C801   O823    1.285   .     A
C801   C812    1.405   .     S
C802   O822    1.284   .     A
C802   C811    1.405   .     S
C802   O824    1.285   .     A
C803   O827    1.289   .     A
C803   O825    1.282   .     A
C803   C805    1.403   .     S
C804   O826    1.282   .     A
C804   O828    1.289   .     A
C804   C806    1.403   .     S
C806   C855    1.334   .     S
C806   H868    1.088   .     S
C807   C812    1.395   .     A
C807   F831    1.361   .     S
C808   C811    1.395   .     A
C808   F832    1.361   .     S
C808   C510    1.382   1_565 S
C809   C811    1.404   .     A
C809   C833    1.513   .     S
C809   C507    1.382   1_565 S
C810   C812    1.404   .     A
C810   C837    1.513   .     S
C813   F841    1.357   .     S
C813   N820    1.358   .     A
C814   F842    1.357   .     S
C814   N819    1.358   .     A
C814   C1266   1.425   .     S
C815   C843    1.504   .     S
C815   N819    1.385   .     A
C815   C1263   1.425   .     S
C816   N820    1.385   .     A
C816   C847    1.504   .     S
H817   C855    1.088   .     S
N819   Zn829   2.027   .     S
N820   Zn830   2.027   .     S
O821   Zn829   1.975   .     S
O822   Zn830   1.975   .     S
O823   Zn830   1.984   .     S
O824   Zn829   1.984   .     S
O825   Zn829   1.962   .     S
O826   Zn830   1.962   .     S
O827   Zn830   1.979   .     S
O828   Zn829   1.979   .     S
C833   H834    1.111   .     S
C833   H836    1.110   .     S
C833   H835    1.110   .     S
C837   H838    1.111   .     S
C837   H839    1.110   .     S
C837   H840    1.110   .     S
C843   H844    1.101   .     S
C843   H845    1.110   .     S
C843   H846    1.108   .     S
C847   H849    1.108   .     S
C847   H848    1.101   .     S
C847   H850    1.110   .     S
C851   O871    1.284   .     A
C851   O873    1.285   .     A
C851   C862    1.405   .     S
C852   O872    1.284   .     A
C852   C861    1.405   .     S
C852   O874    1.285   .     A
C853   O877    1.289   .     A
C853   O875    1.282   .     A
C853   C855    1.403   .     S
C854   O876    1.282   .     A
C854   O878    1.289   .     A
C854   C856    1.403   .     S
C856   C755    1.334   1_655 S
C856   H768    1.088   1_655 S
C857   C862    1.395   .     A
C857   F881    1.361   .     S
C858   C861    1.395   .     A
C858   F882    1.361   .     S
C858   C560    1.382   1_565 S
C859   C861    1.404   .     A
C859   C883    1.513   .     S
C859   C557    1.382   1_565 S
C860   C862    1.404   .     A
C860   C887    1.513   .     S
C863   F891    1.357   .     S
C863   N870    1.358   .     A
C864   F892    1.357   .     S
C864   N869    1.358   .     A
C864   C1316   1.425   .     S
C865   C893    1.504   .     S
C865   N869    1.385   .     A
C865   C1313   1.425   .     S
C866   N870    1.385   .     A
C866   C897    1.504   .     S
H867   C755    1.088   1_655 S
N869   Zn879   2.027   .     S
N870   Zn880   2.027   .     S
O871   Zn879   1.975   .     S
O872   Zn880   1.975   .     S
O873   Zn880   1.984   .     S
O874   Zn879   1.984   .     S
O875   Zn879   1.962   .     S
O876   Zn880   1.962   .     S
O877   Zn880   1.979   .     S
O878   Zn879   1.979   .     S
C883   H884    1.111   .     S
C883   H886    1.110   .     S
C883   H885    1.110   .     S
C887   H888    1.111   .     S
C887   H889    1.110   .     S
C887   H890    1.110   .     S
C893   H894    1.101   .     S
C893   H895    1.110   .     S
C893   H896    1.108   .     S
C897   H899    1.108   .     S
C897   H898    1.101   .     S
C897   H900    1.110   .     S
C901   O921    1.284   .     A
C901   O923    1.285   .     A
C901   C912    1.405   .     S
C902   O922    1.284   .     A
C902   C911    1.405   .     S
C902   O924    1.285   .     A
C903   O927    1.289   .     A
C903   O925    1.282   .     A
C903   C905    1.403   .     S
C904   O926    1.282   .     A
C904   O928    1.289   .     A
C904   C906    1.403   .     S
C905   C1006   1.334   1_455 S
C905   H1017   1.088   1_455 S
C906   C955    1.334   .     S
C906   H968    1.088   .     S
C907   C912    1.395   .     A
C907   F931    1.361   .     S
C907   C1209   1.382   1_545 S
C908   C911    1.395   .     A
C908   F932    1.361   .     S
C908   C1060   1.382   .     S
C909   C911    1.404   .     A
C909   C933    1.513   .     S
C909   C1057   1.382   .     S
C910   C912    1.404   .     A
C910   C937    1.513   .     S
C910   C1208   1.382   1_545 S
C913   F941    1.357   .     S
C913   N920    1.358   .     A
C914   F942    1.357   .     S
C914   N919    1.358   .     A
C914   C16     1.425   1_556 S
C915   C943    1.504   .     S
C915   N919    1.385   .     A
C915   C13     1.425   1_556 S
C916   N920    1.385   .     A
C916   C947    1.504   .     S
H917   C955    1.088   .     S
H918   C1006   1.088   1_455 S
N919   Zn929   2.027   .     S
N920   Zn930   2.027   .     S
O921   Zn929   1.975   .     S
O922   Zn930   1.975   .     S
O923   Zn930   1.984   .     S
O924   Zn929   1.984   .     S
O925   Zn929   1.962   .     S
O926   Zn930   1.962   .     S
O927   Zn930   1.979   .     S
O928   Zn929   1.979   .     S
C933   H934    1.111   .     S
C933   H936    1.110   .     S
C933   H935    1.110   .     S
C937   H938    1.111   .     S
C937   H939    1.110   .     S
C937   H940    1.110   .     S
C943   H944    1.101   .     S
C943   H945    1.110   .     S
C943   H946    1.108   .     S
C947   H949    1.108   .     S
C947   H948    1.101   .     S
C947   H950    1.110   .     S
C951   O971    1.284   .     A
C951   O973    1.285   .     A
C951   C962    1.405   .     S
C952   O972    1.284   .     A
C952   C961    1.405   .     S
C952   O974    1.285   .     A
C953   O977    1.289   .     A
C953   O975    1.282   .     A
C953   C955    1.403   .     S
C954   O976    1.282   .     A
C954   O978    1.289   .     A
C954   C956    1.403   .     S
C956   C1005   1.334   .     S
C956   H1018   1.088   .     S
C957   C962    1.395   .     A
C957   F981    1.361   .     S
C957   C1259   1.382   1_545 S
C958   C961    1.395   .     A
C958   F982    1.361   .     S
C958   C1110   1.382   .     S
C959   C961    1.404   .     A
C959   C983    1.513   .     S
C959   C1107   1.382   .     S
C960   C962    1.404   .     A
C960   C987    1.513   .     S
C960   C1258   1.382   1_545 S
C963   F991    1.357   .     S
C963   N970    1.358   .     A
C964   F992    1.357   .     S
C964   N969    1.358   .     A
C964   C66     1.425   1_556 S
C965   C993    1.504   .     S
C965   N969    1.385   .     A
C965   C63     1.425   1_556 S
C966   N970    1.385   .     A
C966   C997    1.504   .     S
H967   C1005   1.088   .     S
N969   Zn979   2.027   .     S
N970   Zn980   2.027   .     S
O971   Zn979   1.975   .     S
O972   Zn980   1.975   .     S
O973   Zn980   1.984   .     S
O974   Zn979   1.984   .     S
O975   Zn979   1.962   .     S
O976   Zn980   1.962   .     S
O977   Zn980   1.979   .     S
O978   Zn979   1.979   .     S
C983   H984    1.111   .     S
C983   H986    1.110   .     S
C983   H985    1.110   .     S
C987   H988    1.111   .     S
C987   H989    1.110   .     S
C987   H990    1.110   .     S
C993   H994    1.101   .     S
C993   H995    1.110   .     S
C993   H996    1.108   .     S
C997   H999    1.108   .     S
C997   H998    1.101   .     S
C997   H1000   1.110   .     S
C1001  O1021   1.284   .     A
C1001  O1023   1.285   .     A
C1001  C1012   1.405   .     S
C1002  O1022   1.284   .     A
C1002  C1011   1.405   .     S
C1002  O1024   1.285   .     A
C1003  O1027   1.289   .     A
C1003  O1025   1.282   .     A
C1003  C1005   1.403   .     S
C1004  O1026   1.282   .     A
C1004  O1028   1.289   .     A
C1004  C1006   1.403   .     S
C1006  C905    1.334   1_655 S
C1006  H918    1.088   1_655 S
C1007  C1012   1.395   .     A
C1007  F1031   1.361   .     S
C1007  C1309   1.382   1_545 S
C1008  C1011   1.395   .     A
C1008  F1032   1.361   .     S
C1008  C1160   1.382   .     S
C1009  C1011   1.404   .     A
C1009  C1033   1.513   .     S
C1009  C1157   1.382   .     S
C1010  C1012   1.404   .     A
C1010  C1037   1.513   .     S
C1010  C1308   1.382   1_545 S
C1013  F1041   1.357   .     S
C1013  N1020   1.358   .     A
C1014  F1042   1.357   .     S
C1014  N1019   1.358   .     A
C1014  C116    1.425   1_556 S
C1015  C1043   1.504   .     S
C1015  N1019   1.385   .     A
C1015  C113    1.425   1_556 S
C1016  N1020   1.385   .     A
C1016  C1047   1.504   .     S
H1017  C905    1.088   1_655 S
N1019  Zn1029  2.027   .     S
N1020  Zn1030  2.027   .     S
O1021  Zn1029  1.975   .     S
O1022  Zn1030  1.975   .     S
O1023  Zn1030  1.984   .     S
O1024  Zn1029  1.984   .     S
O1025  Zn1029  1.962   .     S
O1026  Zn1030  1.962   .     S
O1027  Zn1030  1.979   .     S
O1028  Zn1029  1.979   .     S
C1033  H1034   1.111   .     S
C1033  H1036   1.110   .     S
C1033  H1035   1.110   .     S
C1037  H1038   1.111   .     S
C1037  H1039   1.110   .     S
C1037  H1040   1.110   .     S
C1043  H1044   1.101   .     S
C1043  H1045   1.110   .     S
C1043  H1046   1.108   .     S
C1047  H1049   1.108   .     S
C1047  H1048   1.101   .     S
C1047  H1050   1.110   .     S
C1051  O1071   1.284   .     A
C1051  O1073   1.285   .     A
C1051  C1062   1.405   .     S
C1052  O1072   1.284   .     A
C1052  C1061   1.405   .     S
C1052  O1074   1.285   .     A
C1053  O1077   1.289   .     A
C1053  O1075   1.282   .     A
C1053  C1055   1.403   .     S
C1054  O1076   1.282   .     A
C1054  O1078   1.289   .     A
C1054  C1056   1.403   .     S
C1055  C1156   1.334   1_455 S
C1055  H1167   1.088   1_455 S
C1056  C1105   1.334   .     S
C1056  H1118   1.088   .     S
C1057  C1062   1.395   .     A
C1057  F1081   1.361   .     S
C1058  C1061   1.395   .     A
C1058  F1082   1.361   .     S
C1058  C1210   1.382   .     S
C1059  C1061   1.404   .     A
C1059  C1083   1.513   .     S
C1059  C1207   1.382   .     S
C1060  C1062   1.404   .     A
C1060  C1087   1.513   .     S
C1063  F1091   1.357   .     S
C1063  N1070   1.358   .     A
C1064  F1092   1.357   .     S
C1064  N1069   1.358   .     A
C1064  C166    1.425   1_556 S
C1065  C1093   1.504   .     S
C1065  N1069   1.385   .     A
C1065  C163    1.425   1_556 S
C1066  N1070   1.385   .     A
C1066  C1097   1.504   .     S
H1067  C1105   1.088   .     S
H1068  C1156   1.088   1_455 S
N1069  Zn1079  2.027   .     S
N1070  Zn1080  2.027   .     S
O1071  Zn1079  1.975   .     S
O1072  Zn1080  1.975   .     S
O1073  Zn1080  1.984   .     S
O1074  Zn1079  1.984   .     S
O1075  Zn1079  1.962   .     S
O1076  Zn1080  1.962   .     S
O1077  Zn1080  1.979   .     S
O1078  Zn1079  1.979   .     S
C1083  H1084   1.111   .     S
C1083  H1086   1.110   .     S
C1083  H1085   1.110   .     S
C1087  H1088   1.111   .     S
C1087  H1089   1.110   .     S
C1087  H1090   1.110   .     S
C1093  H1094   1.101   .     S
C1093  H1095   1.110   .     S
C1093  H1096   1.108   .     S
C1097  H1099   1.108   .     S
C1097  H1098   1.101   .     S
C1097  H1100   1.110   .     S
C1101  O1121   1.284   .     A
C1101  O1123   1.285   .     A
C1101  C1112   1.405   .     S
C1102  O1122   1.284   .     A
C1102  C1111   1.405   .     S
C1102  O1124   1.285   .     A
C1103  O1127   1.289   .     A
C1103  O1125   1.282   .     A
C1103  C1105   1.403   .     S
C1104  O1126   1.282   .     A
C1104  O1128   1.289   .     A
C1104  C1106   1.403   .     S
C1106  C1155   1.334   .     S
C1106  H1168   1.088   .     S
C1107  C1112   1.395   .     A
C1107  F1131   1.361   .     S
C1108  C1111   1.395   .     A
C1108  F1132   1.361   .     S
C1108  C1260   1.382   .     S
C1109  C1111   1.404   .     A
C1109  C1133   1.513   .     S
C1109  C1257   1.382   .     S
C1110  C1112   1.404   .     A
C1110  C1137   1.513   .     S
C1113  F1141   1.357   .     S
C1113  N1120   1.358   .     A
C1114  F1142   1.357   .     S
C1114  N1119   1.358   .     A
C1114  C216    1.425   1_556 S
C1115  C1143   1.504   .     S
C1115  N1119   1.385   .     A
C1115  C213    1.425   1_556 S
C1116  N1120   1.385   .     A
C1116  C1147   1.504   .     S
H1117  C1155   1.088   .     S
N1119  Zn1129  2.027   .     S
N1120  Zn1130  2.027   .     S
O1121  Zn1129  1.975   .     S
O1122  Zn1130  1.975   .     S
O1123  Zn1130  1.984   .     S
O1124  Zn1129  1.984   .     S
O1125  Zn1129  1.962   .     S
O1126  Zn1130  1.962   .     S
O1127  Zn1130  1.979   .     S
O1128  Zn1129  1.979   .     S
C1133  H1134   1.111   .     S
C1133  H1136   1.110   .     S
C1133  H1135   1.110   .     S
C1137  H1138   1.111   .     S
C1137  H1139   1.110   .     S
C1137  H1140   1.110   .     S
C1143  H1144   1.101   .     S
C1143  H1145   1.110   .     S
C1143  H1146   1.108   .     S
C1147  H1149   1.108   .     S
C1147  H1148   1.101   .     S
C1147  H1150   1.110   .     S
C1151  O1171   1.284   .     A
C1151  O1173   1.285   .     A
C1151  C1162   1.405   .     S
C1152  O1172   1.284   .     A
C1152  C1161   1.405   .     S
C1152  O1174   1.285   .     A
C1153  O1177   1.289   .     A
C1153  O1175   1.282   .     A
C1153  C1155   1.403   .     S
C1154  O1176   1.282   .     A
C1154  O1178   1.289   .     A
C1154  C1156   1.403   .     S
C1156  C1055   1.334   1_655 S
C1156  H1068   1.088   1_655 S
C1157  C1162   1.395   .     A
C1157  F1181   1.361   .     S
C1158  C1161   1.395   .     A
C1158  F1182   1.361   .     S
C1158  C1310   1.382   .     S
C1159  C1161   1.404   .     A
C1159  C1183   1.513   .     S
C1159  C1307   1.382   .     S
C1160  C1162   1.404   .     A
C1160  C1187   1.513   .     S
C1163  F1191   1.357   .     S
C1163  N1170   1.358   .     A
C1164  F1192   1.357   .     S
C1164  N1169   1.358   .     A
C1164  C266    1.425   1_556 S
C1165  C1193   1.504   .     S
C1165  N1169   1.385   .     A
C1165  C263    1.425   1_556 S
C1166  N1170   1.385   .     A
C1166  C1197   1.504   .     S
H1167  C1055   1.088   1_655 S
N1169  Zn1179  2.027   .     S
N1170  Zn1180  2.027   .     S
O1171  Zn1179  1.975   .     S
O1172  Zn1180  1.975   .     S
O1173  Zn1180  1.984   .     S
O1174  Zn1179  1.984   .     S
O1175  Zn1179  1.962   .     S
O1176  Zn1180  1.962   .     S
O1177  Zn1180  1.979   .     S
O1178  Zn1179  1.979   .     S
C1183  H1184   1.111   .     S
C1183  H1186   1.110   .     S
C1183  H1185   1.110   .     S
C1187  H1188   1.111   .     S
C1187  H1189   1.110   .     S
C1187  H1190   1.110   .     S
C1193  H1194   1.101   .     S
C1193  H1195   1.110   .     S
C1193  H1196   1.108   .     S
C1197  H1199   1.108   .     S
C1197  H1198   1.101   .     S
C1197  H1200   1.110   .     S
C1201  O1221   1.284   .     A
C1201  O1223   1.285   .     A
C1201  C1212   1.405   .     S
C1202  O1222   1.284   .     A
C1202  C1211   1.405   .     S
C1202  O1224   1.285   .     A
C1203  O1227   1.289   .     A
C1203  O1225   1.282   .     A
C1203  C1205   1.403   .     S
C1204  O1226   1.282   .     A
C1204  O1228   1.289   .     A
C1204  C1206   1.403   .     S
C1205  C1306   1.334   1_455 S
C1205  H1317   1.088   1_455 S
C1206  C1255   1.334   .     S
C1206  H1268   1.088   .     S
C1207  C1212   1.395   .     A
C1207  F1231   1.361   .     S
C1208  C1211   1.395   .     A
C1208  F1232   1.361   .     S
C1208  C910    1.382   1_565 S
C1209  C1211   1.404   .     A
C1209  C1233   1.513   .     S
C1209  C907    1.382   1_565 S
C1210  C1212   1.404   .     A
C1210  C1237   1.513   .     S
C1213  F1241   1.357   .     S
C1213  N1220   1.358   .     A
C1214  F1242   1.357   .     S
C1214  N1219   1.358   .     A
C1214  C316    1.425   1_556 S
C1215  C1243   1.504   .     S
C1215  N1219   1.385   .     A
C1215  C313    1.425   1_556 S
C1216  N1220   1.385   .     A
C1216  C1247   1.504   .     S
H1217  C1255   1.088   .     S
H1218  C1306   1.088   1_455 S
N1219  Zn1229  2.027   .     S
N1220  Zn1230  2.027   .     S
O1221  Zn1229  1.975   .     S
O1222  Zn1230  1.975   .     S
O1223  Zn1230  1.984   .     S
O1224  Zn1229  1.984   .     S
O1225  Zn1229  1.962   .     S
O1226  Zn1230  1.962   .     S
O1227  Zn1230  1.979   .     S
O1228  Zn1229  1.979   .     S
C1233  H1234   1.111   .     S
C1233  H1236   1.110   .     S
C1233  H1235   1.110   .     S
C1237  H1238   1.111   .     S
C1237  H1239   1.110   .     S
C1237  H1240   1.110   .     S
C1243  H1244   1.101   .     S
C1243  H1245   1.110   .     S
C1243  H1246   1.108   .     S
C1247  H1249   1.108   .     S
C1247  H1248   1.101   .     S
C1247  H1250   1.110   .     S
C1251  O1271   1.284   .     A
C1251  O1273   1.285   .     A
C1251  C1262   1.405   .     S
C1252  O1272   1.284   .     A
C1252  C1261   1.405   .     S
C1252  O1274   1.285   .     A
C1253  O1277   1.289   .     A
C1253  O1275   1.282   .     A
C1253  C1255   1.403   .     S
C1254  O1276   1.282   .     A
C1254  O1278   1.289   .     A
C1254  C1256   1.403   .     S
C1256  C1305   1.334   .     S
C1256  H1318   1.088   .     S
C1257  C1262   1.395   .     A
C1257  F1281   1.361   .     S
C1258  C1261   1.395   .     A
C1258  F1282   1.361   .     S
C1258  C960    1.382   1_565 S
C1259  C1261   1.404   .     A
C1259  C1283   1.513   .     S
C1259  C957    1.382   1_565 S
C1260  C1262   1.404   .     A
C1260  C1287   1.513   .     S
C1263  F1291   1.357   .     S
C1263  N1270   1.358   .     A
C1264  F1292   1.357   .     S
C1264  N1269   1.358   .     A
C1264  C366    1.425   1_556 S
C1265  C1293   1.504   .     S
C1265  N1269   1.385   .     A
C1265  C363    1.425   1_556 S
C1266  N1270   1.385   .     A
C1266  C1297   1.504   .     S
H1267  C1305   1.088   .     S
N1269  Zn1279  2.027   .     S
N1270  Zn1280  2.027   .     S
O1271  Zn1279  1.975   .     S
O1272  Zn1280  1.975   .     S
O1273  Zn1280  1.984   .     S
O1274  Zn1279  1.984   .     S
O1275  Zn1279  1.962   .     S
O1276  Zn1280  1.962   .     S
O1277  Zn1280  1.979   .     S
O1278  Zn1279  1.979   .     S
C1283  H1284   1.111   .     S
C1283  H1286   1.110   .     S
C1283  H1285   1.110   .     S
C1287  H1288   1.111   .     S
C1287  H1289   1.110   .     S
C1287  H1290   1.110   .     S
C1293  H1294   1.101   .     S
C1293  H1295   1.110   .     S
C1293  H1296   1.108   .     S
C1297  H1299   1.108   .     S
C1297  H1298   1.101   .     S
C1297  H1300   1.110   .     S
C1301  O1321   1.284   .     A
C1301  O1323   1.285   .     A
C1301  C1312   1.405   .     S
C1302  O1322   1.284   .     A
C1302  C1311   1.405   .     S
C1302  O1324   1.285   .     A
C1303  O1327   1.289   .     A
C1303  O1325   1.282   .     A
C1303  C1305   1.403   .     S
C1304  O1326   1.282   .     A
C1304  O1328   1.289   .     A
C1304  C1306   1.403   .     S
C1306  C1205   1.334   1_655 S
C1306  H1218   1.088   1_655 S
C1307  C1312   1.395   .     A
C1307  F1331   1.361   .     S
C1308  C1311   1.395   .     A
C1308  F1332   1.361   .     S
C1308  C1010   1.382   1_565 S
C1309  C1311   1.404   .     A
C1309  C1333   1.513   .     S
C1309  C1007   1.382   1_565 S
C1310  C1312   1.404   .     A
C1310  C1337   1.513   .     S
C1313  F1341   1.357   .     S
C1313  N1320   1.358   .     A
C1314  F1342   1.357   .     S
C1314  N1319   1.358   .     A
C1314  C416    1.425   1_556 S
C1315  C1343   1.504   .     S
C1315  N1319   1.385   .     A
C1315  C413    1.425   1_556 S
C1316  N1320   1.385   .     A
C1316  C1347   1.504   .     S
H1317  C1205   1.088   1_655 S
N1319  Zn1329  2.027   .     S
N1320  Zn1330  2.027   .     S
O1321  Zn1329  1.975   .     S
O1322  Zn1330  1.975   .     S
O1323  Zn1330  1.984   .     S
O1324  Zn1329  1.984   .     S
O1325  Zn1329  1.962   .     S
O1326  Zn1330  1.962   .     S
O1327  Zn1330  1.979   .     S
O1328  Zn1329  1.979   .     S
C1333  H1334   1.111   .     S
C1333  H1336   1.110   .     S
C1333  H1335   1.110   .     S
C1337  H1338   1.111   .     S
C1337  H1339   1.110   .     S
C1337  H1340   1.110   .     S
C1343  H1344   1.101   .     S
C1343  H1345   1.110   .     S
C1343  H1346   1.108   .     S
C1347  H1349   1.108   .     S
C1347  H1348   1.101   .     S
C1347  H1350   1.110   .     S
