data_str_m3_o10_o18_pcu_sym.101
_audit_creation_date              2020-01-03
_audit_creation_method            'Materials Studio'
_symmetry_space_group_name_H-M    'P1'
_symmetry_Int_Tables_number       1
_symmetry_cell_setting            triclinic
loop_
_symmetry_equiv_pos_as_xyz
  x,y,z
_cell_length_a                    24.1009
_cell_length_b                    25.5592
_cell_length_c                    26.9188
_cell_angle_alpha                 97.0497
_cell_angle_beta                  91.3800
_cell_angle_gamma                 93.7092
loop_
_atom_site_label
_atom_site_type_symbol
_atom_site_fract_x
_atom_site_fract_y
_atom_site_fract_z
_atom_site_U_iso_or_equiv
_atom_site_adp_type
_atom_site_occupancy
C1     C     0.01469   0.26465   0.24935   0.00000  Uiso   1.00
C2     C     0.31307   0.16132   0.15795   0.00000  Uiso   1.00
C3     C     0.02995   0.18029   0.39708   0.00000  Uiso   1.00
C4     C     0.30352   0.15515   0.10275   0.00000  Uiso   1.00
C5     C     0.02339   0.22827   0.48021   0.00000  Uiso   1.00
C6     C     0.31156   0.11102   0.01823   0.00000  Uiso   1.00
C7     C     0.00190   0.21574   0.43118   0.00000  Uiso   1.00
C8     C     0.33275   0.12205   0.06744   0.00000  Uiso   1.00
C9     C     0.07637   0.15696   0.41445   0.00000  Uiso   1.00
C10    C     0.25650   0.17834   0.08614   0.00000  Uiso   1.00
C11    C     0.10179   0.17424   0.46158   0.00000  Uiso   1.00
C12    C     0.31866   0.06870   0.25079   0.00000  Uiso   1.00
C13    C     0.23214   0.16331   0.03818   0.00000  Uiso   1.00
C14    C     0.07361   0.20961   0.49491   0.00000  Uiso   1.00
C15    C     0.26101   0.12932   0.00409   0.00000  Uiso   1.00
C16    C     0.15528   0.15917   0.47565   0.00000  Uiso   1.00
C17    C     0.17891   0.17896   0.02395   0.00000  Uiso   1.00
C18    C     0.14802   0.21283   0.05663   0.00000  Uiso   1.00
C19    C     0.18671   0.12645   0.44243   0.00000  Uiso   1.00
C20    C     0.09643   0.22763   0.04227   0.00000  Uiso   1.00
C21    C     0.23862   0.11226   0.45641   0.00000  Uiso   1.00
C22    C     0.02240   0.31957   0.25159   0.00000  Uiso   1.00
C23    C     0.31093   0.01383   0.24902   0.00000  Uiso   1.00
C24    C     0.02027   0.17232   0.34199   0.00000  Uiso   1.00
H25    H     0.07463   0.25427   0.06828   0.00000  Uiso   1.00
H26    H     0.26862   0.32955   0.24417   0.00000  Uiso   1.00
H27    H     0.00438   0.05074   0.13578   0.00000  Uiso   1.00
H28    H     0.33311   0.28298   0.36069   0.00000  Uiso   1.00
H29    H     0.11860   0.01783   0.17675   0.00000  Uiso   1.00
H30    H     0.11823   0.28940   0.33262   0.00000  Uiso   1.00
H31    H     0.26104   0.08684   0.42980   0.00000  Uiso   1.00
H32    H     0.23773   0.20578   0.11304   0.00000  Uiso   1.00
H33    H     0.09362   0.12718   0.38875   0.00000  Uiso   1.00
H34    H     0.00285   0.25561   0.00649   0.00000  Uiso   1.00
H35    H     0.33266   0.08495   0.49121   0.00000  Uiso   1.00
H36    H     0.16221   0.22932   0.09376   0.00000  Uiso   1.00
H37    H     0.17319   0.11141   0.40473   0.00000  Uiso   1.00
H38    H     0.06469   0.00388   0.25664   0.00000  Uiso   1.00
N39    N     0.14695   0.15216   0.23740   0.00000  Uiso   1.00
N40    N     0.18638   0.18117   0.26261   0.00000  Uiso   1.00
O41    O     0.29719   0.24631   0.25310   0.00000  Uiso   1.00
O42    O     0.09967   0.12093   0.11444   0.00000  Uiso   1.00
O43    O     0.03211   0.03581   0.11247   0.00000  Uiso   1.00
O44    O     0.23413   0.21495   0.38585   0.00000  Uiso   1.00
O45    O     0.25338   0.27826   0.46040   0.00000  Uiso   1.00
O46    O     0.30201   0.29806   0.37969   0.00000  Uiso   1.00
O47    O     0.20730   0.08469   0.18099   0.00000  Uiso   1.00
O48    O     0.17450   0.06007   0.26191   0.00000  Uiso   1.00
O49    O     0.10625   0.05378   0.18656   0.00000  Uiso   1.00
O50    O     0.22247   0.27531   0.30918   0.00000  Uiso   1.00
O51    O     0.15908   0.27316   0.23761   0.00000  Uiso   1.00
O52    O     0.03614   0.08702   0.24690   0.00000  Uiso   1.00
O53    O     0.12163   0.25097   0.32385   0.00000  Uiso   1.00
O54    O     0.05822   0.23702   0.24501   0.00000  Uiso   1.00
O55    O     0.27512   0.09632   0.25499   0.00000  Uiso   1.00
O56    O     0.30328   0.17397   0.32247   0.00000  Uiso   1.00
O57    O     0.03005   0.15937   0.17753   0.00000  Uiso   1.00
O58    O     0.06431   0.16467   0.31439   0.00000  Uiso   1.00
O59    O     0.26902   0.16866   0.18561   0.00000  Uiso   1.00
O60    O     0.08344   0.06345   0.03580   0.00000  Uiso   1.00
S61    S     0.05648   0.08624   0.08266   0.00000  Uiso   1.00
S62    S     0.27853   0.25127   0.41434   0.00000  Uiso   1.00
S63    S     0.16099   0.08743   0.21721   0.00000  Uiso   1.00
S64    S     0.17258   0.24609   0.28249   0.00000  Uiso   1.00
Zn65   Zn    0.27033   0.17287   0.25540   0.00000  Uiso   1.00
Zn66   Zn    0.06300   0.16046   0.24460   0.00000  Uiso   1.00
C67    C     0.34802   0.26465   0.24935   0.00000  Uiso   1.00
C68    C     0.64641   0.16132   0.15795   0.00000  Uiso   1.00
C69    C     0.36328   0.18029   0.39708   0.00000  Uiso   1.00
C70    C     0.63685   0.15515   0.10275   0.00000  Uiso   1.00
C71    C     0.35673   0.22827   0.48021   0.00000  Uiso   1.00
C72    C     0.64489   0.11102   0.01823   0.00000  Uiso   1.00
C73    C     0.33523   0.21574   0.43118   0.00000  Uiso   1.00
C74    C     0.66608   0.12205   0.06744   0.00000  Uiso   1.00
C75    C     0.40971   0.15696   0.41445   0.00000  Uiso   1.00
C76    C     0.58984   0.17834   0.08614   0.00000  Uiso   1.00
C77    C     0.43513   0.17424   0.46158   0.00000  Uiso   1.00
C78    C     0.65199   0.06870   0.25079   0.00000  Uiso   1.00
C79    C     0.56548   0.16331   0.03818   0.00000  Uiso   1.00
C80    C     0.40695   0.20961   0.49491   0.00000  Uiso   1.00
C81    C     0.59434   0.12932   0.00409   0.00000  Uiso   1.00
C82    C     0.48861   0.15917   0.47565   0.00000  Uiso   1.00
C83    C     0.51224   0.17896   0.02395   0.00000  Uiso   1.00
C84    C     0.48135   0.21283   0.05663   0.00000  Uiso   1.00
C85    C     0.52004   0.12645   0.44243   0.00000  Uiso   1.00
C86    C     0.42976   0.22763   0.04227   0.00000  Uiso   1.00
C87    C     0.57195   0.11226   0.45641   0.00000  Uiso   1.00
C88    C     0.35574   0.31957   0.25159   0.00000  Uiso   1.00
C89    C     0.64427   0.01383   0.24902   0.00000  Uiso   1.00
C90    C     0.35361   0.17232   0.34199   0.00000  Uiso   1.00
H91    H     0.40797   0.25427   0.06828   0.00000  Uiso   1.00
H92    H     0.60196   0.32955   0.24417   0.00000  Uiso   1.00
H93    H     0.33771   0.05074   0.13578   0.00000  Uiso   1.00
H94    H     0.66645   0.28298   0.36069   0.00000  Uiso   1.00
H95    H     0.45193   0.01783   0.17675   0.00000  Uiso   1.00
H96    H     0.45156   0.28940   0.33262   0.00000  Uiso   1.00
H97    H     0.59437   0.08684   0.42980   0.00000  Uiso   1.00
H98    H     0.57106   0.20578   0.11304   0.00000  Uiso   1.00
H99    H     0.42695   0.12718   0.38875   0.00000  Uiso   1.00
H100   H     0.33618   0.25561   0.00649   0.00000  Uiso   1.00
H101   H     0.66600   0.08495   0.49121   0.00000  Uiso   1.00
H102   H     0.49555   0.22932   0.09376   0.00000  Uiso   1.00
H103   H     0.50652   0.11141   0.40473   0.00000  Uiso   1.00
H104   H     0.39802   0.00388   0.25664   0.00000  Uiso   1.00
N105   N     0.48029   0.15216   0.23740   0.00000  Uiso   1.00
N106   N     0.51971   0.18117   0.26261   0.00000  Uiso   1.00
O107   O     0.63052   0.24631   0.25310   0.00000  Uiso   1.00
O108   O     0.43300   0.12093   0.11444   0.00000  Uiso   1.00
O109   O     0.36544   0.03581   0.11247   0.00000  Uiso   1.00
O110   O     0.56746   0.21495   0.38585   0.00000  Uiso   1.00
O111   O     0.58672   0.27826   0.46040   0.00000  Uiso   1.00
O112   O     0.63534   0.29806   0.37969   0.00000  Uiso   1.00
O113   O     0.54063   0.08469   0.18099   0.00000  Uiso   1.00
O114   O     0.50784   0.06007   0.26191   0.00000  Uiso   1.00
O115   O     0.43959   0.05378   0.18656   0.00000  Uiso   1.00
O116   O     0.55581   0.27531   0.30918   0.00000  Uiso   1.00
O117   O     0.49242   0.27316   0.23761   0.00000  Uiso   1.00
O118   O     0.36948   0.08702   0.24690   0.00000  Uiso   1.00
O119   O     0.45496   0.25097   0.32385   0.00000  Uiso   1.00
O120   O     0.39155   0.23702   0.24501   0.00000  Uiso   1.00
O121   O     0.60845   0.09632   0.25499   0.00000  Uiso   1.00
O122   O     0.63662   0.17397   0.32247   0.00000  Uiso   1.00
O123   O     0.36338   0.15937   0.17753   0.00000  Uiso   1.00
O124   O     0.39764   0.16467   0.31439   0.00000  Uiso   1.00
O125   O     0.60236   0.16866   0.18561   0.00000  Uiso   1.00
O126   O     0.41677   0.06345   0.03580   0.00000  Uiso   1.00
S127   S     0.38981   0.08624   0.08266   0.00000  Uiso   1.00
S128   S     0.61186   0.25127   0.41434   0.00000  Uiso   1.00
S129   S     0.49432   0.08743   0.21721   0.00000  Uiso   1.00
S130   S     0.50591   0.24609   0.28249   0.00000  Uiso   1.00
Zn131  Zn    0.60366   0.17287   0.25540   0.00000  Uiso   1.00
Zn132  Zn    0.39634   0.16046   0.24460   0.00000  Uiso   1.00
C133   C     0.68135   0.26465   0.24935   0.00000  Uiso   1.00
C134   C     0.97974   0.16132   0.15795   0.00000  Uiso   1.00
C135   C     0.69661   0.18029   0.39708   0.00000  Uiso   1.00
C136   C     0.97019   0.15515   0.10275   0.00000  Uiso   1.00
C137   C     0.69006   0.22827   0.48021   0.00000  Uiso   1.00
C138   C     0.97822   0.11102   0.01823   0.00000  Uiso   1.00
C139   C     0.66857   0.21574   0.43118   0.00000  Uiso   1.00
C140   C     0.99941   0.12205   0.06744   0.00000  Uiso   1.00
C141   C     0.74304   0.15696   0.41445   0.00000  Uiso   1.00
C142   C     0.92317   0.17834   0.08614   0.00000  Uiso   1.00
C143   C     0.76846   0.17424   0.46158   0.00000  Uiso   1.00
C144   C     0.98532   0.06870   0.25079   0.00000  Uiso   1.00
C145   C     0.89881   0.16331   0.03818   0.00000  Uiso   1.00
C146   C     0.74028   0.20961   0.49491   0.00000  Uiso   1.00
C147   C     0.92767   0.12932   0.00409   0.00000  Uiso   1.00
C148   C     0.82194   0.15917   0.47565   0.00000  Uiso   1.00
C149   C     0.84557   0.17896   0.02395   0.00000  Uiso   1.00
C150   C     0.81468   0.21283   0.05663   0.00000  Uiso   1.00
C151   C     0.85337   0.12645   0.44243   0.00000  Uiso   1.00
C152   C     0.76310   0.22763   0.04227   0.00000  Uiso   1.00
C153   C     0.90528   0.11226   0.45641   0.00000  Uiso   1.00
C154   C     0.68907   0.31957   0.25159   0.00000  Uiso   1.00
C155   C     0.97760   0.01383   0.24902   0.00000  Uiso   1.00
C156   C     0.68694   0.17232   0.34199   0.00000  Uiso   1.00
H157   H     0.74130   0.25427   0.06828   0.00000  Uiso   1.00
H158   H     0.93529   0.32955   0.24417   0.00000  Uiso   1.00
H159   H     0.67104   0.05074   0.13578   0.00000  Uiso   1.00
H160   H     0.99978   0.28298   0.36069   0.00000  Uiso   1.00
H161   H     0.78526   0.01783   0.17675   0.00000  Uiso   1.00
H162   H     0.78490   0.28940   0.33262   0.00000  Uiso   1.00
H163   H     0.92770   0.08684   0.42980   0.00000  Uiso   1.00
H164   H     0.90439   0.20578   0.11304   0.00000  Uiso   1.00
H165   H     0.76029   0.12718   0.38875   0.00000  Uiso   1.00
H166   H     0.66951   0.25561   0.00649   0.00000  Uiso   1.00
H167   H     0.99933   0.08495   0.49121   0.00000  Uiso   1.00
H168   H     0.82888   0.22932   0.09376   0.00000  Uiso   1.00
H169   H     0.83986   0.11141   0.40473   0.00000  Uiso   1.00
H170   H     0.73136   0.00388   0.25664   0.00000  Uiso   1.00
N171   N     0.81362   0.15216   0.23740   0.00000  Uiso   1.00
N172   N     0.85305   0.18117   0.26261   0.00000  Uiso   1.00
O173   O     0.96386   0.24631   0.25310   0.00000  Uiso   1.00
O174   O     0.76634   0.12093   0.11444   0.00000  Uiso   1.00
O175   O     0.69878   0.03581   0.11247   0.00000  Uiso   1.00
O176   O     0.90080   0.21495   0.38585   0.00000  Uiso   1.00
O177   O     0.92005   0.27826   0.46040   0.00000  Uiso   1.00
O178   O     0.96868   0.29806   0.37969   0.00000  Uiso   1.00
O179   O     0.87396   0.08469   0.18099   0.00000  Uiso   1.00
O180   O     0.84117   0.06007   0.26191   0.00000  Uiso   1.00
O181   O     0.77292   0.05378   0.18656   0.00000  Uiso   1.00
O182   O     0.88914   0.27531   0.30918   0.00000  Uiso   1.00
O183   O     0.82575   0.27316   0.23761   0.00000  Uiso   1.00
O184   O     0.70281   0.08702   0.24690   0.00000  Uiso   1.00
O185   O     0.78829   0.25097   0.32385   0.00000  Uiso   1.00
O186   O     0.72488   0.23702   0.24501   0.00000  Uiso   1.00
O187   O     0.94178   0.09632   0.25499   0.00000  Uiso   1.00
O188   O     0.96995   0.17397   0.32247   0.00000  Uiso   1.00
O189   O     0.69672   0.15937   0.17753   0.00000  Uiso   1.00
O190   O     0.73098   0.16467   0.31439   0.00000  Uiso   1.00
O191   O     0.93569   0.16866   0.18561   0.00000  Uiso   1.00
O192   O     0.75010   0.06345   0.03580   0.00000  Uiso   1.00
S193   S     0.72315   0.08624   0.08266   0.00000  Uiso   1.00
S194   S     0.94519   0.25127   0.41434   0.00000  Uiso   1.00
S195   S     0.82766   0.08743   0.21721   0.00000  Uiso   1.00
S196   S     0.83925   0.24609   0.28249   0.00000  Uiso   1.00
Zn197  Zn    0.93700   0.17287   0.25540   0.00000  Uiso   1.00
Zn198  Zn    0.72967   0.16046   0.24460   0.00000  Uiso   1.00
C199   C     0.01469   0.59798   0.24935   0.00000  Uiso   1.00
C200   C     0.31307   0.49465   0.15795   0.00000  Uiso   1.00
C201   C     0.02995   0.51362   0.39708   0.00000  Uiso   1.00
C202   C     0.30352   0.48848   0.10275   0.00000  Uiso   1.00
C203   C     0.02339   0.56160   0.48021   0.00000  Uiso   1.00
C204   C     0.31156   0.44435   0.01823   0.00000  Uiso   1.00
C205   C     0.00190   0.54907   0.43118   0.00000  Uiso   1.00
C206   C     0.33275   0.45538   0.06744   0.00000  Uiso   1.00
C207   C     0.07637   0.49029   0.41445   0.00000  Uiso   1.00
C208   C     0.25650   0.51167   0.08614   0.00000  Uiso   1.00
C209   C     0.10179   0.50757   0.46158   0.00000  Uiso   1.00
C210   C     0.31866   0.40204   0.25079   0.00000  Uiso   1.00
C211   C     0.23214   0.49665   0.03818   0.00000  Uiso   1.00
C212   C     0.07361   0.54295   0.49491   0.00000  Uiso   1.00
C213   C     0.26101   0.46266   0.00409   0.00000  Uiso   1.00
C214   C     0.15528   0.49251   0.47565   0.00000  Uiso   1.00
C215   C     0.17891   0.51229   0.02395   0.00000  Uiso   1.00
C216   C     0.14802   0.54617   0.05663   0.00000  Uiso   1.00
C217   C     0.18671   0.45979   0.44243   0.00000  Uiso   1.00
C218   C     0.09643   0.56096   0.04227   0.00000  Uiso   1.00
C219   C     0.23862   0.44560   0.45641   0.00000  Uiso   1.00
C220   C     0.02240   0.65291   0.25159   0.00000  Uiso   1.00
C221   C     0.31093   0.34716   0.24902   0.00000  Uiso   1.00
C222   C     0.02027   0.50565   0.34199   0.00000  Uiso   1.00
H223   H     0.07463   0.58760   0.06828   0.00000  Uiso   1.00
H224   H     0.26862   0.66288   0.24417   0.00000  Uiso   1.00
H225   H     0.00438   0.38407   0.13578   0.00000  Uiso   1.00
H226   H     0.33311   0.61631   0.36069   0.00000  Uiso   1.00
H227   H     0.11860   0.35116   0.17675   0.00000  Uiso   1.00
H228   H     0.11823   0.62273   0.33262   0.00000  Uiso   1.00
H229   H     0.26104   0.42018   0.42980   0.00000  Uiso   1.00
H230   H     0.23773   0.53912   0.11304   0.00000  Uiso   1.00
H231   H     0.09362   0.46052   0.38875   0.00000  Uiso   1.00
H232   H     0.00285   0.58894   0.00649   0.00000  Uiso   1.00
H233   H     0.33266   0.41828   0.49121   0.00000  Uiso   1.00
H234   H     0.16221   0.56265   0.09376   0.00000  Uiso   1.00
H235   H     0.17319   0.44475   0.40473   0.00000  Uiso   1.00
H236   H     0.06469   0.33722   0.25664   0.00000  Uiso   1.00
N237   N     0.14695   0.48550   0.23740   0.00000  Uiso   1.00
N238   N     0.18638   0.51450   0.26261   0.00000  Uiso   1.00
O239   O     0.29719   0.57964   0.25310   0.00000  Uiso   1.00
O240   O     0.09967   0.45426   0.11444   0.00000  Uiso   1.00
O241   O     0.03211   0.36915   0.11247   0.00000  Uiso   1.00
O242   O     0.23413   0.54828   0.38585   0.00000  Uiso   1.00
O243   O     0.25338   0.61160   0.46040   0.00000  Uiso   1.00
O244   O     0.30201   0.63139   0.37969   0.00000  Uiso   1.00
O245   O     0.20730   0.41802   0.18099   0.00000  Uiso   1.00
O246   O     0.17450   0.39340   0.26191   0.00000  Uiso   1.00
O247   O     0.10625   0.38711   0.18656   0.00000  Uiso   1.00
O248   O     0.22247   0.60865   0.30918   0.00000  Uiso   1.00
O249   O     0.15908   0.60649   0.23761   0.00000  Uiso   1.00
O250   O     0.03614   0.42036   0.24690   0.00000  Uiso   1.00
O251   O     0.12163   0.58430   0.32385   0.00000  Uiso   1.00
O252   O     0.05822   0.57035   0.24501   0.00000  Uiso   1.00
O253   O     0.27512   0.42965   0.25499   0.00000  Uiso   1.00
O254   O     0.30328   0.50730   0.32247   0.00000  Uiso   1.00
O255   O     0.03005   0.49270   0.17753   0.00000  Uiso   1.00
O256   O     0.06431   0.49801   0.31439   0.00000  Uiso   1.00
O257   O     0.26902   0.50199   0.18561   0.00000  Uiso   1.00
O258   O     0.08344   0.39678   0.03580   0.00000  Uiso   1.00
S259   S     0.05648   0.41958   0.08266   0.00000  Uiso   1.00
S260   S     0.27853   0.58461   0.41434   0.00000  Uiso   1.00
S261   S     0.16099   0.42077   0.21721   0.00000  Uiso   1.00
S262   S     0.17258   0.57943   0.28249   0.00000  Uiso   1.00
Zn263  Zn    0.27033   0.50621   0.25540   0.00000  Uiso   1.00
Zn264  Zn    0.06300   0.49379   0.24460   0.00000  Uiso   1.00
C265   C     0.34802   0.59798   0.24935   0.00000  Uiso   1.00
C266   C     0.64641   0.49465   0.15795   0.00000  Uiso   1.00
C267   C     0.36328   0.51362   0.39708   0.00000  Uiso   1.00
C268   C     0.63685   0.48848   0.10275   0.00000  Uiso   1.00
C269   C     0.35673   0.56160   0.48021   0.00000  Uiso   1.00
C270   C     0.64489   0.44435   0.01823   0.00000  Uiso   1.00
C271   C     0.33523   0.54907   0.43118   0.00000  Uiso   1.00
C272   C     0.66608   0.45538   0.06744   0.00000  Uiso   1.00
C273   C     0.40971   0.49029   0.41445   0.00000  Uiso   1.00
C274   C     0.58984   0.51167   0.08614   0.00000  Uiso   1.00
C275   C     0.43513   0.50757   0.46158   0.00000  Uiso   1.00
C276   C     0.65199   0.40204   0.25079   0.00000  Uiso   1.00
C277   C     0.56548   0.49665   0.03818   0.00000  Uiso   1.00
C278   C     0.40695   0.54295   0.49491   0.00000  Uiso   1.00
C279   C     0.59434   0.46266   0.00409   0.00000  Uiso   1.00
C280   C     0.48861   0.49251   0.47565   0.00000  Uiso   1.00
C281   C     0.51224   0.51229   0.02395   0.00000  Uiso   1.00
C282   C     0.48135   0.54617   0.05663   0.00000  Uiso   1.00
C283   C     0.52004   0.45979   0.44243   0.00000  Uiso   1.00
C284   C     0.42976   0.56096   0.04227   0.00000  Uiso   1.00
C285   C     0.57195   0.44560   0.45641   0.00000  Uiso   1.00
C286   C     0.35574   0.65291   0.25159   0.00000  Uiso   1.00
C287   C     0.64427   0.34716   0.24902   0.00000  Uiso   1.00
C288   C     0.35361   0.50565   0.34199   0.00000  Uiso   1.00
H289   H     0.40797   0.58760   0.06828   0.00000  Uiso   1.00
H290   H     0.60196   0.66288   0.24417   0.00000  Uiso   1.00
H291   H     0.33771   0.38407   0.13578   0.00000  Uiso   1.00
H292   H     0.66645   0.61631   0.36069   0.00000  Uiso   1.00
H293   H     0.45193   0.35116   0.17675   0.00000  Uiso   1.00
H294   H     0.45156   0.62273   0.33262   0.00000  Uiso   1.00
H295   H     0.59437   0.42018   0.42980   0.00000  Uiso   1.00
H296   H     0.57106   0.53912   0.11304   0.00000  Uiso   1.00
H297   H     0.42695   0.46052   0.38875   0.00000  Uiso   1.00
H298   H     0.33618   0.58894   0.00649   0.00000  Uiso   1.00
H299   H     0.66600   0.41828   0.49121   0.00000  Uiso   1.00
H300   H     0.49555   0.56265   0.09376   0.00000  Uiso   1.00
H301   H     0.50652   0.44475   0.40473   0.00000  Uiso   1.00
H302   H     0.39802   0.33722   0.25664   0.00000  Uiso   1.00
N303   N     0.48029   0.48550   0.23740   0.00000  Uiso   1.00
N304   N     0.51971   0.51450   0.26261   0.00000  Uiso   1.00
O305   O     0.63052   0.57964   0.25310   0.00000  Uiso   1.00
O306   O     0.43300   0.45426   0.11444   0.00000  Uiso   1.00
O307   O     0.36544   0.36915   0.11247   0.00000  Uiso   1.00
O308   O     0.56746   0.54828   0.38585   0.00000  Uiso   1.00
O309   O     0.58672   0.61160   0.46040   0.00000  Uiso   1.00
O310   O     0.63534   0.63139   0.37969   0.00000  Uiso   1.00
O311   O     0.54063   0.41802   0.18099   0.00000  Uiso   1.00
O312   O     0.50784   0.39340   0.26191   0.00000  Uiso   1.00
O313   O     0.43959   0.38711   0.18656   0.00000  Uiso   1.00
O314   O     0.55581   0.60865   0.30918   0.00000  Uiso   1.00
O315   O     0.49242   0.60649   0.23761   0.00000  Uiso   1.00
O316   O     0.36948   0.42036   0.24690   0.00000  Uiso   1.00
O317   O     0.45496   0.58430   0.32385   0.00000  Uiso   1.00
O318   O     0.39155   0.57035   0.24501   0.00000  Uiso   1.00
O319   O     0.60845   0.42965   0.25499   0.00000  Uiso   1.00
O320   O     0.63662   0.50730   0.32247   0.00000  Uiso   1.00
O321   O     0.36338   0.49270   0.17753   0.00000  Uiso   1.00
O322   O     0.39764   0.49801   0.31439   0.00000  Uiso   1.00
O323   O     0.60236   0.50199   0.18561   0.00000  Uiso   1.00
O324   O     0.41677   0.39678   0.03580   0.00000  Uiso   1.00
S325   S     0.38981   0.41958   0.08266   0.00000  Uiso   1.00
S326   S     0.61186   0.58461   0.41434   0.00000  Uiso   1.00
S327   S     0.49432   0.42077   0.21721   0.00000  Uiso   1.00
S328   S     0.50591   0.57943   0.28249   0.00000  Uiso   1.00
Zn329  Zn    0.60366   0.50621   0.25540   0.00000  Uiso   1.00
Zn330  Zn    0.39634   0.49379   0.24460   0.00000  Uiso   1.00
C331   C     0.68135   0.59798   0.24935   0.00000  Uiso   1.00
C332   C     0.97974   0.49465   0.15795   0.00000  Uiso   1.00
C333   C     0.69661   0.51362   0.39708   0.00000  Uiso   1.00
C334   C     0.97019   0.48848   0.10275   0.00000  Uiso   1.00
C335   C     0.69006   0.56160   0.48021   0.00000  Uiso   1.00
C336   C     0.97822   0.44435   0.01823   0.00000  Uiso   1.00
C337   C     0.66857   0.54907   0.43118   0.00000  Uiso   1.00
C338   C     0.99941   0.45538   0.06744   0.00000  Uiso   1.00
C339   C     0.74304   0.49029   0.41445   0.00000  Uiso   1.00
C340   C     0.92317   0.51167   0.08614   0.00000  Uiso   1.00
C341   C     0.76846   0.50757   0.46158   0.00000  Uiso   1.00
C342   C     0.98532   0.40204   0.25079   0.00000  Uiso   1.00
C343   C     0.89881   0.49665   0.03818   0.00000  Uiso   1.00
C344   C     0.74028   0.54295   0.49491   0.00000  Uiso   1.00
C345   C     0.92767   0.46266   0.00409   0.00000  Uiso   1.00
C346   C     0.82194   0.49251   0.47565   0.00000  Uiso   1.00
C347   C     0.84557   0.51229   0.02395   0.00000  Uiso   1.00
C348   C     0.81468   0.54617   0.05663   0.00000  Uiso   1.00
C349   C     0.85337   0.45979   0.44243   0.00000  Uiso   1.00
C350   C     0.76310   0.56096   0.04227   0.00000  Uiso   1.00
C351   C     0.90528   0.44560   0.45641   0.00000  Uiso   1.00
C352   C     0.68907   0.65291   0.25159   0.00000  Uiso   1.00
C353   C     0.97760   0.34716   0.24902   0.00000  Uiso   1.00
C354   C     0.68694   0.50565   0.34199   0.00000  Uiso   1.00
H355   H     0.74130   0.58760   0.06828   0.00000  Uiso   1.00
H356   H     0.93529   0.66288   0.24417   0.00000  Uiso   1.00
H357   H     0.67104   0.38407   0.13578   0.00000  Uiso   1.00
H358   H     0.99978   0.61631   0.36069   0.00000  Uiso   1.00
H359   H     0.78526   0.35116   0.17675   0.00000  Uiso   1.00
H360   H     0.78490   0.62273   0.33262   0.00000  Uiso   1.00
H361   H     0.92770   0.42018   0.42980   0.00000  Uiso   1.00
H362   H     0.90439   0.53912   0.11304   0.00000  Uiso   1.00
H363   H     0.76029   0.46052   0.38875   0.00000  Uiso   1.00
H364   H     0.66951   0.58894   0.00649   0.00000  Uiso   1.00
H365   H     0.99933   0.41828   0.49121   0.00000  Uiso   1.00
H366   H     0.82888   0.56265   0.09376   0.00000  Uiso   1.00
H367   H     0.83986   0.44475   0.40473   0.00000  Uiso   1.00
H368   H     0.73136   0.33722   0.25664   0.00000  Uiso   1.00
N369   N     0.81362   0.48550   0.23740   0.00000  Uiso   1.00
N370   N     0.85305   0.51450   0.26261   0.00000  Uiso   1.00
O371   O     0.96386   0.57964   0.25310   0.00000  Uiso   1.00
O372   O     0.76634   0.45426   0.11444   0.00000  Uiso   1.00
O373   O     0.69878   0.36915   0.11247   0.00000  Uiso   1.00
O374   O     0.90080   0.54828   0.38585   0.00000  Uiso   1.00
O375   O     0.92005   0.61160   0.46040   0.00000  Uiso   1.00
O376   O     0.96868   0.63139   0.37969   0.00000  Uiso   1.00
O377   O     0.87396   0.41802   0.18099   0.00000  Uiso   1.00
O378   O     0.84117   0.39340   0.26191   0.00000  Uiso   1.00
O379   O     0.77292   0.38711   0.18656   0.00000  Uiso   1.00
O380   O     0.88914   0.60865   0.30918   0.00000  Uiso   1.00
O381   O     0.82575   0.60649   0.23761   0.00000  Uiso   1.00
O382   O     0.70281   0.42036   0.24690   0.00000  Uiso   1.00
O383   O     0.78829   0.58430   0.32385   0.00000  Uiso   1.00
O384   O     0.72488   0.57035   0.24501   0.00000  Uiso   1.00
O385   O     0.94178   0.42965   0.25499   0.00000  Uiso   1.00
O386   O     0.96995   0.50730   0.32247   0.00000  Uiso   1.00
O387   O     0.69672   0.49270   0.17753   0.00000  Uiso   1.00
O388   O     0.73098   0.49801   0.31439   0.00000  Uiso   1.00
O389   O     0.93569   0.50199   0.18561   0.00000  Uiso   1.00
O390   O     0.75010   0.39678   0.03580   0.00000  Uiso   1.00
S391   S     0.72315   0.41958   0.08266   0.00000  Uiso   1.00
S392   S     0.94519   0.58461   0.41434   0.00000  Uiso   1.00
S393   S     0.82766   0.42077   0.21721   0.00000  Uiso   1.00
S394   S     0.83925   0.57943   0.28249   0.00000  Uiso   1.00
Zn395  Zn    0.93700   0.50621   0.25540   0.00000  Uiso   1.00
Zn396  Zn    0.72967   0.49379   0.24460   0.00000  Uiso   1.00
C397   C     0.01469   0.93131   0.24935   0.00000  Uiso   1.00
C398   C     0.31307   0.82799   0.15795   0.00000  Uiso   1.00
C399   C     0.02995   0.84696   0.39708   0.00000  Uiso   1.00
C400   C     0.30352   0.82182   0.10275   0.00000  Uiso   1.00
C401   C     0.02339   0.89494   0.48021   0.00000  Uiso   1.00
C402   C     0.31156   0.77769   0.01823   0.00000  Uiso   1.00
C403   C     0.00190   0.88240   0.43118   0.00000  Uiso   1.00
C404   C     0.33275   0.78871   0.06744   0.00000  Uiso   1.00
C405   C     0.07637   0.82362   0.41445   0.00000  Uiso   1.00
C406   C     0.25650   0.84500   0.08614   0.00000  Uiso   1.00
C407   C     0.10179   0.84090   0.46158   0.00000  Uiso   1.00
C408   C     0.31866   0.73537   0.25079   0.00000  Uiso   1.00
C409   C     0.23214   0.82998   0.03818   0.00000  Uiso   1.00
C410   C     0.07361   0.87628   0.49491   0.00000  Uiso   1.00
C411   C     0.26101   0.79599   0.00409   0.00000  Uiso   1.00
C412   C     0.15528   0.82584   0.47565   0.00000  Uiso   1.00
C413   C     0.17891   0.84563   0.02395   0.00000  Uiso   1.00
C414   C     0.14802   0.87950   0.05663   0.00000  Uiso   1.00
C415   C     0.18671   0.79312   0.44243   0.00000  Uiso   1.00
C416   C     0.09643   0.89429   0.04227   0.00000  Uiso   1.00
C417   C     0.23862   0.77893   0.45641   0.00000  Uiso   1.00
C418   C     0.02240   0.98624   0.25159   0.00000  Uiso   1.00
C419   C     0.31093   0.68050   0.24902   0.00000  Uiso   1.00
C420   C     0.02027   0.83898   0.34199   0.00000  Uiso   1.00
H421   H     0.07463   0.92093   0.06828   0.00000  Uiso   1.00
H422   H     0.26862   0.99622   0.24417   0.00000  Uiso   1.00
H423   H     0.00438   0.71741   0.13578   0.00000  Uiso   1.00
H424   H     0.33311   0.94964   0.36069   0.00000  Uiso   1.00
H425   H     0.11860   0.68449   0.17675   0.00000  Uiso   1.00
H426   H     0.11823   0.95606   0.33262   0.00000  Uiso   1.00
H427   H     0.26104   0.75351   0.42980   0.00000  Uiso   1.00
H428   H     0.23773   0.87245   0.11304   0.00000  Uiso   1.00
H429   H     0.09362   0.79385   0.38875   0.00000  Uiso   1.00
H430   H     0.00285   0.92228   0.00649   0.00000  Uiso   1.00
H431   H     0.33266   0.75162   0.49121   0.00000  Uiso   1.00
H432   H     0.16221   0.89598   0.09376   0.00000  Uiso   1.00
H433   H     0.17319   0.77808   0.40473   0.00000  Uiso   1.00
H434   H     0.06469   0.67055   0.25664   0.00000  Uiso   1.00
N435   N     0.14695   0.81883   0.23740   0.00000  Uiso   1.00
N436   N     0.18638   0.84784   0.26261   0.00000  Uiso   1.00
O437   O     0.29719   0.91298   0.25310   0.00000  Uiso   1.00
O438   O     0.09967   0.78760   0.11444   0.00000  Uiso   1.00
O439   O     0.03211   0.70248   0.11247   0.00000  Uiso   1.00
O440   O     0.23413   0.88162   0.38585   0.00000  Uiso   1.00
O441   O     0.25338   0.94493   0.46040   0.00000  Uiso   1.00
O442   O     0.30201   0.96473   0.37969   0.00000  Uiso   1.00
O443   O     0.20730   0.75135   0.18099   0.00000  Uiso   1.00
O444   O     0.17450   0.72674   0.26191   0.00000  Uiso   1.00
O445   O     0.10625   0.72044   0.18656   0.00000  Uiso   1.00
O446   O     0.22247   0.94198   0.30918   0.00000  Uiso   1.00
O447   O     0.15908   0.93982   0.23761   0.00000  Uiso   1.00
O448   O     0.03614   0.75369   0.24690   0.00000  Uiso   1.00
O449   O     0.12163   0.91763   0.32385   0.00000  Uiso   1.00
O450   O     0.05822   0.90368   0.24501   0.00000  Uiso   1.00
O451   O     0.27512   0.76298   0.25499   0.00000  Uiso   1.00
O452   O     0.30328   0.84063   0.32247   0.00000  Uiso   1.00
O453   O     0.03005   0.82603   0.17753   0.00000  Uiso   1.00
O454   O     0.06431   0.83134   0.31439   0.00000  Uiso   1.00
O455   O     0.26902   0.83533   0.18561   0.00000  Uiso   1.00
O456   O     0.08344   0.73011   0.03580   0.00000  Uiso   1.00
S457   S     0.05648   0.75291   0.08266   0.00000  Uiso   1.00
S458   S     0.27853   0.91794   0.41434   0.00000  Uiso   1.00
S459   S     0.16099   0.75410   0.21721   0.00000  Uiso   1.00
S460   S     0.17258   0.91276   0.28249   0.00000  Uiso   1.00
Zn461  Zn    0.27033   0.83954   0.25540   0.00000  Uiso   1.00
Zn462  Zn    0.06300   0.82713   0.24460   0.00000  Uiso   1.00
C463   C     0.34802   0.93131   0.24935   0.00000  Uiso   1.00
C464   C     0.64641   0.82799   0.15795   0.00000  Uiso   1.00
C465   C     0.36328   0.84696   0.39708   0.00000  Uiso   1.00
C466   C     0.63685   0.82182   0.10275   0.00000  Uiso   1.00
C467   C     0.35673   0.89494   0.48021   0.00000  Uiso   1.00
C468   C     0.64489   0.77769   0.01823   0.00000  Uiso   1.00
C469   C     0.33523   0.88240   0.43118   0.00000  Uiso   1.00
C470   C     0.66608   0.78871   0.06744   0.00000  Uiso   1.00
C471   C     0.40971   0.82362   0.41445   0.00000  Uiso   1.00
C472   C     0.58984   0.84500   0.08614   0.00000  Uiso   1.00
C473   C     0.43513   0.84090   0.46158   0.00000  Uiso   1.00
C474   C     0.65199   0.73537   0.25079   0.00000  Uiso   1.00
C475   C     0.56548   0.82998   0.03818   0.00000  Uiso   1.00
C476   C     0.40695   0.87628   0.49491   0.00000  Uiso   1.00
C477   C     0.59434   0.79599   0.00409   0.00000  Uiso   1.00
C478   C     0.48861   0.82584   0.47565   0.00000  Uiso   1.00
C479   C     0.51224   0.84563   0.02395   0.00000  Uiso   1.00
C480   C     0.48135   0.87950   0.05663   0.00000  Uiso   1.00
C481   C     0.52004   0.79312   0.44243   0.00000  Uiso   1.00
C482   C     0.42976   0.89429   0.04227   0.00000  Uiso   1.00
C483   C     0.57195   0.77893   0.45641   0.00000  Uiso   1.00
C484   C     0.35574   0.98624   0.25159   0.00000  Uiso   1.00
C485   C     0.64427   0.68050   0.24902   0.00000  Uiso   1.00
C486   C     0.35361   0.83898   0.34199   0.00000  Uiso   1.00
H487   H     0.40797   0.92093   0.06828   0.00000  Uiso   1.00
H488   H     0.60196   0.99622   0.24417   0.00000  Uiso   1.00
H489   H     0.33771   0.71741   0.13578   0.00000  Uiso   1.00
H490   H     0.66645   0.94964   0.36069   0.00000  Uiso   1.00
H491   H     0.45193   0.68449   0.17675   0.00000  Uiso   1.00
H492   H     0.45156   0.95606   0.33262   0.00000  Uiso   1.00
H493   H     0.59437   0.75351   0.42980   0.00000  Uiso   1.00
H494   H     0.57106   0.87245   0.11304   0.00000  Uiso   1.00
H495   H     0.42695   0.79385   0.38875   0.00000  Uiso   1.00
H496   H     0.33618   0.92228   0.00649   0.00000  Uiso   1.00
H497   H     0.66600   0.75162   0.49121   0.00000  Uiso   1.00
H498   H     0.49555   0.89598   0.09376   0.00000  Uiso   1.00
H499   H     0.50652   0.77808   0.40473   0.00000  Uiso   1.00
H500   H     0.39802   0.67055   0.25664   0.00000  Uiso   1.00
N501   N     0.48029   0.81883   0.23740   0.00000  Uiso   1.00
N502   N     0.51971   0.84784   0.26261   0.00000  Uiso   1.00
O503   O     0.63052   0.91298   0.25310   0.00000  Uiso   1.00
O504   O     0.43300   0.78760   0.11444   0.00000  Uiso   1.00
O505   O     0.36544   0.70248   0.11247   0.00000  Uiso   1.00
O506   O     0.56746   0.88162   0.38585   0.00000  Uiso   1.00
O507   O     0.58672   0.94493   0.46040   0.00000  Uiso   1.00
O508   O     0.63534   0.96473   0.37969   0.00000  Uiso   1.00
O509   O     0.54063   0.75135   0.18099   0.00000  Uiso   1.00
O510   O     0.50784   0.72674   0.26191   0.00000  Uiso   1.00
O511   O     0.43959   0.72044   0.18656   0.00000  Uiso   1.00
O512   O     0.55581   0.94198   0.30918   0.00000  Uiso   1.00
O513   O     0.49242   0.93982   0.23761   0.00000  Uiso   1.00
O514   O     0.36948   0.75369   0.24690   0.00000  Uiso   1.00
O515   O     0.45496   0.91763   0.32385   0.00000  Uiso   1.00
O516   O     0.39155   0.90368   0.24501   0.00000  Uiso   1.00
O517   O     0.60845   0.76298   0.25499   0.00000  Uiso   1.00
O518   O     0.63662   0.84063   0.32247   0.00000  Uiso   1.00
O519   O     0.36338   0.82603   0.17753   0.00000  Uiso   1.00
O520   O     0.39764   0.83134   0.31439   0.00000  Uiso   1.00
O521   O     0.60236   0.83533   0.18561   0.00000  Uiso   1.00
O522   O     0.41677   0.73011   0.03580   0.00000  Uiso   1.00
S523   S     0.38981   0.75291   0.08266   0.00000  Uiso   1.00
S524   S     0.61186   0.91794   0.41434   0.00000  Uiso   1.00
S525   S     0.49432   0.75410   0.21721   0.00000  Uiso   1.00
S526   S     0.50591   0.91276   0.28249   0.00000  Uiso   1.00
Zn527  Zn    0.60366   0.83954   0.25540   0.00000  Uiso   1.00
Zn528  Zn    0.39634   0.82713   0.24460   0.00000  Uiso   1.00
C529   C     0.68135   0.93131   0.24935   0.00000  Uiso   1.00
C530   C     0.97974   0.82799   0.15795   0.00000  Uiso   1.00
C531   C     0.69661   0.84696   0.39708   0.00000  Uiso   1.00
C532   C     0.97019   0.82182   0.10275   0.00000  Uiso   1.00
C533   C     0.69006   0.89494   0.48021   0.00000  Uiso   1.00
C534   C     0.97822   0.77769   0.01823   0.00000  Uiso   1.00
C535   C     0.66857   0.88240   0.43118   0.00000  Uiso   1.00
C536   C     0.99941   0.78871   0.06744   0.00000  Uiso   1.00
C537   C     0.74304   0.82362   0.41445   0.00000  Uiso   1.00
C538   C     0.92317   0.84500   0.08614   0.00000  Uiso   1.00
C539   C     0.76846   0.84090   0.46158   0.00000  Uiso   1.00
C540   C     0.98532   0.73537   0.25079   0.00000  Uiso   1.00
C541   C     0.89881   0.82998   0.03818   0.00000  Uiso   1.00
C542   C     0.74028   0.87628   0.49491   0.00000  Uiso   1.00
C543   C     0.92767   0.79599   0.00409   0.00000  Uiso   1.00
C544   C     0.82194   0.82584   0.47565   0.00000  Uiso   1.00
C545   C     0.84557   0.84563   0.02395   0.00000  Uiso   1.00
C546   C     0.81468   0.87950   0.05663   0.00000  Uiso   1.00
C547   C     0.85337   0.79312   0.44243   0.00000  Uiso   1.00
C548   C     0.76310   0.89429   0.04227   0.00000  Uiso   1.00
C549   C     0.90528   0.77893   0.45641   0.00000  Uiso   1.00
C550   C     0.68907   0.98624   0.25159   0.00000  Uiso   1.00
C551   C     0.97760   0.68050   0.24902   0.00000  Uiso   1.00
C552   C     0.68694   0.83898   0.34199   0.00000  Uiso   1.00
H553   H     0.74130   0.92093   0.06828   0.00000  Uiso   1.00
H554   H     0.93529   0.99622   0.24417   0.00000  Uiso   1.00
H555   H     0.67104   0.71741   0.13578   0.00000  Uiso   1.00
H556   H     0.99978   0.94964   0.36069   0.00000  Uiso   1.00
H557   H     0.78526   0.68449   0.17675   0.00000  Uiso   1.00
H558   H     0.78490   0.95606   0.33262   0.00000  Uiso   1.00
H559   H     0.92770   0.75351   0.42980   0.00000  Uiso   1.00
H560   H     0.90439   0.87245   0.11304   0.00000  Uiso   1.00
H561   H     0.76029   0.79385   0.38875   0.00000  Uiso   1.00
H562   H     0.66951   0.92228   0.00649   0.00000  Uiso   1.00
H563   H     0.99933   0.75162   0.49121   0.00000  Uiso   1.00
H564   H     0.82888   0.89598   0.09376   0.00000  Uiso   1.00
H565   H     0.83986   0.77808   0.40473   0.00000  Uiso   1.00
H566   H     0.73136   0.67055   0.25664   0.00000  Uiso   1.00
N567   N     0.81362   0.81883   0.23740   0.00000  Uiso   1.00
N568   N     0.85305   0.84784   0.26261   0.00000  Uiso   1.00
O569   O     0.96386   0.91298   0.25310   0.00000  Uiso   1.00
O570   O     0.76634   0.78760   0.11444   0.00000  Uiso   1.00
O571   O     0.69878   0.70248   0.11247   0.00000  Uiso   1.00
O572   O     0.90080   0.88162   0.38585   0.00000  Uiso   1.00
O573   O     0.92005   0.94493   0.46040   0.00000  Uiso   1.00
O574   O     0.96868   0.96473   0.37969   0.00000  Uiso   1.00
O575   O     0.87396   0.75135   0.18099   0.00000  Uiso   1.00
O576   O     0.84117   0.72674   0.26191   0.00000  Uiso   1.00
O577   O     0.77292   0.72044   0.18656   0.00000  Uiso   1.00
O578   O     0.88914   0.94198   0.30918   0.00000  Uiso   1.00
O579   O     0.82575   0.93982   0.23761   0.00000  Uiso   1.00
O580   O     0.70281   0.75369   0.24690   0.00000  Uiso   1.00
O581   O     0.78829   0.91763   0.32385   0.00000  Uiso   1.00
O582   O     0.72488   0.90368   0.24501   0.00000  Uiso   1.00
O583   O     0.94178   0.76298   0.25499   0.00000  Uiso   1.00
O584   O     0.96995   0.84063   0.32247   0.00000  Uiso   1.00
O585   O     0.69672   0.82603   0.17753   0.00000  Uiso   1.00
O586   O     0.73098   0.83134   0.31439   0.00000  Uiso   1.00
O587   O     0.93569   0.83533   0.18561   0.00000  Uiso   1.00
O588   O     0.75010   0.73011   0.03580   0.00000  Uiso   1.00
S589   S     0.72315   0.75291   0.08266   0.00000  Uiso   1.00
S590   S     0.94519   0.91794   0.41434   0.00000  Uiso   1.00
S591   S     0.82766   0.75410   0.21721   0.00000  Uiso   1.00
S592   S     0.83925   0.91276   0.28249   0.00000  Uiso   1.00
Zn593  Zn    0.93700   0.83954   0.25540   0.00000  Uiso   1.00
Zn594  Zn    0.72967   0.82713   0.24460   0.00000  Uiso   1.00
C595   C     0.01469   0.26465   0.74935   0.00000  Uiso   1.00
C596   C     0.31307   0.16132   0.65795   0.00000  Uiso   1.00
C597   C     0.02995   0.18029   0.89708   0.00000  Uiso   1.00
C598   C     0.30352   0.15515   0.60275   0.00000  Uiso   1.00
C599   C     0.02339   0.22827   0.98021   0.00000  Uiso   1.00
C600   C     0.31156   0.11102   0.51823   0.00000  Uiso   1.00
C601   C     0.00190   0.21574   0.93118   0.00000  Uiso   1.00
C602   C     0.33275   0.12205   0.56744   0.00000  Uiso   1.00
C603   C     0.07637   0.15696   0.91445   0.00000  Uiso   1.00
C604   C     0.25650   0.17834   0.58614   0.00000  Uiso   1.00
C605   C     0.10179   0.17424   0.96158   0.00000  Uiso   1.00
C606   C     0.31866   0.06870   0.75079   0.00000  Uiso   1.00
C607   C     0.23214   0.16331   0.53818   0.00000  Uiso   1.00
C608   C     0.07361   0.20961   0.99491   0.00000  Uiso   1.00
C609   C     0.26101   0.12932   0.50409   0.00000  Uiso   1.00
C610   C     0.15528   0.15917   0.97565   0.00000  Uiso   1.00
C611   C     0.17891   0.17896   0.52395   0.00000  Uiso   1.00
C612   C     0.14802   0.21283   0.55663   0.00000  Uiso   1.00
C613   C     0.18671   0.12645   0.94243   0.00000  Uiso   1.00
C614   C     0.09643   0.22763   0.54227   0.00000  Uiso   1.00
C615   C     0.23862   0.11226   0.95641   0.00000  Uiso   1.00
C616   C     0.02240   0.31957   0.75159   0.00000  Uiso   1.00
C617   C     0.31093   0.01383   0.74902   0.00000  Uiso   1.00
C618   C     0.02027   0.17232   0.84199   0.00000  Uiso   1.00
H619   H     0.07463   0.25427   0.56828   0.00000  Uiso   1.00
H620   H     0.26862   0.32955   0.74417   0.00000  Uiso   1.00
H621   H     0.00438   0.05074   0.63578   0.00000  Uiso   1.00
H622   H     0.33311   0.28298   0.86069   0.00000  Uiso   1.00
H623   H     0.11860   0.01783   0.67675   0.00000  Uiso   1.00
H624   H     0.11823   0.28940   0.83262   0.00000  Uiso   1.00
H625   H     0.26104   0.08684   0.92980   0.00000  Uiso   1.00
H626   H     0.23773   0.20578   0.61304   0.00000  Uiso   1.00
H627   H     0.09362   0.12718   0.88875   0.00000  Uiso   1.00
H628   H     0.00285   0.25561   0.50649   0.00000  Uiso   1.00
H629   H     0.33266   0.08495   0.99121   0.00000  Uiso   1.00
H630   H     0.16221   0.22932   0.59376   0.00000  Uiso   1.00
H631   H     0.17319   0.11141   0.90473   0.00000  Uiso   1.00
H632   H     0.06469   0.00388   0.75664   0.00000  Uiso   1.00
N633   N     0.14695   0.15216   0.73740   0.00000  Uiso   1.00
N634   N     0.18638   0.18117   0.76261   0.00000  Uiso   1.00
O635   O     0.29719   0.24631   0.75310   0.00000  Uiso   1.00
O636   O     0.09967   0.12093   0.61444   0.00000  Uiso   1.00
O637   O     0.03211   0.03581   0.61247   0.00000  Uiso   1.00
O638   O     0.23413   0.21495   0.88585   0.00000  Uiso   1.00
O639   O     0.25338   0.27826   0.96040   0.00000  Uiso   1.00
O640   O     0.30201   0.29806   0.87969   0.00000  Uiso   1.00
O641   O     0.20730   0.08469   0.68099   0.00000  Uiso   1.00
O642   O     0.17450   0.06007   0.76191   0.00000  Uiso   1.00
O643   O     0.10625   0.05378   0.68656   0.00000  Uiso   1.00
O644   O     0.22247   0.27531   0.80918   0.00000  Uiso   1.00
O645   O     0.15908   0.27316   0.73761   0.00000  Uiso   1.00
O646   O     0.03614   0.08702   0.74690   0.00000  Uiso   1.00
O647   O     0.12163   0.25097   0.82385   0.00000  Uiso   1.00
O648   O     0.05822   0.23702   0.74501   0.00000  Uiso   1.00
O649   O     0.27512   0.09632   0.75499   0.00000  Uiso   1.00
O650   O     0.30328   0.17397   0.82247   0.00000  Uiso   1.00
O651   O     0.03005   0.15937   0.67753   0.00000  Uiso   1.00
O652   O     0.06431   0.16467   0.81439   0.00000  Uiso   1.00
O653   O     0.26902   0.16866   0.68561   0.00000  Uiso   1.00
O654   O     0.08344   0.06345   0.53580   0.00000  Uiso   1.00
S655   S     0.05648   0.08624   0.58266   0.00000  Uiso   1.00
S656   S     0.27853   0.25127   0.91434   0.00000  Uiso   1.00
S657   S     0.16099   0.08743   0.71721   0.00000  Uiso   1.00
S658   S     0.17258   0.24609   0.78249   0.00000  Uiso   1.00
Zn659  Zn    0.27033   0.17287   0.75540   0.00000  Uiso   1.00
Zn660  Zn    0.06300   0.16046   0.74460   0.00000  Uiso   1.00
C661   C     0.34802   0.26465   0.74935   0.00000  Uiso   1.00
C662   C     0.64641   0.16132   0.65795   0.00000  Uiso   1.00
C663   C     0.36328   0.18029   0.89708   0.00000  Uiso   1.00
C664   C     0.63685   0.15515   0.60275   0.00000  Uiso   1.00
C665   C     0.35673   0.22827   0.98021   0.00000  Uiso   1.00
C666   C     0.64489   0.11102   0.51823   0.00000  Uiso   1.00
C667   C     0.33523   0.21574   0.93118   0.00000  Uiso   1.00
C668   C     0.66608   0.12205   0.56744   0.00000  Uiso   1.00
C669   C     0.40971   0.15696   0.91445   0.00000  Uiso   1.00
C670   C     0.58984   0.17834   0.58614   0.00000  Uiso   1.00
C671   C     0.43513   0.17424   0.96158   0.00000  Uiso   1.00
C672   C     0.65199   0.06870   0.75079   0.00000  Uiso   1.00
C673   C     0.56548   0.16331   0.53818   0.00000  Uiso   1.00
C674   C     0.40695   0.20961   0.99491   0.00000  Uiso   1.00
C675   C     0.59434   0.12932   0.50409   0.00000  Uiso   1.00
C676   C     0.48861   0.15917   0.97565   0.00000  Uiso   1.00
C677   C     0.51224   0.17896   0.52395   0.00000  Uiso   1.00
C678   C     0.48135   0.21283   0.55663   0.00000  Uiso   1.00
C679   C     0.52004   0.12645   0.94243   0.00000  Uiso   1.00
C680   C     0.42976   0.22763   0.54227   0.00000  Uiso   1.00
C681   C     0.57195   0.11226   0.95641   0.00000  Uiso   1.00
C682   C     0.35574   0.31957   0.75159   0.00000  Uiso   1.00
C683   C     0.64427   0.01383   0.74902   0.00000  Uiso   1.00
C684   C     0.35361   0.17232   0.84199   0.00000  Uiso   1.00
H685   H     0.40797   0.25427   0.56828   0.00000  Uiso   1.00
H686   H     0.60196   0.32955   0.74417   0.00000  Uiso   1.00
H687   H     0.33771   0.05074   0.63578   0.00000  Uiso   1.00
H688   H     0.66645   0.28298   0.86069   0.00000  Uiso   1.00
H689   H     0.45193   0.01783   0.67675   0.00000  Uiso   1.00
H690   H     0.45156   0.28940   0.83262   0.00000  Uiso   1.00
H691   H     0.59437   0.08684   0.92980   0.00000  Uiso   1.00
H692   H     0.57106   0.20578   0.61304   0.00000  Uiso   1.00
H693   H     0.42695   0.12718   0.88875   0.00000  Uiso   1.00
H694   H     0.33618   0.25561   0.50649   0.00000  Uiso   1.00
H695   H     0.66600   0.08495   0.99121   0.00000  Uiso   1.00
H696   H     0.49555   0.22932   0.59376   0.00000  Uiso   1.00
H697   H     0.50652   0.11141   0.90473   0.00000  Uiso   1.00
H698   H     0.39802   0.00388   0.75664   0.00000  Uiso   1.00
N699   N     0.48029   0.15216   0.73740   0.00000  Uiso   1.00
N700   N     0.51971   0.18117   0.76261   0.00000  Uiso   1.00
O701   O     0.63052   0.24631   0.75310   0.00000  Uiso   1.00
O702   O     0.43300   0.12093   0.61444   0.00000  Uiso   1.00
O703   O     0.36544   0.03581   0.61247   0.00000  Uiso   1.00
O704   O     0.56746   0.21495   0.88585   0.00000  Uiso   1.00
O705   O     0.58672   0.27826   0.96040   0.00000  Uiso   1.00
O706   O     0.63534   0.29806   0.87969   0.00000  Uiso   1.00
O707   O     0.54063   0.08469   0.68099   0.00000  Uiso   1.00
O708   O     0.50784   0.06007   0.76191   0.00000  Uiso   1.00
O709   O     0.43959   0.05378   0.68656   0.00000  Uiso   1.00
O710   O     0.55581   0.27531   0.80918   0.00000  Uiso   1.00
O711   O     0.49242   0.27316   0.73761   0.00000  Uiso   1.00
O712   O     0.36948   0.08702   0.74690   0.00000  Uiso   1.00
O713   O     0.45496   0.25097   0.82385   0.00000  Uiso   1.00
O714   O     0.39155   0.23702   0.74501   0.00000  Uiso   1.00
O715   O     0.60845   0.09632   0.75499   0.00000  Uiso   1.00
O716   O     0.63662   0.17397   0.82247   0.00000  Uiso   1.00
O717   O     0.36338   0.15937   0.67753   0.00000  Uiso   1.00
O718   O     0.39764   0.16467   0.81439   0.00000  Uiso   1.00
O719   O     0.60236   0.16866   0.68561   0.00000  Uiso   1.00
O720   O     0.41677   0.06345   0.53580   0.00000  Uiso   1.00
S721   S     0.38981   0.08624   0.58266   0.00000  Uiso   1.00
S722   S     0.61186   0.25127   0.91434   0.00000  Uiso   1.00
S723   S     0.49432   0.08743   0.71721   0.00000  Uiso   1.00
S724   S     0.50591   0.24609   0.78249   0.00000  Uiso   1.00
Zn725  Zn    0.60366   0.17287   0.75540   0.00000  Uiso   1.00
Zn726  Zn    0.39634   0.16046   0.74460   0.00000  Uiso   1.00
C727   C     0.68135   0.26465   0.74935   0.00000  Uiso   1.00
C728   C     0.97974   0.16132   0.65795   0.00000  Uiso   1.00
C729   C     0.69661   0.18029   0.89708   0.00000  Uiso   1.00
C730   C     0.97019   0.15515   0.60275   0.00000  Uiso   1.00
C731   C     0.69006   0.22827   0.98021   0.00000  Uiso   1.00
C732   C     0.97822   0.11102   0.51823   0.00000  Uiso   1.00
C733   C     0.66857   0.21574   0.93118   0.00000  Uiso   1.00
C734   C     0.99941   0.12205   0.56744   0.00000  Uiso   1.00
C735   C     0.74304   0.15696   0.91445   0.00000  Uiso   1.00
C736   C     0.92317   0.17834   0.58614   0.00000  Uiso   1.00
C737   C     0.76846   0.17424   0.96158   0.00000  Uiso   1.00
C738   C     0.98532   0.06870   0.75079   0.00000  Uiso   1.00
C739   C     0.89881   0.16331   0.53818   0.00000  Uiso   1.00
C740   C     0.74028   0.20961   0.99491   0.00000  Uiso   1.00
C741   C     0.92767   0.12932   0.50409   0.00000  Uiso   1.00
C742   C     0.82194   0.15917   0.97565   0.00000  Uiso   1.00
C743   C     0.84557   0.17896   0.52395   0.00000  Uiso   1.00
C744   C     0.81468   0.21283   0.55663   0.00000  Uiso   1.00
C745   C     0.85337   0.12645   0.94243   0.00000  Uiso   1.00
C746   C     0.76310   0.22763   0.54227   0.00000  Uiso   1.00
C747   C     0.90528   0.11226   0.95641   0.00000  Uiso   1.00
C748   C     0.68907   0.31957   0.75159   0.00000  Uiso   1.00
C749   C     0.97760   0.01383   0.74902   0.00000  Uiso   1.00
C750   C     0.68694   0.17232   0.84199   0.00000  Uiso   1.00
H751   H     0.74130   0.25427   0.56828   0.00000  Uiso   1.00
H752   H     0.93529   0.32955   0.74417   0.00000  Uiso   1.00
H753   H     0.67104   0.05074   0.63578   0.00000  Uiso   1.00
H754   H     0.99978   0.28298   0.86069   0.00000  Uiso   1.00
H755   H     0.78526   0.01783   0.67675   0.00000  Uiso   1.00
H756   H     0.78490   0.28940   0.83262   0.00000  Uiso   1.00
H757   H     0.92770   0.08684   0.92980   0.00000  Uiso   1.00
H758   H     0.90439   0.20578   0.61304   0.00000  Uiso   1.00
H759   H     0.76029   0.12718   0.88875   0.00000  Uiso   1.00
H760   H     0.66951   0.25561   0.50649   0.00000  Uiso   1.00
H761   H     0.99933   0.08495   0.99121   0.00000  Uiso   1.00
H762   H     0.82888   0.22932   0.59376   0.00000  Uiso   1.00
H763   H     0.83986   0.11141   0.90473   0.00000  Uiso   1.00
H764   H     0.73136   0.00388   0.75664   0.00000  Uiso   1.00
N765   N     0.81362   0.15216   0.73740   0.00000  Uiso   1.00
N766   N     0.85305   0.18117   0.76261   0.00000  Uiso   1.00
O767   O     0.96386   0.24631   0.75310   0.00000  Uiso   1.00
O768   O     0.76634   0.12093   0.61444   0.00000  Uiso   1.00
O769   O     0.69878   0.03581   0.61247   0.00000  Uiso   1.00
O770   O     0.90080   0.21495   0.88585   0.00000  Uiso   1.00
O771   O     0.92005   0.27826   0.96040   0.00000  Uiso   1.00
O772   O     0.96868   0.29806   0.87969   0.00000  Uiso   1.00
O773   O     0.87396   0.08469   0.68099   0.00000  Uiso   1.00
O774   O     0.84117   0.06007   0.76191   0.00000  Uiso   1.00
O775   O     0.77292   0.05378   0.68656   0.00000  Uiso   1.00
O776   O     0.88914   0.27531   0.80918   0.00000  Uiso   1.00
O777   O     0.82575   0.27316   0.73761   0.00000  Uiso   1.00
O778   O     0.70281   0.08702   0.74690   0.00000  Uiso   1.00
O779   O     0.78829   0.25097   0.82385   0.00000  Uiso   1.00
O780   O     0.72488   0.23702   0.74501   0.00000  Uiso   1.00
O781   O     0.94178   0.09632   0.75499   0.00000  Uiso   1.00
O782   O     0.96995   0.17397   0.82247   0.00000  Uiso   1.00
O783   O     0.69672   0.15937   0.67753   0.00000  Uiso   1.00
O784   O     0.73098   0.16467   0.81439   0.00000  Uiso   1.00
O785   O     0.93569   0.16866   0.68561   0.00000  Uiso   1.00
O786   O     0.75010   0.06345   0.53580   0.00000  Uiso   1.00
S787   S     0.72315   0.08624   0.58266   0.00000  Uiso   1.00
S788   S     0.94519   0.25127   0.91434   0.00000  Uiso   1.00
S789   S     0.82766   0.08743   0.71721   0.00000  Uiso   1.00
S790   S     0.83925   0.24609   0.78249   0.00000  Uiso   1.00
Zn791  Zn    0.93700   0.17287   0.75540   0.00000  Uiso   1.00
Zn792  Zn    0.72967   0.16046   0.74460   0.00000  Uiso   1.00
C793   C     0.01469   0.59798   0.74935   0.00000  Uiso   1.00
C794   C     0.31307   0.49465   0.65795   0.00000  Uiso   1.00
C795   C     0.02995   0.51362   0.89708   0.00000  Uiso   1.00
C796   C     0.30352   0.48848   0.60275   0.00000  Uiso   1.00
C797   C     0.02339   0.56160   0.98021   0.00000  Uiso   1.00
C798   C     0.31156   0.44435   0.51823   0.00000  Uiso   1.00
C799   C     0.00190   0.54907   0.93118   0.00000  Uiso   1.00
C800   C     0.33275   0.45538   0.56744   0.00000  Uiso   1.00
C801   C     0.07637   0.49029   0.91445   0.00000  Uiso   1.00
C802   C     0.25650   0.51167   0.58614   0.00000  Uiso   1.00
C803   C     0.10179   0.50757   0.96158   0.00000  Uiso   1.00
C804   C     0.31866   0.40204   0.75079   0.00000  Uiso   1.00
C805   C     0.23214   0.49665   0.53818   0.00000  Uiso   1.00
C806   C     0.07361   0.54295   0.99491   0.00000  Uiso   1.00
C807   C     0.26101   0.46266   0.50409   0.00000  Uiso   1.00
C808   C     0.15528   0.49251   0.97565   0.00000  Uiso   1.00
C809   C     0.17891   0.51229   0.52395   0.00000  Uiso   1.00
C810   C     0.14802   0.54617   0.55663   0.00000  Uiso   1.00
C811   C     0.18671   0.45979   0.94243   0.00000  Uiso   1.00
C812   C     0.09643   0.56096   0.54227   0.00000  Uiso   1.00
C813   C     0.23862   0.44560   0.95641   0.00000  Uiso   1.00
C814   C     0.02240   0.65291   0.75159   0.00000  Uiso   1.00
C815   C     0.31093   0.34716   0.74902   0.00000  Uiso   1.00
C816   C     0.02027   0.50565   0.84199   0.00000  Uiso   1.00
H817   H     0.07463   0.58760   0.56828   0.00000  Uiso   1.00
H818   H     0.26862   0.66288   0.74417   0.00000  Uiso   1.00
H819   H     0.00438   0.38407   0.63578   0.00000  Uiso   1.00
H820   H     0.33311   0.61631   0.86069   0.00000  Uiso   1.00
H821   H     0.11860   0.35116   0.67675   0.00000  Uiso   1.00
H822   H     0.11823   0.62273   0.83262   0.00000  Uiso   1.00
H823   H     0.26104   0.42018   0.92980   0.00000  Uiso   1.00
H824   H     0.23773   0.53912   0.61304   0.00000  Uiso   1.00
H825   H     0.09362   0.46052   0.88875   0.00000  Uiso   1.00
H826   H     0.00285   0.58894   0.50649   0.00000  Uiso   1.00
H827   H     0.33266   0.41828   0.99121   0.00000  Uiso   1.00
H828   H     0.16221   0.56265   0.59376   0.00000  Uiso   1.00
H829   H     0.17319   0.44475   0.90473   0.00000  Uiso   1.00
H830   H     0.06469   0.33722   0.75664   0.00000  Uiso   1.00
N831   N     0.14695   0.48550   0.73740   0.00000  Uiso   1.00
N832   N     0.18638   0.51450   0.76261   0.00000  Uiso   1.00
O833   O     0.29719   0.57964   0.75310   0.00000  Uiso   1.00
O834   O     0.09967   0.45426   0.61444   0.00000  Uiso   1.00
O835   O     0.03211   0.36915   0.61247   0.00000  Uiso   1.00
O836   O     0.23413   0.54828   0.88585   0.00000  Uiso   1.00
O837   O     0.25338   0.61160   0.96040   0.00000  Uiso   1.00
O838   O     0.30201   0.63139   0.87969   0.00000  Uiso   1.00
O839   O     0.20730   0.41802   0.68099   0.00000  Uiso   1.00
O840   O     0.17450   0.39340   0.76191   0.00000  Uiso   1.00
O841   O     0.10625   0.38711   0.68656   0.00000  Uiso   1.00
O842   O     0.22247   0.60865   0.80918   0.00000  Uiso   1.00
O843   O     0.15908   0.60649   0.73761   0.00000  Uiso   1.00
O844   O     0.03614   0.42036   0.74690   0.00000  Uiso   1.00
O845   O     0.12163   0.58430   0.82385   0.00000  Uiso   1.00
O846   O     0.05822   0.57035   0.74501   0.00000  Uiso   1.00
O847   O     0.27512   0.42965   0.75499   0.00000  Uiso   1.00
O848   O     0.30328   0.50730   0.82247   0.00000  Uiso   1.00
O849   O     0.03005   0.49270   0.67753   0.00000  Uiso   1.00
O850   O     0.06431   0.49801   0.81439   0.00000  Uiso   1.00
O851   O     0.26902   0.50199   0.68561   0.00000  Uiso   1.00
O852   O     0.08344   0.39678   0.53580   0.00000  Uiso   1.00
S853   S     0.05648   0.41958   0.58266   0.00000  Uiso   1.00
S854   S     0.27853   0.58461   0.91434   0.00000  Uiso   1.00
S855   S     0.16099   0.42077   0.71721   0.00000  Uiso   1.00
S856   S     0.17258   0.57943   0.78249   0.00000  Uiso   1.00
Zn857  Zn    0.27033   0.50621   0.75540   0.00000  Uiso   1.00
Zn858  Zn    0.06300   0.49379   0.74460   0.00000  Uiso   1.00
C859   C     0.34802   0.59798   0.74935   0.00000  Uiso   1.00
C860   C     0.64641   0.49465   0.65795   0.00000  Uiso   1.00
C861   C     0.36328   0.51362   0.89708   0.00000  Uiso   1.00
C862   C     0.63685   0.48848   0.60275   0.00000  Uiso   1.00
C863   C     0.35673   0.56160   0.98021   0.00000  Uiso   1.00
C864   C     0.64489   0.44435   0.51823   0.00000  Uiso   1.00
C865   C     0.33523   0.54907   0.93118   0.00000  Uiso   1.00
C866   C     0.66608   0.45538   0.56744   0.00000  Uiso   1.00
C867   C     0.40971   0.49029   0.91445   0.00000  Uiso   1.00
C868   C     0.58984   0.51167   0.58614   0.00000  Uiso   1.00
C869   C     0.43513   0.50757   0.96158   0.00000  Uiso   1.00
C870   C     0.65199   0.40204   0.75079   0.00000  Uiso   1.00
C871   C     0.56548   0.49665   0.53818   0.00000  Uiso   1.00
C872   C     0.40695   0.54295   0.99491   0.00000  Uiso   1.00
C873   C     0.59434   0.46266   0.50409   0.00000  Uiso   1.00
C874   C     0.48861   0.49251   0.97565   0.00000  Uiso   1.00
C875   C     0.51224   0.51229   0.52395   0.00000  Uiso   1.00
C876   C     0.48135   0.54617   0.55663   0.00000  Uiso   1.00
C877   C     0.52004   0.45979   0.94243   0.00000  Uiso   1.00
C878   C     0.42976   0.56096   0.54227   0.00000  Uiso   1.00
C879   C     0.57195   0.44560   0.95641   0.00000  Uiso   1.00
C880   C     0.35574   0.65291   0.75159   0.00000  Uiso   1.00
C881   C     0.64427   0.34716   0.74902   0.00000  Uiso   1.00
C882   C     0.35361   0.50565   0.84199   0.00000  Uiso   1.00
H883   H     0.40797   0.58760   0.56828   0.00000  Uiso   1.00
H884   H     0.60196   0.66288   0.74417   0.00000  Uiso   1.00
H885   H     0.33771   0.38407   0.63578   0.00000  Uiso   1.00
H886   H     0.66645   0.61631   0.86069   0.00000  Uiso   1.00
H887   H     0.45193   0.35116   0.67675   0.00000  Uiso   1.00
H888   H     0.45156   0.62273   0.83262   0.00000  Uiso   1.00
H889   H     0.59437   0.42018   0.92980   0.00000  Uiso   1.00
H890   H     0.57106   0.53912   0.61304   0.00000  Uiso   1.00
H891   H     0.42695   0.46052   0.88875   0.00000  Uiso   1.00
H892   H     0.33618   0.58894   0.50649   0.00000  Uiso   1.00
H893   H     0.66600   0.41828   0.99121   0.00000  Uiso   1.00
H894   H     0.49555   0.56265   0.59376   0.00000  Uiso   1.00
H895   H     0.50652   0.44475   0.90473   0.00000  Uiso   1.00
H896   H     0.39802   0.33722   0.75664   0.00000  Uiso   1.00
N897   N     0.48029   0.48550   0.73740   0.00000  Uiso   1.00
N898   N     0.51971   0.51450   0.76261   0.00000  Uiso   1.00
O899   O     0.63052   0.57964   0.75310   0.00000  Uiso   1.00
O900   O     0.43300   0.45426   0.61444   0.00000  Uiso   1.00
O901   O     0.36544   0.36915   0.61247   0.00000  Uiso   1.00
O902   O     0.56746   0.54828   0.88585   0.00000  Uiso   1.00
O903   O     0.58672   0.61160   0.96040   0.00000  Uiso   1.00
O904   O     0.63534   0.63139   0.87969   0.00000  Uiso   1.00
O905   O     0.54063   0.41802   0.68099   0.00000  Uiso   1.00
O906   O     0.50784   0.39340   0.76191   0.00000  Uiso   1.00
O907   O     0.43959   0.38711   0.68656   0.00000  Uiso   1.00
O908   O     0.55581   0.60865   0.80918   0.00000  Uiso   1.00
O909   O     0.49242   0.60649   0.73761   0.00000  Uiso   1.00
O910   O     0.36948   0.42036   0.74690   0.00000  Uiso   1.00
O911   O     0.45496   0.58430   0.82385   0.00000  Uiso   1.00
O912   O     0.39155   0.57035   0.74501   0.00000  Uiso   1.00
O913   O     0.60845   0.42965   0.75499   0.00000  Uiso   1.00
O914   O     0.63662   0.50730   0.82247   0.00000  Uiso   1.00
O915   O     0.36338   0.49270   0.67753   0.00000  Uiso   1.00
O916   O     0.39764   0.49801   0.81439   0.00000  Uiso   1.00
O917   O     0.60236   0.50199   0.68561   0.00000  Uiso   1.00
O918   O     0.41677   0.39678   0.53580   0.00000  Uiso   1.00
S919   S     0.38981   0.41958   0.58266   0.00000  Uiso   1.00
S920   S     0.61186   0.58461   0.91434   0.00000  Uiso   1.00
S921   S     0.49432   0.42077   0.71721   0.00000  Uiso   1.00
S922   S     0.50591   0.57943   0.78249   0.00000  Uiso   1.00
Zn923  Zn    0.60366   0.50621   0.75540   0.00000  Uiso   1.00
Zn924  Zn    0.39634   0.49379   0.74460   0.00000  Uiso   1.00
C925   C     0.68135   0.59798   0.74935   0.00000  Uiso   1.00
C926   C     0.97974   0.49465   0.65795   0.00000  Uiso   1.00
C927   C     0.69661   0.51362   0.89708   0.00000  Uiso   1.00
C928   C     0.97019   0.48848   0.60275   0.00000  Uiso   1.00
C929   C     0.69006   0.56160   0.98021   0.00000  Uiso   1.00
C930   C     0.97822   0.44435   0.51823   0.00000  Uiso   1.00
C931   C     0.66857   0.54907   0.93118   0.00000  Uiso   1.00
C932   C     0.99941   0.45538   0.56744   0.00000  Uiso   1.00
C933   C     0.74304   0.49029   0.91445   0.00000  Uiso   1.00
C934   C     0.92317   0.51167   0.58614   0.00000  Uiso   1.00
C935   C     0.76846   0.50757   0.96158   0.00000  Uiso   1.00
C936   C     0.98532   0.40204   0.75079   0.00000  Uiso   1.00
C937   C     0.89881   0.49665   0.53818   0.00000  Uiso   1.00
C938   C     0.74028   0.54295   0.99491   0.00000  Uiso   1.00
C939   C     0.92767   0.46266   0.50409   0.00000  Uiso   1.00
C940   C     0.82194   0.49251   0.97565   0.00000  Uiso   1.00
C941   C     0.84557   0.51229   0.52395   0.00000  Uiso   1.00
C942   C     0.81468   0.54617   0.55663   0.00000  Uiso   1.00
C943   C     0.85337   0.45979   0.94243   0.00000  Uiso   1.00
C944   C     0.76310   0.56096   0.54227   0.00000  Uiso   1.00
C945   C     0.90528   0.44560   0.95641   0.00000  Uiso   1.00
C946   C     0.68907   0.65291   0.75159   0.00000  Uiso   1.00
C947   C     0.97760   0.34716   0.74902   0.00000  Uiso   1.00
C948   C     0.68694   0.50565   0.84199   0.00000  Uiso   1.00
H949   H     0.74130   0.58760   0.56828   0.00000  Uiso   1.00
H950   H     0.93529   0.66288   0.74417   0.00000  Uiso   1.00
H951   H     0.67104   0.38407   0.63578   0.00000  Uiso   1.00
H952   H     0.99978   0.61631   0.86069   0.00000  Uiso   1.00
H953   H     0.78526   0.35116   0.67675   0.00000  Uiso   1.00
H954   H     0.78490   0.62273   0.83262   0.00000  Uiso   1.00
H955   H     0.92770   0.42018   0.92980   0.00000  Uiso   1.00
H956   H     0.90439   0.53912   0.61304   0.00000  Uiso   1.00
H957   H     0.76029   0.46052   0.88875   0.00000  Uiso   1.00
H958   H     0.66951   0.58894   0.50649   0.00000  Uiso   1.00
H959   H     0.99933   0.41828   0.99121   0.00000  Uiso   1.00
H960   H     0.82888   0.56265   0.59376   0.00000  Uiso   1.00
H961   H     0.83986   0.44475   0.90473   0.00000  Uiso   1.00
H962   H     0.73136   0.33722   0.75664   0.00000  Uiso   1.00
N963   N     0.81362   0.48550   0.73740   0.00000  Uiso   1.00
N964   N     0.85305   0.51450   0.76261   0.00000  Uiso   1.00
O965   O     0.96386   0.57964   0.75310   0.00000  Uiso   1.00
O966   O     0.76634   0.45426   0.61444   0.00000  Uiso   1.00
O967   O     0.69878   0.36915   0.61247   0.00000  Uiso   1.00
O968   O     0.90080   0.54828   0.88585   0.00000  Uiso   1.00
O969   O     0.92005   0.61160   0.96040   0.00000  Uiso   1.00
O970   O     0.96868   0.63139   0.87969   0.00000  Uiso   1.00
O971   O     0.87396   0.41802   0.68099   0.00000  Uiso   1.00
O972   O     0.84117   0.39340   0.76191   0.00000  Uiso   1.00
O973   O     0.77292   0.38711   0.68656   0.00000  Uiso   1.00
O974   O     0.88914   0.60865   0.80918   0.00000  Uiso   1.00
O975   O     0.82575   0.60649   0.73761   0.00000  Uiso   1.00
O976   O     0.70281   0.42036   0.74690   0.00000  Uiso   1.00
O977   O     0.78829   0.58430   0.82385   0.00000  Uiso   1.00
O978   O     0.72488   0.57035   0.74501   0.00000  Uiso   1.00
O979   O     0.94178   0.42965   0.75499   0.00000  Uiso   1.00
O980   O     0.96995   0.50730   0.82247   0.00000  Uiso   1.00
O981   O     0.69672   0.49270   0.67753   0.00000  Uiso   1.00
O982   O     0.73098   0.49801   0.81439   0.00000  Uiso   1.00
O983   O     0.93569   0.50199   0.68561   0.00000  Uiso   1.00
O984   O     0.75010   0.39678   0.53580   0.00000  Uiso   1.00
S985   S     0.72315   0.41958   0.58266   0.00000  Uiso   1.00
S986   S     0.94519   0.58461   0.91434   0.00000  Uiso   1.00
S987   S     0.82766   0.42077   0.71721   0.00000  Uiso   1.00
S988   S     0.83925   0.57943   0.78249   0.00000  Uiso   1.00
Zn989  Zn    0.93700   0.50621   0.75540   0.00000  Uiso   1.00
Zn990  Zn    0.72967   0.49379   0.74460   0.00000  Uiso   1.00
C991   C     0.01469   0.93131   0.74935   0.00000  Uiso   1.00
C992   C     0.31307   0.82799   0.65795   0.00000  Uiso   1.00
C993   C     0.02995   0.84696   0.89708   0.00000  Uiso   1.00
C994   C     0.30352   0.82182   0.60275   0.00000  Uiso   1.00
C995   C     0.02339   0.89494   0.98021   0.00000  Uiso   1.00
C996   C     0.31156   0.77769   0.51823   0.00000  Uiso   1.00
C997   C     0.00190   0.88240   0.93118   0.00000  Uiso   1.00
C998   C     0.33275   0.78871   0.56744   0.00000  Uiso   1.00
C999   C     0.07637   0.82362   0.91445   0.00000  Uiso   1.00
C1000  C     0.25650   0.84500   0.58614   0.00000  Uiso   1.00
C1001  C     0.10179   0.84090   0.96158   0.00000  Uiso   1.00
C1002  C     0.31866   0.73537   0.75079   0.00000  Uiso   1.00
C1003  C     0.23214   0.82998   0.53818   0.00000  Uiso   1.00
C1004  C     0.07361   0.87628   0.99491   0.00000  Uiso   1.00
C1005  C     0.26101   0.79599   0.50409   0.00000  Uiso   1.00
C1006  C     0.15528   0.82584   0.97565   0.00000  Uiso   1.00
C1007  C     0.17891   0.84563   0.52395   0.00000  Uiso   1.00
C1008  C     0.14802   0.87950   0.55663   0.00000  Uiso   1.00
C1009  C     0.18671   0.79312   0.94243   0.00000  Uiso   1.00
C1010  C     0.09643   0.89429   0.54227   0.00000  Uiso   1.00
C1011  C     0.23862   0.77893   0.95641   0.00000  Uiso   1.00
C1012  C     0.02240   0.98624   0.75159   0.00000  Uiso   1.00
C1013  C     0.31093   0.68050   0.74902   0.00000  Uiso   1.00
C1014  C     0.02027   0.83898   0.84199   0.00000  Uiso   1.00
H1015  H     0.07463   0.92093   0.56828   0.00000  Uiso   1.00
H1016  H     0.26862   0.99622   0.74417   0.00000  Uiso   1.00
H1017  H     0.00438   0.71741   0.63578   0.00000  Uiso   1.00
H1018  H     0.33311   0.94964   0.86069   0.00000  Uiso   1.00
H1019  H     0.11860   0.68449   0.67675   0.00000  Uiso   1.00
H1020  H     0.11823   0.95606   0.83262   0.00000  Uiso   1.00
H1021  H     0.26104   0.75351   0.92980   0.00000  Uiso   1.00
H1022  H     0.23773   0.87245   0.61304   0.00000  Uiso   1.00
H1023  H     0.09362   0.79385   0.88875   0.00000  Uiso   1.00
H1024  H     0.00285   0.92228   0.50649   0.00000  Uiso   1.00
H1025  H     0.33266   0.75162   0.99121   0.00000  Uiso   1.00
H1026  H     0.16221   0.89598   0.59376   0.00000  Uiso   1.00
H1027  H     0.17319   0.77808   0.90473   0.00000  Uiso   1.00
H1028  H     0.06469   0.67055   0.75664   0.00000  Uiso   1.00
N1029  N     0.14695   0.81883   0.73740   0.00000  Uiso   1.00
N1030  N     0.18638   0.84784   0.76261   0.00000  Uiso   1.00
O1031  O     0.29719   0.91298   0.75310   0.00000  Uiso   1.00
O1032  O     0.09967   0.78760   0.61444   0.00000  Uiso   1.00
O1033  O     0.03211   0.70248   0.61247   0.00000  Uiso   1.00
O1034  O     0.23413   0.88162   0.88585   0.00000  Uiso   1.00
O1035  O     0.25338   0.94493   0.96040   0.00000  Uiso   1.00
O1036  O     0.30201   0.96473   0.87969   0.00000  Uiso   1.00
O1037  O     0.20730   0.75135   0.68099   0.00000  Uiso   1.00
O1038  O     0.17450   0.72674   0.76191   0.00000  Uiso   1.00
O1039  O     0.10625   0.72044   0.68656   0.00000  Uiso   1.00
O1040  O     0.22247   0.94198   0.80918   0.00000  Uiso   1.00
O1041  O     0.15908   0.93982   0.73761   0.00000  Uiso   1.00
O1042  O     0.03614   0.75369   0.74690   0.00000  Uiso   1.00
O1043  O     0.12163   0.91763   0.82385   0.00000  Uiso   1.00
O1044  O     0.05822   0.90368   0.74501   0.00000  Uiso   1.00
O1045  O     0.27512   0.76298   0.75499   0.00000  Uiso   1.00
O1046  O     0.30328   0.84063   0.82247   0.00000  Uiso   1.00
O1047  O     0.03005   0.82603   0.67753   0.00000  Uiso   1.00
O1048  O     0.06431   0.83134   0.81439   0.00000  Uiso   1.00
O1049  O     0.26902   0.83533   0.68561   0.00000  Uiso   1.00
O1050  O     0.08344   0.73011   0.53580   0.00000  Uiso   1.00
S1051  S     0.05648   0.75291   0.58266   0.00000  Uiso   1.00
S1052  S     0.27853   0.91794   0.91434   0.00000  Uiso   1.00
S1053  S     0.16099   0.75410   0.71721   0.00000  Uiso   1.00
S1054  S     0.17258   0.91276   0.78249   0.00000  Uiso   1.00
Zn1055 Zn    0.27033   0.83954   0.75540   0.00000  Uiso   1.00
Zn1056 Zn    0.06300   0.82713   0.74460   0.00000  Uiso   1.00
C1057  C     0.34802   0.93131   0.74935   0.00000  Uiso   1.00
C1058  C     0.64641   0.82799   0.65795   0.00000  Uiso   1.00
C1059  C     0.36328   0.84696   0.89708   0.00000  Uiso   1.00
C1060  C     0.63685   0.82182   0.60275   0.00000  Uiso   1.00
C1061  C     0.35673   0.89494   0.98021   0.00000  Uiso   1.00
C1062  C     0.64489   0.77769   0.51823   0.00000  Uiso   1.00
C1063  C     0.33523   0.88240   0.93118   0.00000  Uiso   1.00
C1064  C     0.66608   0.78871   0.56744   0.00000  Uiso   1.00
C1065  C     0.40971   0.82362   0.91445   0.00000  Uiso   1.00
C1066  C     0.58984   0.84500   0.58614   0.00000  Uiso   1.00
C1067  C     0.43513   0.84090   0.96158   0.00000  Uiso   1.00
C1068  C     0.65199   0.73537   0.75079   0.00000  Uiso   1.00
C1069  C     0.56548   0.82998   0.53818   0.00000  Uiso   1.00
C1070  C     0.40695   0.87628   0.99491   0.00000  Uiso   1.00
C1071  C     0.59434   0.79599   0.50409   0.00000  Uiso   1.00
C1072  C     0.48861   0.82584   0.97565   0.00000  Uiso   1.00
C1073  C     0.51224   0.84563   0.52395   0.00000  Uiso   1.00
C1074  C     0.48135   0.87950   0.55663   0.00000  Uiso   1.00
C1075  C     0.52004   0.79312   0.94243   0.00000  Uiso   1.00
C1076  C     0.42976   0.89429   0.54227   0.00000  Uiso   1.00
C1077  C     0.57195   0.77893   0.95641   0.00000  Uiso   1.00
C1078  C     0.35574   0.98624   0.75159   0.00000  Uiso   1.00
C1079  C     0.64427   0.68050   0.74902   0.00000  Uiso   1.00
C1080  C     0.35361   0.83898   0.84199   0.00000  Uiso   1.00
H1081  H     0.40797   0.92093   0.56828   0.00000  Uiso   1.00
H1082  H     0.60196   0.99622   0.74417   0.00000  Uiso   1.00
H1083  H     0.33771   0.71741   0.63578   0.00000  Uiso   1.00
H1084  H     0.66645   0.94964   0.86069   0.00000  Uiso   1.00
H1085  H     0.45193   0.68449   0.67675   0.00000  Uiso   1.00
H1086  H     0.45156   0.95606   0.83262   0.00000  Uiso   1.00
H1087  H     0.59437   0.75351   0.92980   0.00000  Uiso   1.00
H1088  H     0.57106   0.87245   0.61304   0.00000  Uiso   1.00
H1089  H     0.42695   0.79385   0.88875   0.00000  Uiso   1.00
H1090  H     0.33618   0.92228   0.50649   0.00000  Uiso   1.00
H1091  H     0.66600   0.75162   0.99121   0.00000  Uiso   1.00
H1092  H     0.49555   0.89598   0.59376   0.00000  Uiso   1.00
H1093  H     0.50652   0.77808   0.90473   0.00000  Uiso   1.00
H1094  H     0.39802   0.67055   0.75664   0.00000  Uiso   1.00
N1095  N     0.48029   0.81883   0.73740   0.00000  Uiso   1.00
N1096  N     0.51971   0.84784   0.76261   0.00000  Uiso   1.00
O1097  O     0.63052   0.91298   0.75310   0.00000  Uiso   1.00
O1098  O     0.43300   0.78760   0.61444   0.00000  Uiso   1.00
O1099  O     0.36544   0.70248   0.61247   0.00000  Uiso   1.00
O1100  O     0.56746   0.88162   0.88585   0.00000  Uiso   1.00
O1101  O     0.58672   0.94493   0.96040   0.00000  Uiso   1.00
O1102  O     0.63534   0.96473   0.87969   0.00000  Uiso   1.00
O1103  O     0.54063   0.75135   0.68099   0.00000  Uiso   1.00
O1104  O     0.50784   0.72674   0.76191   0.00000  Uiso   1.00
O1105  O     0.43959   0.72044   0.68656   0.00000  Uiso   1.00
O1106  O     0.55581   0.94198   0.80918   0.00000  Uiso   1.00
O1107  O     0.49242   0.93982   0.73761   0.00000  Uiso   1.00
O1108  O     0.36948   0.75369   0.74690   0.00000  Uiso   1.00
O1109  O     0.45496   0.91763   0.82385   0.00000  Uiso   1.00
O1110  O     0.39155   0.90368   0.74501   0.00000  Uiso   1.00
O1111  O     0.60845   0.76298   0.75499   0.00000  Uiso   1.00
O1112  O     0.63662   0.84063   0.82247   0.00000  Uiso   1.00
O1113  O     0.36338   0.82603   0.67753   0.00000  Uiso   1.00
O1114  O     0.39764   0.83134   0.81439   0.00000  Uiso   1.00
O1115  O     0.60236   0.83533   0.68561   0.00000  Uiso   1.00
O1116  O     0.41677   0.73011   0.53580   0.00000  Uiso   1.00
S1117  S     0.38981   0.75291   0.58266   0.00000  Uiso   1.00
S1118  S     0.61186   0.91794   0.91434   0.00000  Uiso   1.00
S1119  S     0.49432   0.75410   0.71721   0.00000  Uiso   1.00
S1120  S     0.50591   0.91276   0.78249   0.00000  Uiso   1.00
Zn1121 Zn    0.60366   0.83954   0.75540   0.00000  Uiso   1.00
Zn1122 Zn    0.39634   0.82713   0.74460   0.00000  Uiso   1.00
C1123  C     0.68135   0.93131   0.74935   0.00000  Uiso   1.00
C1124  C     0.97974   0.82799   0.65795   0.00000  Uiso   1.00
C1125  C     0.69661   0.84696   0.89708   0.00000  Uiso   1.00
C1126  C     0.97019   0.82182   0.60275   0.00000  Uiso   1.00
C1127  C     0.69006   0.89494   0.98021   0.00000  Uiso   1.00
C1128  C     0.97822   0.77769   0.51823   0.00000  Uiso   1.00
C1129  C     0.66857   0.88240   0.93118   0.00000  Uiso   1.00
C1130  C     0.99941   0.78871   0.56744   0.00000  Uiso   1.00
C1131  C     0.74304   0.82362   0.91445   0.00000  Uiso   1.00
C1132  C     0.92317   0.84500   0.58614   0.00000  Uiso   1.00
C1133  C     0.76846   0.84090   0.96158   0.00000  Uiso   1.00
C1134  C     0.98532   0.73537   0.75079   0.00000  Uiso   1.00
C1135  C     0.89881   0.82998   0.53818   0.00000  Uiso   1.00
C1136  C     0.74028   0.87628   0.99491   0.00000  Uiso   1.00
C1137  C     0.92767   0.79599   0.50409   0.00000  Uiso   1.00
C1138  C     0.82194   0.82584   0.97565   0.00000  Uiso   1.00
C1139  C     0.84557   0.84563   0.52395   0.00000  Uiso   1.00
C1140  C     0.81468   0.87950   0.55663   0.00000  Uiso   1.00
C1141  C     0.85337   0.79312   0.94243   0.00000  Uiso   1.00
C1142  C     0.76310   0.89429   0.54227   0.00000  Uiso   1.00
C1143  C     0.90528   0.77893   0.95641   0.00000  Uiso   1.00
C1144  C     0.68907   0.98624   0.75159   0.00000  Uiso   1.00
C1145  C     0.97760   0.68050   0.74902   0.00000  Uiso   1.00
C1146  C     0.68694   0.83898   0.84199   0.00000  Uiso   1.00
H1147  H     0.74130   0.92093   0.56828   0.00000  Uiso   1.00
H1148  H     0.93529   0.99622   0.74417   0.00000  Uiso   1.00
H1149  H     0.67104   0.71741   0.63578   0.00000  Uiso   1.00
H1150  H     0.99978   0.94964   0.86069   0.00000  Uiso   1.00
H1151  H     0.78526   0.68449   0.67675   0.00000  Uiso   1.00
H1152  H     0.78490   0.95606   0.83262   0.00000  Uiso   1.00
H1153  H     0.92770   0.75351   0.92980   0.00000  Uiso   1.00
H1154  H     0.90439   0.87245   0.61304   0.00000  Uiso   1.00
H1155  H     0.76029   0.79385   0.88875   0.00000  Uiso   1.00
H1156  H     0.66951   0.92228   0.50649   0.00000  Uiso   1.00
H1157  H     0.99933   0.75162   0.99121   0.00000  Uiso   1.00
H1158  H     0.82888   0.89598   0.59376   0.00000  Uiso   1.00
H1159  H     0.83986   0.77808   0.90473   0.00000  Uiso   1.00
H1160  H     0.73136   0.67055   0.75664   0.00000  Uiso   1.00
N1161  N     0.81362   0.81883   0.73740   0.00000  Uiso   1.00
N1162  N     0.85305   0.84784   0.76261   0.00000  Uiso   1.00
O1163  O     0.96386   0.91298   0.75310   0.00000  Uiso   1.00
O1164  O     0.76634   0.78760   0.61444   0.00000  Uiso   1.00
O1165  O     0.69878   0.70248   0.61247   0.00000  Uiso   1.00
O1166  O     0.90080   0.88162   0.88585   0.00000  Uiso   1.00
O1167  O     0.92005   0.94493   0.96040   0.00000  Uiso   1.00
O1168  O     0.96868   0.96473   0.87969   0.00000  Uiso   1.00
O1169  O     0.87396   0.75135   0.68099   0.00000  Uiso   1.00
O1170  O     0.84117   0.72674   0.76191   0.00000  Uiso   1.00
O1171  O     0.77292   0.72044   0.68656   0.00000  Uiso   1.00
O1172  O     0.88914   0.94198   0.80918   0.00000  Uiso   1.00
O1173  O     0.82575   0.93982   0.73761   0.00000  Uiso   1.00
O1174  O     0.70281   0.75369   0.74690   0.00000  Uiso   1.00
O1175  O     0.78829   0.91763   0.82385   0.00000  Uiso   1.00
O1176  O     0.72488   0.90368   0.74501   0.00000  Uiso   1.00
O1177  O     0.94178   0.76298   0.75499   0.00000  Uiso   1.00
O1178  O     0.96995   0.84063   0.82247   0.00000  Uiso   1.00
O1179  O     0.69672   0.82603   0.67753   0.00000  Uiso   1.00
O1180  O     0.73098   0.83134   0.81439   0.00000  Uiso   1.00
O1181  O     0.93569   0.83533   0.68561   0.00000  Uiso   1.00
O1182  O     0.75010   0.73011   0.53580   0.00000  Uiso   1.00
S1183  S     0.72315   0.75291   0.58266   0.00000  Uiso   1.00
S1184  S     0.94519   0.91794   0.91434   0.00000  Uiso   1.00
S1185  S     0.82766   0.75410   0.71721   0.00000  Uiso   1.00
S1186  S     0.83925   0.91276   0.78249   0.00000  Uiso   1.00
Zn1187 Zn    0.93700   0.83954   0.75540   0.00000  Uiso   1.00
Zn1188 Zn    0.72967   0.82713   0.74460   0.00000  Uiso   1.00
loop_
_geom_bond_atom_site_label_1
_geom_bond_atom_site_label_2
_geom_bond_distance
_geom_bond_site_symmetry_2
_ccdc_geom_bond_type
C1     O54     1.302   .     A
C1     C22     1.398   .     S
C1     O173    1.294   1_455 S
C2     C4      1.486   .     S
C2     O59     1.321   .     A
C2     O123    1.317   .     S
C3     C9      1.398   .     A
C3     C24     1.483   .     S
C3     C7      1.423   .     A
C4     C8      1.424   .     A
C4     C10     1.401   .     A
C5     C14     1.395   .     A
C5     C7      1.398   .     A
C5     H628    1.084   .     S
C6     C8      1.397   .     A
C6     C15     1.394   .     A
C6     H629    1.084   1_554 S
C7     S194    1.769   1_455 S
C8     S127    1.768   .     S
C9     C11     1.404   .     A
C9     H33     1.075   .     S
C10    H32     1.074   .     S
C10    C13     1.404   .     A
C11    C16     1.425   .     A
C11    C14     1.412   .     A
C12    C23     1.398   .     S
C12    O55     1.301   .     A
C12    O118    1.294   .     S
C13    C17     1.426   .     A
C13    C15     1.412   .     A
C14    C614    1.389   .     S
C15    C615    1.388   1_554 S
C16    C19     1.416   .     A
C16    C611    1.427   .     S
C17    C18     1.416   .     A
C17    C610    1.427   1_554 S
C18    C20     1.383   .     A
C18    H36     1.075   .     S
C19    H37     1.075   .     S
C19    C21     1.381   .     A
C20    H25     1.085   .     S
C20    C608    1.389   1_554 S
C21    H31     1.085   .     S
C21    C609    1.388   .     S
C22    C353    1.332   1_455 S
C22    H236    1.086   .     S
C23    C484    1.332   1_545 S
C23    H422    1.086   1_545 S
C24    O58     1.321   .     A
C24    O188    1.315   1_455 S
H26    C221    1.086   .     S
H27    O43     0.990   .     S
H28    O46     0.990   .     S
H29    O49     0.991   .     S
H30    O53     0.991   .     S
H34    C599    1.084   1_554 S
H35    C600    1.084   .     S
H38    C418    1.086   1_545 S
N39    S63     1.734   .     S
N39    Zn66    2.059   .     S
N39    N40     1.291   .     D
N40    S64     1.736   .     S
N40    Zn65    2.059   .     S
O41    Zn65    1.954   .     S
O41    C67     1.294   .     S
O42    S61     1.501   .     D
O43    S61     1.682   .     S
O44    S62     1.501   .     D
O45    S62     1.504   .     D
O46    S62     1.683   .     S
O47    S63     1.499   .     D
O48    S63     1.503   .     D
O49    S63     1.670   .     S
O50    S64     1.493   .     D
O51    S64     1.503   .     D
O52    Zn66    1.954   .     S
O52    C144    1.294   1_455 S
O53    S64     1.678   .     S
O54    Zn66    1.966   .     S
O55    Zn65    1.966   .     S
O56    Zn65    1.951   .     S
O56    C90     1.315   .     S
O57    Zn66    1.951   .     S
O57    C134    1.317   1_455 S
O58    Zn66    1.868   .     S
O59    Zn65    1.868   .     S
O60    S61     1.504   .     D
S61    C140    1.768   1_455 S
S62    C73     1.769   .     S
C67    O120    1.302   .     A
C67    C88     1.398   .     S
C68    C70     1.486   .     S
C68    O125    1.321   .     A
C68    O189    1.317   .     S
C69    C75     1.398   .     A
C69    C90     1.483   .     S
C69    C73     1.423   .     A
C70    C74     1.424   .     A
C70    C76     1.401   .     A
C71    C80     1.395   .     A
C71    C73     1.398   .     A
C71    H694    1.084   .     S
C72    C74     1.397   .     A
C72    C81     1.394   .     A
C72    H695    1.084   1_554 S
C74    S193    1.768   .     S
C75    C77     1.404   .     A
C75    H99     1.075   .     S
C76    H98     1.074   .     S
C76    C79     1.404   .     A
C77    C82     1.425   .     A
C77    C80     1.412   .     A
C78    C89     1.398   .     S
C78    O121    1.301   .     A
C78    O184    1.294   .     S
C79    C83     1.426   .     A
C79    C81     1.412   .     A
C80    C680    1.389   .     S
C81    C681    1.388   1_554 S
C82    C85     1.416   .     A
C82    C677    1.427   .     S
C83    C84     1.416   .     A
C83    C676    1.427   1_554 S
C84    C86     1.383   .     A
C84    H102    1.075   .     S
C85    H103    1.075   .     S
C85    C87     1.381   .     A
C86    H91     1.085   .     S
C86    C674    1.389   1_554 S
C87    H97     1.085   .     S
C87    C675    1.388   .     S
C88    C221    1.332   .     S
C88    H302    1.086   .     S
C89    C550    1.332   1_545 S
C89    H488    1.086   1_545 S
C90    O124    1.321   .     A
H92    C287    1.086   .     S
H93    O109    0.990   .     S
H94    O112    0.990   .     S
H95    O115    0.991   .     S
H96    O119    0.991   .     S
H100   C665    1.084   1_554 S
H101   C666    1.084   .     S
H104   C484    1.086   1_545 S
N105   S129    1.734   .     S
N105   Zn132   2.059   .     S
N105   N106    1.291   .     D
N106   S130    1.736   .     S
N106   Zn131   2.059   .     S
O107   Zn131   1.954   .     S
O107   C133    1.294   .     S
O108   S127    1.501   .     D
O109   S127    1.682   .     S
O110   S128    1.501   .     D
O111   S128    1.504   .     D
O112   S128    1.683   .     S
O113   S129    1.499   .     D
O114   S129    1.503   .     D
O115   S129    1.670   .     S
O116   S130    1.493   .     D
O117   S130    1.503   .     D
O118   Zn132   1.954   .     S
O119   S130    1.678   .     S
O120   Zn132   1.966   .     S
O121   Zn131   1.966   .     S
O122   Zn131   1.951   .     S
O122   C156    1.315   .     S
O123   Zn132   1.951   .     S
O124   Zn132   1.868   .     S
O125   Zn131   1.868   .     S
O126   S127    1.504   .     D
S128   C139    1.769   .     S
C133   O186    1.302   .     A
C133   C154    1.398   .     S
C134   C136    1.486   .     S
C134   O191    1.321   .     A
C134   O57     1.317   1_655 S
C135   C141    1.398   .     A
C135   C156    1.483   .     S
C135   C139    1.423   .     A
C136   C140    1.424   .     A
C136   C142    1.401   .     A
C137   C146    1.395   .     A
C137   C139    1.398   .     A
C137   H760    1.084   .     S
C138   C140    1.397   .     A
C138   C147    1.394   .     A
C138   H761    1.084   1_554 S
C140   S61     1.768   1_655 S
C141   C143    1.404   .     A
C141   H165    1.075   .     S
C142   H164    1.074   .     S
C142   C145    1.404   .     A
C143   C148    1.425   .     A
C143   C146    1.412   .     A
C144   C155    1.398   .     S
C144   O187    1.301   .     A
C144   O52     1.294   1_655 S
C145   C149    1.426   .     A
C145   C147    1.412   .     A
C146   C746    1.389   .     S
C147   C747    1.388   1_554 S
C148   C151    1.416   .     A
C148   C743    1.427   .     S
C149   C150    1.416   .     A
C149   C742    1.427   1_554 S
C150   C152    1.383   .     A
C150   H168    1.075   .     S
C151   H169    1.075   .     S
C151   C153    1.381   .     A
C152   H157    1.085   .     S
C152   C740    1.389   1_554 S
C153   H163    1.085   .     S
C153   C741    1.388   .     S
C154   C287    1.332   .     S
C154   H368    1.086   .     S
C155   C418    1.332   1_645 S
C155   H554    1.086   1_545 S
C156   O190    1.321   .     A
H158   C353    1.086   .     S
H159   O175    0.990   .     S
H160   O178    0.990   .     S
H161   O181    0.991   .     S
H162   O185    0.991   .     S
H166   C731    1.084   1_554 S
H167   C732    1.084   .     S
H170   C550    1.086   1_545 S
N171   S195    1.734   .     S
N171   Zn198   2.059   .     S
N171   N172    1.291   .     D
N172   S196    1.736   .     S
N172   Zn197   2.059   .     S
O173   Zn197   1.954   .     S
O173   C1      1.294   1_655 S
O174   S193    1.501   .     D
O175   S193    1.682   .     S
O176   S194    1.501   .     D
O177   S194    1.504   .     D
O178   S194    1.683   .     S
O179   S195    1.499   .     D
O180   S195    1.503   .     D
O181   S195    1.670   .     S
O182   S196    1.493   .     D
O183   S196    1.503   .     D
O184   Zn198   1.954   .     S
O185   S196    1.678   .     S
O186   Zn198   1.966   .     S
O187   Zn197   1.966   .     S
O188   Zn197   1.951   .     S
O188   C24     1.315   1_655 S
O189   Zn198   1.951   .     S
O190   Zn198   1.868   .     S
O191   Zn197   1.868   .     S
O192   S193    1.504   .     D
S194   C7      1.769   1_655 S
C199   O252    1.302   .     A
C199   C220    1.398   .     S
C199   O371    1.294   1_455 S
C200   C202    1.486   .     S
C200   O257    1.321   .     A
C200   O321    1.317   .     S
C201   C207    1.398   .     A
C201   C222    1.483   .     S
C201   C205    1.423   .     A
C202   C206    1.424   .     A
C202   C208    1.401   .     A
C203   C212    1.395   .     A
C203   C205    1.398   .     A
C203   H826    1.084   .     S
C204   C206    1.397   .     A
C204   C213    1.394   .     A
C204   H827    1.084   1_554 S
C205   S392    1.769   1_455 S
C206   S325    1.768   .     S
C207   C209    1.404   .     A
C207   H231    1.075   .     S
C208   H230    1.074   .     S
C208   C211    1.404   .     A
C209   C214    1.425   .     A
C209   C212    1.412   .     A
C210   C221    1.398   .     S
C210   O253    1.301   .     A
C210   O316    1.294   .     S
C211   C215    1.426   .     A
C211   C213    1.412   .     A
C212   C812    1.389   .     S
C213   C813    1.388   1_554 S
C214   C217    1.416   .     A
C214   C809    1.427   .     S
C215   C216    1.416   .     A
C215   C808    1.427   1_554 S
C216   C218    1.383   .     A
C216   H234    1.075   .     S
C217   H235    1.075   .     S
C217   C219    1.381   .     A
C218   H223    1.085   .     S
C218   C806    1.389   1_554 S
C219   H229    1.085   .     S
C219   C807    1.388   .     S
C220   C551    1.332   1_455 S
C220   H434    1.086   .     S
C222   O256    1.321   .     A
C222   O386    1.315   1_455 S
H224   C419    1.086   .     S
H225   O241    0.990   .     S
H226   O244    0.990   .     S
H227   O247    0.991   .     S
H228   O251    0.991   .     S
H232   C797    1.084   1_554 S
H233   C798    1.084   .     S
N237   S261    1.734   .     S
N237   Zn264   2.059   .     S
N237   N238    1.291   .     D
N238   S262    1.736   .     S
N238   Zn263   2.059   .     S
O239   Zn263   1.954   .     S
O239   C265    1.294   .     S
O240   S259    1.501   .     D
O241   S259    1.682   .     S
O242   S260    1.501   .     D
O243   S260    1.504   .     D
O244   S260    1.683   .     S
O245   S261    1.499   .     D
O246   S261    1.503   .     D
O247   S261    1.670   .     S
O248   S262    1.493   .     D
O249   S262    1.503   .     D
O250   Zn264   1.954   .     S
O250   C342    1.294   1_455 S
O251   S262    1.678   .     S
O252   Zn264   1.966   .     S
O253   Zn263   1.966   .     S
O254   Zn263   1.951   .     S
O254   C288    1.315   .     S
O255   Zn264   1.951   .     S
O255   C332    1.317   1_455 S
O256   Zn264   1.868   .     S
O257   Zn263   1.868   .     S
O258   S259    1.504   .     D
S259   C338    1.768   1_455 S
S260   C271    1.769   .     S
C265   O318    1.302   .     A
C265   C286    1.398   .     S
C266   C268    1.486   .     S
C266   O323    1.321   .     A
C266   O387    1.317   .     S
C267   C273    1.398   .     A
C267   C288    1.483   .     S
C267   C271    1.423   .     A
C268   C272    1.424   .     A
C268   C274    1.401   .     A
C269   C278    1.395   .     A
C269   C271    1.398   .     A
C269   H892    1.084   .     S
C270   C272    1.397   .     A
C270   C279    1.394   .     A
C270   H893    1.084   1_554 S
C272   S391    1.768   .     S
C273   C275    1.404   .     A
C273   H297    1.075   .     S
C274   H296    1.074   .     S
C274   C277    1.404   .     A
C275   C280    1.425   .     A
C275   C278    1.412   .     A
C276   C287    1.398   .     S
C276   O319    1.301   .     A
C276   O382    1.294   .     S
C277   C281    1.426   .     A
C277   C279    1.412   .     A
C278   C878    1.389   .     S
C279   C879    1.388   1_554 S
C280   C283    1.416   .     A
C280   C875    1.427   .     S
C281   C282    1.416   .     A
C281   C874    1.427   1_554 S
C282   C284    1.383   .     A
C282   H300    1.075   .     S
C283   H301    1.075   .     S
C283   C285    1.381   .     A
C284   H289    1.085   .     S
C284   C872    1.389   1_554 S
C285   H295    1.085   .     S
C285   C873    1.388   .     S
C286   C419    1.332   .     S
C286   H500    1.086   .     S
C288   O322    1.321   .     A
H290   C485    1.086   .     S
H291   O307    0.990   .     S
H292   O310    0.990   .     S
H293   O313    0.991   .     S
H294   O317    0.991   .     S
H298   C863    1.084   1_554 S
H299   C864    1.084   .     S
N303   S327    1.734   .     S
N303   Zn330   2.059   .     S
N303   N304    1.291   .     D
N304   S328    1.736   .     S
N304   Zn329   2.059   .     S
O305   Zn329   1.954   .     S
O305   C331    1.294   .     S
O306   S325    1.501   .     D
O307   S325    1.682   .     S
O308   S326    1.501   .     D
O309   S326    1.504   .     D
O310   S326    1.683   .     S
O311   S327    1.499   .     D
O312   S327    1.503   .     D
O313   S327    1.670   .     S
O314   S328    1.493   .     D
O315   S328    1.503   .     D
O316   Zn330   1.954   .     S
O317   S328    1.678   .     S
O318   Zn330   1.966   .     S
O319   Zn329   1.966   .     S
O320   Zn329   1.951   .     S
O320   C354    1.315   .     S
O321   Zn330   1.951   .     S
O322   Zn330   1.868   .     S
O323   Zn329   1.868   .     S
O324   S325    1.504   .     D
S326   C337    1.769   .     S
C331   O384    1.302   .     A
C331   C352    1.398   .     S
C332   C334    1.486   .     S
C332   O389    1.321   .     A
C332   O255    1.317   1_655 S
C333   C339    1.398   .     A
C333   C354    1.483   .     S
C333   C337    1.423   .     A
C334   C338    1.424   .     A
C334   C340    1.401   .     A
C335   C344    1.395   .     A
C335   C337    1.398   .     A
C335   H958    1.084   .     S
C336   C338    1.397   .     A
C336   C345    1.394   .     A
C336   H959    1.084   1_554 S
C338   S259    1.768   1_655 S
C339   C341    1.404   .     A
C339   H363    1.075   .     S
C340   H362    1.074   .     S
C340   C343    1.404   .     A
C341   C346    1.425   .     A
C341   C344    1.412   .     A
C342   C353    1.398   .     S
C342   O385    1.301   .     A
C342   O250    1.294   1_655 S
C343   C347    1.426   .     A
C343   C345    1.412   .     A
C344   C944    1.389   .     S
C345   C945    1.388   1_554 S
C346   C349    1.416   .     A
C346   C941    1.427   .     S
C347   C348    1.416   .     A
C347   C940    1.427   1_554 S
C348   C350    1.383   .     A
C348   H366    1.075   .     S
C349   H367    1.075   .     S
C349   C351    1.381   .     A
C350   H355    1.085   .     S
C350   C938    1.389   1_554 S
C351   H361    1.085   .     S
C351   C939    1.388   .     S
C352   C485    1.332   .     S
C352   H566    1.086   .     S
C353   C22     1.332   1_655 S
C354   O388    1.321   .     A
H356   C551    1.086   .     S
H357   O373    0.990   .     S
H358   O376    0.990   .     S
H359   O379    0.991   .     S
H360   O383    0.991   .     S
H364   C929    1.084   1_554 S
H365   C930    1.084   .     S
N369   S393    1.734   .     S
N369   Zn396   2.059   .     S
N369   N370    1.291   .     D
N370   S394    1.736   .     S
N370   Zn395   2.059   .     S
O371   Zn395   1.954   .     S
O371   C199    1.294   1_655 S
O372   S391    1.501   .     D
O373   S391    1.682   .     S
O374   S392    1.501   .     D
O375   S392    1.504   .     D
O376   S392    1.683   .     S
O377   S393    1.499   .     D
O378   S393    1.503   .     D
O379   S393    1.670   .     S
O380   S394    1.493   .     D
O381   S394    1.503   .     D
O382   Zn396   1.954   .     S
O383   S394    1.678   .     S
O384   Zn396   1.966   .     S
O385   Zn395   1.966   .     S
O386   Zn395   1.951   .     S
O386   C222    1.315   1_655 S
O387   Zn396   1.951   .     S
O388   Zn396   1.868   .     S
O389   Zn395   1.868   .     S
O390   S391    1.504   .     D
S392   C205    1.769   1_655 S
C397   O450    1.302   .     A
C397   C418    1.398   .     S
C397   O569    1.294   1_455 S
C398   C400    1.486   .     S
C398   O455    1.321   .     A
C398   O519    1.317   .     S
C399   C405    1.398   .     A
C399   C420    1.483   .     S
C399   C403    1.423   .     A
C400   C404    1.424   .     A
C400   C406    1.401   .     A
C401   C410    1.395   .     A
C401   C403    1.398   .     A
C401   H1024   1.084   .     S
C402   C404    1.397   .     A
C402   C411    1.394   .     A
C402   H1025   1.084   1_554 S
C403   S590    1.769   1_455 S
C404   S523    1.768   .     S
C405   C407    1.404   .     A
C405   H429    1.075   .     S
C406   H428    1.074   .     S
C406   C409    1.404   .     A
C407   C412    1.425   .     A
C407   C410    1.412   .     A
C408   C419    1.398   .     S
C408   O451    1.301   .     A
C408   O514    1.294   .     S
C409   C413    1.426   .     A
C409   C411    1.412   .     A
C410   C1010   1.389   .     S
C411   C1011   1.388   1_554 S
C412   C415    1.416   .     A
C412   C1007   1.427   .     S
C413   C414    1.416   .     A
C413   C1006   1.427   1_554 S
C414   C416    1.383   .     A
C414   H432    1.075   .     S
C415   H433    1.075   .     S
C415   C417    1.381   .     A
C416   H421    1.085   .     S
C416   C1004   1.389   1_554 S
C417   H427    1.085   .     S
C417   C1005   1.388   .     S
C418   C155    1.332   1_465 S
C418   H38     1.086   1_565 S
C420   O454    1.321   .     A
C420   O584    1.315   1_455 S
H422   C23     1.086   1_565 S
H423   O439    0.990   .     S
H424   O442    0.990   .     S
H425   O445    0.991   .     S
H426   O449    0.991   .     S
H430   C995    1.084   1_554 S
H431   C996    1.084   .     S
N435   S459    1.734   .     S
N435   Zn462   2.059   .     S
N435   N436    1.291   .     D
N436   S460    1.736   .     S
N436   Zn461   2.059   .     S
O437   Zn461   1.954   .     S
O437   C463    1.294   .     S
O438   S457    1.501   .     D
O439   S457    1.682   .     S
O440   S458    1.501   .     D
O441   S458    1.504   .     D
O442   S458    1.683   .     S
O443   S459    1.499   .     D
O444   S459    1.503   .     D
O445   S459    1.670   .     S
O446   S460    1.493   .     D
O447   S460    1.503   .     D
O448   Zn462   1.954   .     S
O448   C540    1.294   1_455 S
O449   S460    1.678   .     S
O450   Zn462   1.966   .     S
O451   Zn461   1.966   .     S
O452   Zn461   1.951   .     S
O452   C486    1.315   .     S
O453   Zn462   1.951   .     S
O453   C530    1.317   1_455 S
O454   Zn462   1.868   .     S
O455   Zn461   1.868   .     S
O456   S457    1.504   .     D
S457   C536    1.768   1_455 S
S458   C469    1.769   .     S
C463   O516    1.302   .     A
C463   C484    1.398   .     S
C464   C466    1.486   .     S
C464   O521    1.321   .     A
C464   O585    1.317   .     S
C465   C471    1.398   .     A
C465   C486    1.483   .     S
C465   C469    1.423   .     A
C466   C470    1.424   .     A
C466   C472    1.401   .     A
C467   C476    1.395   .     A
C467   C469    1.398   .     A
C467   H1090   1.084   .     S
C468   C470    1.397   .     A
C468   C477    1.394   .     A
C468   H1091   1.084   1_554 S
C470   S589    1.768   .     S
C471   C473    1.404   .     A
C471   H495    1.075   .     S
C472   H494    1.074   .     S
C472   C475    1.404   .     A
C473   C478    1.425   .     A
C473   C476    1.412   .     A
C474   C485    1.398   .     S
C474   O517    1.301   .     A
C474   O580    1.294   .     S
C475   C479    1.426   .     A
C475   C477    1.412   .     A
C476   C1076   1.389   .     S
C477   C1077   1.388   1_554 S
C478   C481    1.416   .     A
C478   C1073   1.427   .     S
C479   C480    1.416   .     A
C479   C1072   1.427   1_554 S
C480   C482    1.383   .     A
C480   H498    1.075   .     S
C481   H499    1.075   .     S
C481   C483    1.381   .     A
C482   H487    1.085   .     S
C482   C1070   1.389   1_554 S
C483   H493    1.085   .     S
C483   C1071   1.388   .     S
C484   C23     1.332   1_565 S
C484   H104    1.086   1_565 S
C486   O520    1.321   .     A
H488   C89     1.086   1_565 S
H489   O505    0.990   .     S
H490   O508    0.990   .     S
H491   O511    0.991   .     S
H492   O515    0.991   .     S
H496   C1061   1.084   1_554 S
H497   C1062   1.084   .     S
N501   S525    1.734   .     S
N501   Zn528   2.059   .     S
N501   N502    1.291   .     D
N502   S526    1.736   .     S
N502   Zn527   2.059   .     S
O503   Zn527   1.954   .     S
O503   C529    1.294   .     S
O504   S523    1.501   .     D
O505   S523    1.682   .     S
O506   S524    1.501   .     D
O507   S524    1.504   .     D
O508   S524    1.683   .     S
O509   S525    1.499   .     D
O510   S525    1.503   .     D
O511   S525    1.670   .     S
O512   S526    1.493   .     D
O513   S526    1.503   .     D
O514   Zn528   1.954   .     S
O515   S526    1.678   .     S
O516   Zn528   1.966   .     S
O517   Zn527   1.966   .     S
O518   Zn527   1.951   .     S
O518   C552    1.315   .     S
O519   Zn528   1.951   .     S
O520   Zn528   1.868   .     S
O521   Zn527   1.868   .     S
O522   S523    1.504   .     D
S524   C535    1.769   .     S
C529   O582    1.302   .     A
C529   C550    1.398   .     S
C530   C532    1.486   .     S
C530   O587    1.321   .     A
C530   O453    1.317   1_655 S
C531   C537    1.398   .     A
C531   C552    1.483   .     S
C531   C535    1.423   .     A
C532   C536    1.424   .     A
C532   C538    1.401   .     A
C533   C542    1.395   .     A
C533   C535    1.398   .     A
C533   H1156   1.084   .     S
C534   C536    1.397   .     A
C534   C543    1.394   .     A
C534   H1157   1.084   1_554 S
C536   S457    1.768   1_655 S
C537   C539    1.404   .     A
C537   H561    1.075   .     S
C538   H560    1.074   .     S
C538   C541    1.404   .     A
C539   C544    1.425   .     A
C539   C542    1.412   .     A
C540   C551    1.398   .     S
C540   O583    1.301   .     A
C540   O448    1.294   1_655 S
C541   C545    1.426   .     A
C541   C543    1.412   .     A
C542   C1142   1.389   .     S
C543   C1143   1.388   1_554 S
C544   C547    1.416   .     A
C544   C1139   1.427   .     S
C545   C546    1.416   .     A
C545   C1138   1.427   1_554 S
C546   C548    1.383   .     A
C546   H564    1.075   .     S
C547   H565    1.075   .     S
C547   C549    1.381   .     A
C548   H553    1.085   .     S
C548   C1136   1.389   1_554 S
C549   H559    1.085   .     S
C549   C1137   1.388   .     S
C550   C89     1.332   1_565 S
C550   H170    1.086   1_565 S
C551   C220    1.332   1_655 S
C552   O586    1.321   .     A
H554   C155    1.086   1_565 S
H555   O571    0.990   .     S
H556   O574    0.990   .     S
H557   O577    0.991   .     S
H558   O581    0.991   .     S
H562   C1127   1.084   1_554 S
H563   C1128   1.084   .     S
N567   S591    1.734   .     S
N567   Zn594   2.059   .     S
N567   N568    1.291   .     D
N568   S592    1.736   .     S
N568   Zn593   2.059   .     S
O569   Zn593   1.954   .     S
O569   C397    1.294   1_655 S
O570   S589    1.501   .     D
O571   S589    1.682   .     S
O572   S590    1.501   .     D
O573   S590    1.504   .     D
O574   S590    1.683   .     S
O575   S591    1.499   .     D
O576   S591    1.503   .     D
O577   S591    1.670   .     S
O578   S592    1.493   .     D
O579   S592    1.503   .     D
O580   Zn594   1.954   .     S
O581   S592    1.678   .     S
O582   Zn594   1.966   .     S
O583   Zn593   1.966   .     S
O584   Zn593   1.951   .     S
O584   C420    1.315   1_655 S
O585   Zn594   1.951   .     S
O586   Zn594   1.868   .     S
O587   Zn593   1.868   .     S
O588   S589    1.504   .     D
S590   C403    1.769   1_655 S
C595   O648    1.302   .     A
C595   C616    1.398   .     S
C595   O767    1.294   1_455 S
C596   C598    1.486   .     S
C596   O653    1.321   .     A
C596   O717    1.317   .     S
C597   C603    1.398   .     A
C597   C618    1.483   .     S
C597   C601    1.423   .     A
C598   C602    1.424   .     A
C598   C604    1.401   .     A
C599   C608    1.395   .     A
C599   C601    1.398   .     A
C599   H34     1.084   1_556 S
C600   C602    1.397   .     A
C600   C609    1.394   .     A
C601   S788    1.769   1_455 S
C602   S721    1.768   .     S
C603   C605    1.404   .     A
C603   H627    1.075   .     S
C604   H626    1.074   .     S
C604   C607    1.404   .     A
C605   C610    1.425   .     A
C605   C608    1.412   .     A
C606   C617    1.398   .     S
C606   O649    1.301   .     A
C606   O712    1.294   .     S
C607   C611    1.426   .     A
C607   C609    1.412   .     A
C608   C20     1.389   1_556 S
C610   C613    1.416   .     A
C610   C17     1.427   1_556 S
C611   C612    1.416   .     A
C612   C614    1.383   .     A
C612   H630    1.075   .     S
C613   H631    1.075   .     S
C613   C615    1.381   .     A
C614   H619    1.085   .     S
C615   H625    1.085   .     S
C615   C15     1.388   1_556 S
C616   C947    1.332   1_455 S
C616   H830    1.086   .     S
C617   C1078   1.332   1_545 S
C617   H1016   1.086   1_545 S
C618   O652    1.321   .     A
C618   O782    1.315   1_455 S
H620   C815    1.086   .     S
H621   O637    0.990   .     S
H622   O640    0.990   .     S
H623   O643    0.991   .     S
H624   O647    0.991   .     S
H629   C6      1.084   1_556 S
H632   C1012   1.086   1_545 S
N633   S657    1.734   .     S
N633   Zn660   2.059   .     S
N633   N634    1.291   .     D
N634   S658    1.736   .     S
N634   Zn659   2.059   .     S
O635   Zn659   1.954   .     S
O635   C661    1.294   .     S
O636   S655    1.501   .     D
O637   S655    1.682   .     S
O638   S656    1.501   .     D
O639   S656    1.504   .     D
O640   S656    1.683   .     S
O641   S657    1.499   .     D
O642   S657    1.503   .     D
O643   S657    1.670   .     S
O644   S658    1.493   .     D
O645   S658    1.503   .     D
O646   Zn660   1.954   .     S
O646   C738    1.294   1_455 S
O647   S658    1.678   .     S
O648   Zn660   1.966   .     S
O649   Zn659   1.966   .     S
O650   Zn659   1.951   .     S
O650   C684    1.315   .     S
O651   Zn660   1.951   .     S
O651   C728    1.317   1_455 S
O652   Zn660   1.868   .     S
O653   Zn659   1.868   .     S
O654   S655    1.504   .     D
S655   C734    1.768   1_455 S
S656   C667    1.769   .     S
C661   O714    1.302   .     A
C661   C682    1.398   .     S
C662   C664    1.486   .     S
C662   O719    1.321   .     A
C662   O783    1.317   .     S
C663   C669    1.398   .     A
C663   C684    1.483   .     S
C663   C667    1.423   .     A
C664   C668    1.424   .     A
C664   C670    1.401   .     A
C665   C674    1.395   .     A
C665   C667    1.398   .     A
C665   H100    1.084   1_556 S
C666   C668    1.397   .     A
C666   C675    1.394   .     A
C668   S787    1.768   .     S
C669   C671    1.404   .     A
C669   H693    1.075   .     S
C670   H692    1.074   .     S
C670   C673    1.404   .     A
C671   C676    1.425   .     A
C671   C674    1.412   .     A
C672   C683    1.398   .     S
C672   O715    1.301   .     A
C672   O778    1.294   .     S
C673   C677    1.426   .     A
C673   C675    1.412   .     A
C674   C86     1.389   1_556 S
C676   C679    1.416   .     A
C676   C83     1.427   1_556 S
C677   C678    1.416   .     A
C678   C680    1.383   .     A
C678   H696    1.075   .     S
C679   H697    1.075   .     S
C679   C681    1.381   .     A
C680   H685    1.085   .     S
C681   H691    1.085   .     S
C681   C81     1.388   1_556 S
C682   C815    1.332   .     S
C682   H896    1.086   .     S
C683   C1144   1.332   1_545 S
C683   H1082   1.086   1_545 S
C684   O718    1.321   .     A
H686   C881    1.086   .     S
H687   O703    0.990   .     S
H688   O706    0.990   .     S
H689   O709    0.991   .     S
H690   O713    0.991   .     S
H695   C72     1.084   1_556 S
H698   C1078   1.086   1_545 S
N699   S723    1.734   .     S
N699   Zn726   2.059   .     S
N699   N700    1.291   .     D
N700   S724    1.736   .     S
N700   Zn725   2.059   .     S
O701   Zn725   1.954   .     S
O701   C727    1.294   .     S
O702   S721    1.501   .     D
O703   S721    1.682   .     S
O704   S722    1.501   .     D
O705   S722    1.504   .     D
O706   S722    1.683   .     S
O707   S723    1.499   .     D
O708   S723    1.503   .     D
O709   S723    1.670   .     S
O710   S724    1.493   .     D
O711   S724    1.503   .     D
O712   Zn726   1.954   .     S
O713   S724    1.678   .     S
O714   Zn726   1.966   .     S
O715   Zn725   1.966   .     S
O716   Zn725   1.951   .     S
O716   C750    1.315   .     S
O717   Zn726   1.951   .     S
O718   Zn726   1.868   .     S
O719   Zn725   1.868   .     S
O720   S721    1.504   .     D
S722   C733    1.769   .     S
C727   O780    1.302   .     A
C727   C748    1.398   .     S
C728   C730    1.486   .     S
C728   O785    1.321   .     A
C728   O651    1.317   1_655 S
C729   C735    1.398   .     A
C729   C750    1.483   .     S
C729   C733    1.423   .     A
C730   C734    1.424   .     A
C730   C736    1.401   .     A
C731   C740    1.395   .     A
C731   C733    1.398   .     A
C731   H166    1.084   1_556 S
C732   C734    1.397   .     A
C732   C741    1.394   .     A
C734   S655    1.768   1_655 S
C735   C737    1.404   .     A
C735   H759    1.075   .     S
C736   H758    1.074   .     S
C736   C739    1.404   .     A
C737   C742    1.425   .     A
C737   C740    1.412   .     A
C738   C749    1.398   .     S
C738   O781    1.301   .     A
C738   O646    1.294   1_655 S
C739   C743    1.426   .     A
C739   C741    1.412   .     A
C740   C152    1.389   1_556 S
C742   C745    1.416   .     A
C742   C149    1.427   1_556 S
C743   C744    1.416   .     A
C744   C746    1.383   .     A
C744   H762    1.075   .     S
C745   H763    1.075   .     S
C745   C747    1.381   .     A
C746   H751    1.085   .     S
C747   H757    1.085   .     S
C747   C147    1.388   1_556 S
C748   C881    1.332   .     S
C748   H962    1.086   .     S
C749   C1012   1.332   1_645 S
C749   H1148   1.086   1_545 S
C750   O784    1.321   .     A
H752   C947    1.086   .     S
H753   O769    0.990   .     S
H754   O772    0.990   .     S
H755   O775    0.991   .     S
H756   O779    0.991   .     S
H761   C138    1.084   1_556 S
H764   C1144   1.086   1_545 S
N765   S789    1.734   .     S
N765   Zn792   2.059   .     S
N765   N766    1.291   .     D
N766   S790    1.736   .     S
N766   Zn791   2.059   .     S
O767   Zn791   1.954   .     S
O767   C595    1.294   1_655 S
O768   S787    1.501   .     D
O769   S787    1.682   .     S
O770   S788    1.501   .     D
O771   S788    1.504   .     D
O772   S788    1.683   .     S
O773   S789    1.499   .     D
O774   S789    1.503   .     D
O775   S789    1.670   .     S
O776   S790    1.493   .     D
O777   S790    1.503   .     D
O778   Zn792   1.954   .     S
O779   S790    1.678   .     S
O780   Zn792   1.966   .     S
O781   Zn791   1.966   .     S
O782   Zn791   1.951   .     S
O782   C618    1.315   1_655 S
O783   Zn792   1.951   .     S
O784   Zn792   1.868   .     S
O785   Zn791   1.868   .     S
O786   S787    1.504   .     D
S788   C601    1.769   1_655 S
C793   O846    1.302   .     A
C793   C814    1.398   .     S
C793   O965    1.294   1_455 S
C794   C796    1.486   .     S
C794   O851    1.321   .     A
C794   O915    1.317   .     S
C795   C801    1.398   .     A
C795   C816    1.483   .     S
C795   C799    1.423   .     A
C796   C800    1.424   .     A
C796   C802    1.401   .     A
C797   C806    1.395   .     A
C797   C799    1.398   .     A
C797   H232    1.084   1_556 S
C798   C800    1.397   .     A
C798   C807    1.394   .     A
C799   S986    1.769   1_455 S
C800   S919    1.768   .     S
C801   C803    1.404   .     A
C801   H825    1.075   .     S
C802   H824    1.074   .     S
C802   C805    1.404   .     A
C803   C808    1.425   .     A
C803   C806    1.412   .     A
C804   C815    1.398   .     S
C804   O847    1.301   .     A
C804   O910    1.294   .     S
C805   C809    1.426   .     A
C805   C807    1.412   .     A
C806   C218    1.389   1_556 S
C808   C811    1.416   .     A
C808   C215    1.427   1_556 S
C809   C810    1.416   .     A
C810   C812    1.383   .     A
C810   H828    1.075   .     S
C811   H829    1.075   .     S
C811   C813    1.381   .     A
C812   H817    1.085   .     S
C813   H823    1.085   .     S
C813   C213    1.388   1_556 S
C814   C1145   1.332   1_455 S
C814   H1028   1.086   .     S
C816   O850    1.321   .     A
C816   O980    1.315   1_455 S
H818   C1013   1.086   .     S
H819   O835    0.990   .     S
H820   O838    0.990   .     S
H821   O841    0.991   .     S
H822   O845    0.991   .     S
H827   C204    1.084   1_556 S
N831   S855    1.734   .     S
N831   Zn858   2.059   .     S
N831   N832    1.291   .     D
N832   S856    1.736   .     S
N832   Zn857   2.059   .     S
O833   Zn857   1.954   .     S
O833   C859    1.294   .     S
O834   S853    1.501   .     D
O835   S853    1.682   .     S
O836   S854    1.501   .     D
O837   S854    1.504   .     D
O838   S854    1.683   .     S
O839   S855    1.499   .     D
O840   S855    1.503   .     D
O841   S855    1.670   .     S
O842   S856    1.493   .     D
O843   S856    1.503   .     D
O844   Zn858   1.954   .     S
O844   C936    1.294   1_455 S
O845   S856    1.678   .     S
O846   Zn858   1.966   .     S
O847   Zn857   1.966   .     S
O848   Zn857   1.951   .     S
O848   C882    1.315   .     S
O849   Zn858   1.951   .     S
O849   C926    1.317   1_455 S
O850   Zn858   1.868   .     S
O851   Zn857   1.868   .     S
O852   S853    1.504   .     D
S853   C932    1.768   1_455 S
S854   C865    1.769   .     S
C859   O912    1.302   .     A
C859   C880    1.398   .     S
C860   C862    1.486   .     S
C860   O917    1.321   .     A
C860   O981    1.317   .     S
C861   C867    1.398   .     A
C861   C882    1.483   .     S
C861   C865    1.423   .     A
C862   C866    1.424   .     A
C862   C868    1.401   .     A
C863   C872    1.395   .     A
C863   C865    1.398   .     A
C863   H298    1.084   1_556 S
C864   C866    1.397   .     A
C864   C873    1.394   .     A
C866   S985    1.768   .     S
C867   C869    1.404   .     A
C867   H891    1.075   .     S
C868   H890    1.074   .     S
C868   C871    1.404   .     A
C869   C874    1.425   .     A
C869   C872    1.412   .     A
C870   C881    1.398   .     S
C870   O913    1.301   .     A
C870   O976    1.294   .     S
C871   C875    1.426   .     A
C871   C873    1.412   .     A
C872   C284    1.389   1_556 S
C874   C877    1.416   .     A
C874   C281    1.427   1_556 S
C875   C876    1.416   .     A
C876   C878    1.383   .     A
C876   H894    1.075   .     S
C877   H895    1.075   .     S
C877   C879    1.381   .     A
C878   H883    1.085   .     S
C879   H889    1.085   .     S
C879   C279    1.388   1_556 S
C880   C1013   1.332   .     S
C880   H1094   1.086   .     S
C882   O916    1.321   .     A
H884   C1079   1.086   .     S
H885   O901    0.990   .     S
H886   O904    0.990   .     S
H887   O907    0.991   .     S
H888   O911    0.991   .     S
H893   C270    1.084   1_556 S
N897   S921    1.734   .     S
N897   Zn924   2.059   .     S
N897   N898    1.291   .     D
N898   S922    1.736   .     S
N898   Zn923   2.059   .     S
O899   Zn923   1.954   .     S
O899   C925    1.294   .     S
O900   S919    1.501   .     D
O901   S919    1.682   .     S
O902   S920    1.501   .     D
O903   S920    1.504   .     D
O904   S920    1.683   .     S
O905   S921    1.499   .     D
O906   S921    1.503   .     D
O907   S921    1.670   .     S
O908   S922    1.493   .     D
O909   S922    1.503   .     D
O910   Zn924   1.954   .     S
O911   S922    1.678   .     S
O912   Zn924   1.966   .     S
O913   Zn923   1.966   .     S
O914   Zn923   1.951   .     S
O914   C948    1.315   .     S
O915   Zn924   1.951   .     S
O916   Zn924   1.868   .     S
O917   Zn923   1.868   .     S
O918   S919    1.504   .     D
S920   C931    1.769   .     S
C925   O978    1.302   .     A
C925   C946    1.398   .     S
C926   C928    1.486   .     S
C926   O983    1.321   .     A
C926   O849    1.317   1_655 S
C927   C933    1.398   .     A
C927   C948    1.483   .     S
C927   C931    1.423   .     A
C928   C932    1.424   .     A
C928   C934    1.401   .     A
C929   C938    1.395   .     A
C929   C931    1.398   .     A
C929   H364    1.084   1_556 S
C930   C932    1.397   .     A
C930   C939    1.394   .     A
C932   S853    1.768   1_655 S
C933   C935    1.404   .     A
C933   H957    1.075   .     S
C934   H956    1.074   .     S
C934   C937    1.404   .     A
C935   C940    1.425   .     A
C935   C938    1.412   .     A
C936   C947    1.398   .     S
C936   O979    1.301   .     A
C936   O844    1.294   1_655 S
C937   C941    1.426   .     A
C937   C939    1.412   .     A
C938   C350    1.389   1_556 S
C940   C943    1.416   .     A
C940   C347    1.427   1_556 S
C941   C942    1.416   .     A
C942   C944    1.383   .     A
C942   H960    1.075   .     S
C943   H961    1.075   .     S
C943   C945    1.381   .     A
C944   H949    1.085   .     S
C945   H955    1.085   .     S
C945   C345    1.388   1_556 S
C946   C1079   1.332   .     S
C946   H1160   1.086   .     S
C947   C616    1.332   1_655 S
C948   O982    1.321   .     A
H950   C1145   1.086   .     S
H951   O967    0.990   .     S
H952   O970    0.990   .     S
H953   O973    0.991   .     S
H954   O977    0.991   .     S
H959   C336    1.084   1_556 S
N963   S987    1.734   .     S
N963   Zn990   2.059   .     S
N963   N964    1.291   .     D
N964   S988    1.736   .     S
N964   Zn989   2.059   .     S
O965   Zn989   1.954   .     S
O965   C793    1.294   1_655 S
O966   S985    1.501   .     D
O967   S985    1.682   .     S
O968   S986    1.501   .     D
O969   S986    1.504   .     D
O970   S986    1.683   .     S
O971   S987    1.499   .     D
O972   S987    1.503   .     D
O973   S987    1.670   .     S
O974   S988    1.493   .     D
O975   S988    1.503   .     D
O976   Zn990   1.954   .     S
O977   S988    1.678   .     S
O978   Zn990   1.966   .     S
O979   Zn989   1.966   .     S
O980   Zn989   1.951   .     S
O980   C816    1.315   1_655 S
O981   Zn990   1.951   .     S
O982   Zn990   1.868   .     S
O983   Zn989   1.868   .     S
O984   S985    1.504   .     D
S986   C799    1.769   1_655 S
C991   O1044   1.302   .     A
C991   C1012   1.398   .     S
C991   O1163   1.294   1_455 S
C992   C994    1.486   .     S
C992   O1049   1.321   .     A
C992   O1113   1.317   .     S
C993   C999    1.398   .     A
C993   C1014   1.483   .     S
C993   C997    1.423   .     A
C994   C998    1.424   .     A
C994   C1000   1.401   .     A
C995   C1004   1.395   .     A
C995   C997    1.398   .     A
C995   H430    1.084   1_556 S
C996   C998    1.397   .     A
C996   C1005   1.394   .     A
C997   S1184   1.769   1_455 S
C998   S1117   1.768   .     S
C999   C1001   1.404   .     A
C999   H1023   1.075   .     S
C1000  H1022   1.074   .     S
C1000  C1003   1.404   .     A
C1001  C1006   1.425   .     A
C1001  C1004   1.412   .     A
C1002  C1013   1.398   .     S
C1002  O1045   1.301   .     A
C1002  O1108   1.294   .     S
C1003  C1007   1.426   .     A
C1003  C1005   1.412   .     A
C1004  C416    1.389   1_556 S
C1006  C1009   1.416   .     A
C1006  C413    1.427   1_556 S
C1007  C1008   1.416   .     A
C1008  C1010   1.383   .     A
C1008  H1026   1.075   .     S
C1009  H1027   1.075   .     S
C1009  C1011   1.381   .     A
C1010  H1015   1.085   .     S
C1011  H1021   1.085   .     S
C1011  C411    1.388   1_556 S
C1012  C749    1.332   1_465 S
C1012  H632    1.086   1_565 S
C1014  O1048   1.321   .     A
C1014  O1178   1.315   1_455 S
H1016  C617    1.086   1_565 S
H1017  O1033   0.990   .     S
H1018  O1036   0.990   .     S
H1019  O1039   0.991   .     S
H1020  O1043   0.991   .     S
H1025  C402    1.084   1_556 S
N1029  S1053   1.734   .     S
N1029  Zn1056  2.059   .     S
N1029  N1030   1.291   .     D
N1030  S1054   1.736   .     S
N1030  Zn1055  2.059   .     S
O1031  Zn1055  1.954   .     S
O1031  C1057   1.294   .     S
O1032  S1051   1.501   .     D
O1033  S1051   1.682   .     S
O1034  S1052   1.501   .     D
O1035  S1052   1.504   .     D
O1036  S1052   1.683   .     S
O1037  S1053   1.499   .     D
O1038  S1053   1.503   .     D
O1039  S1053   1.670   .     S
O1040  S1054   1.493   .     D
O1041  S1054   1.503   .     D
O1042  Zn1056  1.954   .     S
O1042  C1134   1.294   1_455 S
O1043  S1054   1.678   .     S
O1044  Zn1056  1.966   .     S
O1045  Zn1055  1.966   .     S
O1046  Zn1055  1.951   .     S
O1046  C1080   1.315   .     S
O1047  Zn1056  1.951   .     S
O1047  C1124   1.317   1_455 S
O1048  Zn1056  1.868   .     S
O1049  Zn1055  1.868   .     S
O1050  S1051   1.504   .     D
S1051  C1130   1.768   1_455 S
S1052  C1063   1.769   .     S
C1057  O1110   1.302   .     A
C1057  C1078   1.398   .     S
C1058  C1060   1.486   .     S
C1058  O1115   1.321   .     A
C1058  O1179   1.317   .     S
C1059  C1065   1.398   .     A
C1059  C1080   1.483   .     S
C1059  C1063   1.423   .     A
C1060  C1064   1.424   .     A
C1060  C1066   1.401   .     A
C1061  C1070   1.395   .     A
C1061  C1063   1.398   .     A
C1061  H496    1.084   1_556 S
C1062  C1064   1.397   .     A
C1062  C1071   1.394   .     A
C1064  S1183   1.768   .     S
C1065  C1067   1.404   .     A
C1065  H1089   1.075   .     S
C1066  H1088   1.074   .     S
C1066  C1069   1.404   .     A
C1067  C1072   1.425   .     A
C1067  C1070   1.412   .     A
C1068  C1079   1.398   .     S
C1068  O1111   1.301   .     A
C1068  O1174   1.294   .     S
C1069  C1073   1.426   .     A
C1069  C1071   1.412   .     A
C1070  C482    1.389   1_556 S
C1072  C1075   1.416   .     A
C1072  C479    1.427   1_556 S
C1073  C1074   1.416   .     A
C1074  C1076   1.383   .     A
C1074  H1092   1.075   .     S
C1075  H1093   1.075   .     S
C1075  C1077   1.381   .     A
C1076  H1081   1.085   .     S
C1077  H1087   1.085   .     S
C1077  C477    1.388   1_556 S
C1078  C617    1.332   1_565 S
C1078  H698    1.086   1_565 S
C1080  O1114   1.321   .     A
H1082  C683    1.086   1_565 S
H1083  O1099   0.990   .     S
H1084  O1102   0.990   .     S
H1085  O1105   0.991   .     S
H1086  O1109   0.991   .     S
H1091  C468    1.084   1_556 S
N1095  S1119   1.734   .     S
N1095  Zn1122  2.059   .     S
N1095  N1096   1.291   .     D
N1096  S1120   1.736   .     S
N1096  Zn1121  2.059   .     S
O1097  Zn1121  1.954   .     S
O1097  C1123   1.294   .     S
O1098  S1117   1.501   .     D
O1099  S1117   1.682   .     S
O1100  S1118   1.501   .     D
O1101  S1118   1.504   .     D
O1102  S1118   1.683   .     S
O1103  S1119   1.499   .     D
O1104  S1119   1.503   .     D
O1105  S1119   1.670   .     S
O1106  S1120   1.493   .     D
O1107  S1120   1.503   .     D
O1108  Zn1122  1.954   .     S
O1109  S1120   1.678   .     S
O1110  Zn1122  1.966   .     S
O1111  Zn1121  1.966   .     S
O1112  Zn1121  1.951   .     S
O1112  C1146   1.315   .     S
O1113  Zn1122  1.951   .     S
O1114  Zn1122  1.868   .     S
O1115  Zn1121  1.868   .     S
O1116  S1117   1.504   .     D
S1118  C1129   1.769   .     S
C1123  O1176   1.302   .     A
C1123  C1144   1.398   .     S
C1124  C1126   1.486   .     S
C1124  O1181   1.321   .     A
C1124  O1047   1.317   1_655 S
C1125  C1131   1.398   .     A
C1125  C1146   1.483   .     S
C1125  C1129   1.423   .     A
C1126  C1130   1.424   .     A
C1126  C1132   1.401   .     A
C1127  C1136   1.395   .     A
C1127  C1129   1.398   .     A
C1127  H562    1.084   1_556 S
C1128  C1130   1.397   .     A
C1128  C1137   1.394   .     A
C1130  S1051   1.768   1_655 S
C1131  C1133   1.404   .     A
C1131  H1155   1.075   .     S
C1132  H1154   1.074   .     S
C1132  C1135   1.404   .     A
C1133  C1138   1.425   .     A
C1133  C1136   1.412   .     A
C1134  C1145   1.398   .     S
C1134  O1177   1.301   .     A
C1134  O1042   1.294   1_655 S
C1135  C1139   1.426   .     A
C1135  C1137   1.412   .     A
C1136  C548    1.389   1_556 S
C1138  C1141   1.416   .     A
C1138  C545    1.427   1_556 S
C1139  C1140   1.416   .     A
C1140  C1142   1.383   .     A
C1140  H1158   1.075   .     S
C1141  H1159   1.075   .     S
C1141  C1143   1.381   .     A
C1142  H1147   1.085   .     S
C1143  H1153   1.085   .     S
C1143  C543    1.388   1_556 S
C1144  C683    1.332   1_565 S
C1144  H764    1.086   1_565 S
C1145  C814    1.332   1_655 S
C1146  O1180   1.321   .     A
H1148  C749    1.086   1_565 S
H1149  O1165   0.990   .     S
H1150  O1168   0.990   .     S
H1151  O1171   0.991   .     S
H1152  O1175   0.991   .     S
H1157  C534    1.084   1_556 S
N1161  S1185   1.734   .     S
N1161  Zn1188  2.059   .     S
N1161  N1162   1.291   .     D
N1162  S1186   1.736   .     S
N1162  Zn1187  2.059   .     S
O1163  Zn1187  1.954   .     S
O1163  C991    1.294   1_655 S
O1164  S1183   1.501   .     D
O1165  S1183   1.682   .     S
O1166  S1184   1.501   .     D
O1167  S1184   1.504   .     D
O1168  S1184   1.683   .     S
O1169  S1185   1.499   .     D
O1170  S1185   1.503   .     D
O1171  S1185   1.670   .     S
O1172  S1186   1.493   .     D
O1173  S1186   1.503   .     D
O1174  Zn1188  1.954   .     S
O1175  S1186   1.678   .     S
O1176  Zn1188  1.966   .     S
O1177  Zn1187  1.966   .     S
O1178  Zn1187  1.951   .     S
O1178  C1014   1.315   1_655 S
O1179  Zn1188  1.951   .     S
O1180  Zn1188  1.868   .     S
O1181  Zn1187  1.868   .     S
O1182  S1183   1.504   .     D
S1184  C997    1.769   1_655 S
