data_str_m3_o1_o17_pcu_sym.76
_audit_creation_date              2020-01-03
_audit_creation_method            'Materials Studio'
_symmetry_space_group_name_H-M    'P1'
_symmetry_Int_Tables_number       1
_symmetry_cell_setting            triclinic
loop_
_symmetry_equiv_pos_as_xyz
  x,y,z
_cell_length_a                    31.9848
_cell_length_b                    29.4987
_cell_length_c                    29.9381
_cell_angle_alpha                 89.6924
_cell_angle_beta                  90.1998
_cell_angle_gamma                 90.3021
loop_
_atom_site_label
_atom_site_type_symbol
_atom_site_fract_x
_atom_site_fract_y
_atom_site_fract_z
_atom_site_U_iso_or_equiv
_atom_site_adp_type
_atom_site_occupancy
O1     O     0.10559   0.20487   0.25000   0.00000  Uiso   1.00
O2     O     0.22774   0.12846   0.25001   0.00000  Uiso   1.00
O3     O     0.22774   0.20487   0.25001   0.00000  Uiso   1.00
O4     O     0.10559   0.12846   0.25000   0.00000  Uiso   1.00
C5     C     0.08676   0.16653   0.24974   0.00000  Uiso   1.00
C6     C     0.24657   0.16680   0.25027   0.00000  Uiso   1.00
O7     O     0.16666   0.20489   0.18393   0.00000  Uiso   1.00
O8     O     0.16667   0.12844   0.31607   0.00000  Uiso   1.00
O9     O     0.16667   0.20489   0.31608   0.00000  Uiso   1.00
O10    O     0.16666   0.12844   0.18393   0.00000  Uiso   1.00
C11    C     0.16653   0.16680   0.16333   0.00000  Uiso   1.00
C12    C     0.16668   0.16656   0.33665   0.00000  Uiso   1.00
Zn13   Zn    0.16667   0.21771   0.25000   0.00000  Uiso   1.00
Zn14   Zn    0.16667   0.11563   0.25000   0.00000  Uiso   1.00
C15    C     0.18335   0.20351   0.40707   0.00000  Uiso   1.00
C16    C     0.14715   0.13071   0.09305   0.00000  Uiso   1.00
C17    C     0.16649   0.16647   0.38449   0.00000  Uiso   1.00
C18    C     0.16514   0.16725   0.11548   0.00000  Uiso   1.00
C19    C     0.14881   0.12992   0.40735   0.00000  Uiso   1.00
C20    C     0.18133   0.20448   0.09249   0.00000  Uiso   1.00
C21    C     0.14708   0.13047   0.45353   0.00000  Uiso   1.00
C22    C     0.18103   0.20483   0.04636   0.00000  Uiso   1.00
C23    C     0.16396   0.16784   0.47673   0.00000  Uiso   1.00
C24    C     0.16314   0.16786   0.02319   0.00000  Uiso   1.00
C25    C     0.18231   0.20481   0.45339   0.00000  Uiso   1.00
C26    C     0.14502   0.13075   0.04659   0.00000  Uiso   1.00
C27    C     0.12827   0.09438   0.47644   0.00000  Uiso   1.00
C28    C     0.19902   0.24132   0.02333   0.00000  Uiso   1.00
C29    C     0.12614   0.09428   0.02325   0.00000  Uiso   1.00
C30    C     0.19972   0.24177   0.47681   0.00000  Uiso   1.00
H31    H     0.19761   0.23097   0.38826   0.00000  Uiso   1.00
H32    H     0.13505   0.10239   0.11227   0.00000  Uiso   1.00
H33    H     0.13567   0.10149   0.38911   0.00000  Uiso   1.00
H34    H     0.19520   0.23263   0.11055   0.00000  Uiso   1.00
H35    H     0.11479   0.06688   0.45732   0.00000  Uiso   1.00
H36    H     0.21275   0.26946   0.04147   0.00000  Uiso   1.00
C37    C     0.02172   0.14130   0.28260   0.00000  Uiso   1.00
C38    C     0.31161   0.19206   0.21741   0.00000  Uiso   1.00
C39    C     0.31184   0.14194   0.28349   0.00000  Uiso   1.00
C40    C     0.02149   0.19142   0.21654   0.00000  Uiso   1.00
C41    C     0.29070   0.16720   0.25066   0.00000  Uiso   1.00
C42    C     0.04262   0.16613   0.24934   0.00000  Uiso   1.00
C43    C     0.19060   0.02397   0.27988   0.00000  Uiso   1.00
C44    C     0.14271   0.30936   0.22014   0.00000  Uiso   1.00
C45    C     0.14270   0.02402   0.22015   0.00000  Uiso   1.00
C46    C     0.19060   0.30932   0.27988   0.00000  Uiso   1.00
H47    H     0.20971   0.04215   0.30377   0.00000  Uiso   1.00
H48    H     0.12358   0.29118   0.19628   0.00000  Uiso   1.00
H49    H     0.12354   0.04223   0.19630   0.00000  Uiso   1.00
H50    H     0.20973   0.29110   0.30376   0.00000  Uiso   1.00
N51    N     0.16667   0.28573   0.25000   0.00000  Uiso   1.00
N52    N     0.16667   0.04760   0.25000   0.00000  Uiso   1.00
N53    N     0.10467   0.05900   0.04735   0.00000  Uiso   1.00
H54    H     0.08426   0.07054   0.07127   0.00000  Uiso   1.00
C55    C     0.08951   0.01909   0.02432   0.00000  Uiso   1.00
H56    H     0.07703   0.32774   0.04910   0.00000  Uiso   1.00
H57    H     0.11535   0.00242   0.00621   0.00000  Uiso   1.00
H58    H     0.06389   0.02828   0.00087   0.00000  Uiso   1.00
N59    N     0.21954   0.27842   0.45389   0.00000  Uiso   1.00
H60    H     0.24580   0.29068   0.47001   0.00000  Uiso   1.00
C61    C     0.19164   0.31450   0.44055   0.00000  Uiso   1.00
H62    H     0.20853   0.00528   0.41835   0.00000  Uiso   1.00
H63    H     0.18081   0.33318   0.47042   0.00000  Uiso   1.00
H64    H     0.16424   0.30084   0.42197   0.00000  Uiso   1.00
N65    N     0.04443   0.11877   0.31752   0.00000  Uiso   1.00
O66    O     0.06095   0.14225   0.34978   0.00000  Uiso   1.00
O67    O     0.05196   0.07558   0.31483   0.00000  Uiso   1.00
N68    N     0.28889   0.21471   0.18254   0.00000  Uiso   1.00
O69    O     0.27060   0.19117   0.15142   0.00000  Uiso   1.00
O70    O     0.28270   0.25820   0.18463   0.00000  Uiso   1.00
N71    N     0.28964   0.11920   0.31886   0.00000  Uiso   1.00
O72    O     0.29669   0.07669   0.32769   0.00000  Uiso   1.00
O73    O     0.26342   0.14146   0.34348   0.00000  Uiso   1.00
N74    N     0.04371   0.21408   0.18114   0.00000  Uiso   1.00
O75    O     0.03730   0.25681   0.17282   0.00000  Uiso   1.00
O76    O     0.06954   0.19163   0.15624   0.00000  Uiso   1.00
O77    O     0.43892   0.20487   0.25000   0.00000  Uiso   1.00
O78    O     0.56108   0.12846   0.25001   0.00000  Uiso   1.00
O79    O     0.56108   0.20487   0.25001   0.00000  Uiso   1.00
O80    O     0.43892   0.12846   0.25000   0.00000  Uiso   1.00
C81    C     0.42010   0.16653   0.24974   0.00000  Uiso   1.00
C82    C     0.57990   0.16680   0.25027   0.00000  Uiso   1.00
O83    O     0.49999   0.20489   0.18393   0.00000  Uiso   1.00
O84    O     0.50001   0.12844   0.31607   0.00000  Uiso   1.00
O85    O     0.50001   0.20489   0.31608   0.00000  Uiso   1.00
O86    O     0.49999   0.12844   0.18393   0.00000  Uiso   1.00
C87    C     0.49987   0.16680   0.16333   0.00000  Uiso   1.00
C88    C     0.50001   0.16656   0.33665   0.00000  Uiso   1.00
Zn89   Zn    0.50000   0.21771   0.25000   0.00000  Uiso   1.00
Zn90   Zn    0.50000   0.11563   0.25000   0.00000  Uiso   1.00
C91    C     0.51668   0.20351   0.40707   0.00000  Uiso   1.00
C92    C     0.48049   0.13071   0.09305   0.00000  Uiso   1.00
C93    C     0.49982   0.16647   0.38449   0.00000  Uiso   1.00
C94    C     0.49848   0.16725   0.11548   0.00000  Uiso   1.00
C95    C     0.48214   0.12992   0.40735   0.00000  Uiso   1.00
C96    C     0.51467   0.20448   0.09249   0.00000  Uiso   1.00
C97    C     0.48042   0.13047   0.45353   0.00000  Uiso   1.00
C98    C     0.51436   0.20483   0.04636   0.00000  Uiso   1.00
C99    C     0.49730   0.16784   0.47673   0.00000  Uiso   1.00
C100   C     0.49647   0.16786   0.02319   0.00000  Uiso   1.00
C101   C     0.51564   0.20481   0.45339   0.00000  Uiso   1.00
C102   C     0.47835   0.13075   0.04659   0.00000  Uiso   1.00
C103   C     0.46160   0.09438   0.47644   0.00000  Uiso   1.00
C104   C     0.53235   0.24132   0.02333   0.00000  Uiso   1.00
C105   C     0.45947   0.09428   0.02325   0.00000  Uiso   1.00
C106   C     0.53305   0.24177   0.47681   0.00000  Uiso   1.00
H107   H     0.53094   0.23097   0.38826   0.00000  Uiso   1.00
H108   H     0.46838   0.10239   0.11227   0.00000  Uiso   1.00
H109   H     0.46900   0.10149   0.38911   0.00000  Uiso   1.00
H110   H     0.52854   0.23263   0.11055   0.00000  Uiso   1.00
H111   H     0.44812   0.06688   0.45732   0.00000  Uiso   1.00
H112   H     0.54608   0.26946   0.04147   0.00000  Uiso   1.00
C113   C     0.35505   0.14130   0.28260   0.00000  Uiso   1.00
C114   C     0.64494   0.19206   0.21741   0.00000  Uiso   1.00
C115   C     0.64518   0.14194   0.28349   0.00000  Uiso   1.00
C116   C     0.35482   0.19142   0.21654   0.00000  Uiso   1.00
C117   C     0.62404   0.16720   0.25066   0.00000  Uiso   1.00
C118   C     0.37596   0.16613   0.24934   0.00000  Uiso   1.00
C119   C     0.52393   0.02397   0.27988   0.00000  Uiso   1.00
C120   C     0.47604   0.30936   0.22014   0.00000  Uiso   1.00
C121   C     0.47603   0.02402   0.22015   0.00000  Uiso   1.00
C122   C     0.52393   0.30932   0.27988   0.00000  Uiso   1.00
H123   H     0.54304   0.04215   0.30377   0.00000  Uiso   1.00
H124   H     0.45691   0.29118   0.19628   0.00000  Uiso   1.00
H125   H     0.45687   0.04223   0.19630   0.00000  Uiso   1.00
H126   H     0.54306   0.29110   0.30376   0.00000  Uiso   1.00
N127   N     0.50000   0.28573   0.25000   0.00000  Uiso   1.00
N128   N     0.50000   0.04760   0.25000   0.00000  Uiso   1.00
N129   N     0.43801   0.05900   0.04735   0.00000  Uiso   1.00
H130   H     0.41759   0.07054   0.07127   0.00000  Uiso   1.00
C131   C     0.42285   0.01909   0.02432   0.00000  Uiso   1.00
H132   H     0.41037   0.32774   0.04910   0.00000  Uiso   1.00
H133   H     0.44869   0.00242   0.00621   0.00000  Uiso   1.00
H134   H     0.39723   0.02828   0.00087   0.00000  Uiso   1.00
N135   N     0.55288   0.27842   0.45389   0.00000  Uiso   1.00
H136   H     0.57913   0.29068   0.47001   0.00000  Uiso   1.00
C137   C     0.52497   0.31450   0.44055   0.00000  Uiso   1.00
H138   H     0.54186   0.00528   0.41835   0.00000  Uiso   1.00
H139   H     0.51415   0.33318   0.47042   0.00000  Uiso   1.00
H140   H     0.49758   0.30084   0.42197   0.00000  Uiso   1.00
N141   N     0.37776   0.11877   0.31752   0.00000  Uiso   1.00
O142   O     0.39428   0.14225   0.34978   0.00000  Uiso   1.00
O143   O     0.38529   0.07558   0.31483   0.00000  Uiso   1.00
N144   N     0.62222   0.21471   0.18254   0.00000  Uiso   1.00
O145   O     0.60393   0.19117   0.15142   0.00000  Uiso   1.00
O146   O     0.61603   0.25820   0.18463   0.00000  Uiso   1.00
N147   N     0.62297   0.11920   0.31886   0.00000  Uiso   1.00
O148   O     0.63003   0.07669   0.32769   0.00000  Uiso   1.00
O149   O     0.59676   0.14146   0.34348   0.00000  Uiso   1.00
N150   N     0.37705   0.21408   0.18114   0.00000  Uiso   1.00
O151   O     0.37063   0.25681   0.17282   0.00000  Uiso   1.00
O152   O     0.40288   0.19163   0.15624   0.00000  Uiso   1.00
O153   O     0.77226   0.20487   0.25000   0.00000  Uiso   1.00
O154   O     0.89441   0.12846   0.25001   0.00000  Uiso   1.00
O155   O     0.89441   0.20487   0.25001   0.00000  Uiso   1.00
O156   O     0.77226   0.12846   0.25000   0.00000  Uiso   1.00
C157   C     0.75343   0.16653   0.24974   0.00000  Uiso   1.00
C158   C     0.91324   0.16680   0.25027   0.00000  Uiso   1.00
O159   O     0.83333   0.20489   0.18393   0.00000  Uiso   1.00
O160   O     0.83334   0.12844   0.31607   0.00000  Uiso   1.00
O161   O     0.83334   0.20489   0.31608   0.00000  Uiso   1.00
O162   O     0.83333   0.12844   0.18393   0.00000  Uiso   1.00
C163   C     0.83320   0.16680   0.16333   0.00000  Uiso   1.00
C164   C     0.83334   0.16656   0.33665   0.00000  Uiso   1.00
Zn165  Zn    0.83333   0.21771   0.25000   0.00000  Uiso   1.00
Zn166  Zn    0.83333   0.11563   0.25000   0.00000  Uiso   1.00
C167   C     0.85001   0.20351   0.40707   0.00000  Uiso   1.00
C168   C     0.81382   0.13071   0.09305   0.00000  Uiso   1.00
C169   C     0.83315   0.16647   0.38449   0.00000  Uiso   1.00
C170   C     0.83181   0.16725   0.11548   0.00000  Uiso   1.00
C171   C     0.81547   0.12992   0.40735   0.00000  Uiso   1.00
C172   C     0.84800   0.20448   0.09249   0.00000  Uiso   1.00
C173   C     0.81375   0.13047   0.45353   0.00000  Uiso   1.00
C174   C     0.84769   0.20483   0.04636   0.00000  Uiso   1.00
C175   C     0.83063   0.16784   0.47673   0.00000  Uiso   1.00
C176   C     0.82980   0.16786   0.02319   0.00000  Uiso   1.00
C177   C     0.84897   0.20481   0.45339   0.00000  Uiso   1.00
C178   C     0.81169   0.13075   0.04659   0.00000  Uiso   1.00
C179   C     0.79493   0.09438   0.47644   0.00000  Uiso   1.00
C180   C     0.86568   0.24132   0.02333   0.00000  Uiso   1.00
C181   C     0.79280   0.09428   0.02325   0.00000  Uiso   1.00
C182   C     0.86639   0.24177   0.47681   0.00000  Uiso   1.00
H183   H     0.86428   0.23097   0.38826   0.00000  Uiso   1.00
H184   H     0.80172   0.10239   0.11227   0.00000  Uiso   1.00
H185   H     0.80234   0.10149   0.38911   0.00000  Uiso   1.00
H186   H     0.86187   0.23263   0.11055   0.00000  Uiso   1.00
H187   H     0.78145   0.06688   0.45732   0.00000  Uiso   1.00
H188   H     0.87942   0.26946   0.04147   0.00000  Uiso   1.00
C189   C     0.68838   0.14130   0.28260   0.00000  Uiso   1.00
C190   C     0.97827   0.19206   0.21741   0.00000  Uiso   1.00
C191   C     0.97851   0.14194   0.28349   0.00000  Uiso   1.00
C192   C     0.68815   0.19142   0.21654   0.00000  Uiso   1.00
C193   C     0.95737   0.16720   0.25066   0.00000  Uiso   1.00
C194   C     0.70929   0.16613   0.24934   0.00000  Uiso   1.00
C195   C     0.85726   0.02397   0.27988   0.00000  Uiso   1.00
C196   C     0.80938   0.30936   0.22014   0.00000  Uiso   1.00
C197   C     0.80937   0.02402   0.22015   0.00000  Uiso   1.00
C198   C     0.85727   0.30932   0.27988   0.00000  Uiso   1.00
H199   H     0.87638   0.04215   0.30377   0.00000  Uiso   1.00
H200   H     0.79024   0.29118   0.19628   0.00000  Uiso   1.00
H201   H     0.79021   0.04223   0.19630   0.00000  Uiso   1.00
H202   H     0.87639   0.29110   0.30376   0.00000  Uiso   1.00
N203   N     0.83333   0.28573   0.25000   0.00000  Uiso   1.00
N204   N     0.83333   0.04760   0.25000   0.00000  Uiso   1.00
N205   N     0.77134   0.05900   0.04735   0.00000  Uiso   1.00
H206   H     0.75092   0.07054   0.07127   0.00000  Uiso   1.00
C207   C     0.75618   0.01909   0.02432   0.00000  Uiso   1.00
H208   H     0.74370   0.32774   0.04910   0.00000  Uiso   1.00
H209   H     0.78202   0.00242   0.00621   0.00000  Uiso   1.00
H210   H     0.73056   0.02828   0.00087   0.00000  Uiso   1.00
N211   N     0.88621   0.27842   0.45389   0.00000  Uiso   1.00
H212   H     0.91247   0.29068   0.47001   0.00000  Uiso   1.00
C213   C     0.85830   0.31450   0.44055   0.00000  Uiso   1.00
H214   H     0.87519   0.00528   0.41835   0.00000  Uiso   1.00
H215   H     0.84748   0.33318   0.47042   0.00000  Uiso   1.00
H216   H     0.83091   0.30084   0.42197   0.00000  Uiso   1.00
N217   N     0.71110   0.11877   0.31752   0.00000  Uiso   1.00
O218   O     0.72762   0.14225   0.34978   0.00000  Uiso   1.00
O219   O     0.71862   0.07558   0.31483   0.00000  Uiso   1.00
N220   N     0.95556   0.21471   0.18254   0.00000  Uiso   1.00
O221   O     0.93726   0.19117   0.15142   0.00000  Uiso   1.00
O222   O     0.94937   0.25820   0.18463   0.00000  Uiso   1.00
N223   N     0.95630   0.11920   0.31886   0.00000  Uiso   1.00
O224   O     0.96336   0.07669   0.32769   0.00000  Uiso   1.00
O225   O     0.93009   0.14146   0.34348   0.00000  Uiso   1.00
N226   N     0.71038   0.21408   0.18114   0.00000  Uiso   1.00
O227   O     0.70396   0.25681   0.17282   0.00000  Uiso   1.00
O228   O     0.73621   0.19163   0.15624   0.00000  Uiso   1.00
O229   O     0.10559   0.53821   0.25000   0.00000  Uiso   1.00
O230   O     0.22774   0.46179   0.25001   0.00000  Uiso   1.00
O231   O     0.22774   0.53821   0.25001   0.00000  Uiso   1.00
O232   O     0.10559   0.46179   0.25000   0.00000  Uiso   1.00
C233   C     0.08676   0.49987   0.24974   0.00000  Uiso   1.00
C234   C     0.24657   0.50013   0.25027   0.00000  Uiso   1.00
O235   O     0.16666   0.53823   0.18393   0.00000  Uiso   1.00
O236   O     0.16667   0.46177   0.31607   0.00000  Uiso   1.00
O237   O     0.16667   0.53823   0.31608   0.00000  Uiso   1.00
O238   O     0.16666   0.46177   0.18393   0.00000  Uiso   1.00
C239   C     0.16653   0.50013   0.16333   0.00000  Uiso   1.00
C240   C     0.16668   0.49989   0.33665   0.00000  Uiso   1.00
Zn241  Zn    0.16667   0.55104   0.25000   0.00000  Uiso   1.00
Zn242  Zn    0.16667   0.44896   0.25000   0.00000  Uiso   1.00
C243   C     0.18335   0.53684   0.40707   0.00000  Uiso   1.00
C244   C     0.14715   0.46404   0.09305   0.00000  Uiso   1.00
C245   C     0.16649   0.49981   0.38449   0.00000  Uiso   1.00
C246   C     0.16514   0.50058   0.11548   0.00000  Uiso   1.00
C247   C     0.14881   0.46325   0.40735   0.00000  Uiso   1.00
C248   C     0.18133   0.53781   0.09249   0.00000  Uiso   1.00
C249   C     0.14708   0.46380   0.45353   0.00000  Uiso   1.00
C250   C     0.18103   0.53816   0.04636   0.00000  Uiso   1.00
C251   C     0.16396   0.50117   0.47673   0.00000  Uiso   1.00
C252   C     0.16314   0.50119   0.02319   0.00000  Uiso   1.00
C253   C     0.18231   0.53814   0.45339   0.00000  Uiso   1.00
C254   C     0.14502   0.46408   0.04659   0.00000  Uiso   1.00
C255   C     0.12827   0.42771   0.47644   0.00000  Uiso   1.00
C256   C     0.19902   0.57465   0.02333   0.00000  Uiso   1.00
C257   C     0.12614   0.42762   0.02325   0.00000  Uiso   1.00
C258   C     0.19972   0.57511   0.47681   0.00000  Uiso   1.00
H259   H     0.19761   0.56431   0.38826   0.00000  Uiso   1.00
H260   H     0.13505   0.43572   0.11227   0.00000  Uiso   1.00
H261   H     0.13567   0.43482   0.38911   0.00000  Uiso   1.00
H262   H     0.19520   0.56596   0.11055   0.00000  Uiso   1.00
H263   H     0.11479   0.40022   0.45732   0.00000  Uiso   1.00
H264   H     0.21275   0.60279   0.04147   0.00000  Uiso   1.00
C265   C     0.02172   0.47463   0.28260   0.00000  Uiso   1.00
C266   C     0.31161   0.52539   0.21741   0.00000  Uiso   1.00
C267   C     0.31184   0.47527   0.28349   0.00000  Uiso   1.00
C268   C     0.02149   0.52476   0.21654   0.00000  Uiso   1.00
C269   C     0.29070   0.50053   0.25066   0.00000  Uiso   1.00
C270   C     0.04262   0.49946   0.24934   0.00000  Uiso   1.00
C271   C     0.19060   0.35730   0.27988   0.00000  Uiso   1.00
C272   C     0.14271   0.64270   0.22014   0.00000  Uiso   1.00
C273   C     0.14270   0.35735   0.22015   0.00000  Uiso   1.00
C274   C     0.19060   0.64265   0.27988   0.00000  Uiso   1.00
H275   H     0.20971   0.37549   0.30377   0.00000  Uiso   1.00
H276   H     0.12358   0.62451   0.19628   0.00000  Uiso   1.00
H277   H     0.12354   0.37557   0.19630   0.00000  Uiso   1.00
H278   H     0.20973   0.62443   0.30376   0.00000  Uiso   1.00
N279   N     0.16667   0.61907   0.25000   0.00000  Uiso   1.00
N280   N     0.16667   0.38093   0.25000   0.00000  Uiso   1.00
N281   N     0.10467   0.39234   0.04735   0.00000  Uiso   1.00
H282   H     0.08426   0.40387   0.07127   0.00000  Uiso   1.00
C283   C     0.08951   0.35243   0.02432   0.00000  Uiso   1.00
H284   H     0.07703   0.66107   0.04910   0.00000  Uiso   1.00
H285   H     0.11535   0.33576   0.00621   0.00000  Uiso   1.00
H286   H     0.06389   0.36162   0.00087   0.00000  Uiso   1.00
N287   N     0.21954   0.61176   0.45389   0.00000  Uiso   1.00
H288   H     0.24580   0.62402   0.47001   0.00000  Uiso   1.00
C289   C     0.19164   0.64784   0.44055   0.00000  Uiso   1.00
H290   H     0.20853   0.33862   0.41835   0.00000  Uiso   1.00
H291   H     0.18081   0.66651   0.47042   0.00000  Uiso   1.00
H292   H     0.16424   0.63417   0.42197   0.00000  Uiso   1.00
N293   N     0.04443   0.45210   0.31752   0.00000  Uiso   1.00
O294   O     0.06095   0.47559   0.34978   0.00000  Uiso   1.00
O295   O     0.05196   0.40891   0.31483   0.00000  Uiso   1.00
N296   N     0.28889   0.54805   0.18254   0.00000  Uiso   1.00
O297   O     0.27060   0.52451   0.15142   0.00000  Uiso   1.00
O298   O     0.28270   0.59153   0.18463   0.00000  Uiso   1.00
N299   N     0.28964   0.45253   0.31886   0.00000  Uiso   1.00
O300   O     0.29669   0.41003   0.32769   0.00000  Uiso   1.00
O301   O     0.26342   0.47479   0.34348   0.00000  Uiso   1.00
N302   N     0.04371   0.54741   0.18114   0.00000  Uiso   1.00
O303   O     0.03730   0.59014   0.17282   0.00000  Uiso   1.00
O304   O     0.06954   0.52496   0.15624   0.00000  Uiso   1.00
O305   O     0.43892   0.53821   0.25000   0.00000  Uiso   1.00
O306   O     0.56108   0.46179   0.25001   0.00000  Uiso   1.00
O307   O     0.56108   0.53821   0.25001   0.00000  Uiso   1.00
O308   O     0.43892   0.46179   0.25000   0.00000  Uiso   1.00
C309   C     0.42010   0.49987   0.24974   0.00000  Uiso   1.00
C310   C     0.57990   0.50013   0.25027   0.00000  Uiso   1.00
O311   O     0.49999   0.53823   0.18393   0.00000  Uiso   1.00
O312   O     0.50001   0.46177   0.31607   0.00000  Uiso   1.00
O313   O     0.50001   0.53823   0.31608   0.00000  Uiso   1.00
O314   O     0.49999   0.46177   0.18393   0.00000  Uiso   1.00
C315   C     0.49987   0.50013   0.16333   0.00000  Uiso   1.00
C316   C     0.50001   0.49989   0.33665   0.00000  Uiso   1.00
Zn317  Zn    0.50000   0.55104   0.25000   0.00000  Uiso   1.00
Zn318  Zn    0.50000   0.44896   0.25000   0.00000  Uiso   1.00
C319   C     0.51668   0.53684   0.40707   0.00000  Uiso   1.00
C320   C     0.48049   0.46404   0.09305   0.00000  Uiso   1.00
C321   C     0.49982   0.49981   0.38449   0.00000  Uiso   1.00
C322   C     0.49848   0.50058   0.11548   0.00000  Uiso   1.00
C323   C     0.48214   0.46325   0.40735   0.00000  Uiso   1.00
C324   C     0.51467   0.53781   0.09249   0.00000  Uiso   1.00
C325   C     0.48042   0.46380   0.45353   0.00000  Uiso   1.00
C326   C     0.51436   0.53816   0.04636   0.00000  Uiso   1.00
C327   C     0.49730   0.50117   0.47673   0.00000  Uiso   1.00
C328   C     0.49647   0.50119   0.02319   0.00000  Uiso   1.00
C329   C     0.51564   0.53814   0.45339   0.00000  Uiso   1.00
C330   C     0.47835   0.46408   0.04659   0.00000  Uiso   1.00
C331   C     0.46160   0.42771   0.47644   0.00000  Uiso   1.00
C332   C     0.53235   0.57465   0.02333   0.00000  Uiso   1.00
C333   C     0.45947   0.42762   0.02325   0.00000  Uiso   1.00
C334   C     0.53305   0.57511   0.47681   0.00000  Uiso   1.00
H335   H     0.53094   0.56431   0.38826   0.00000  Uiso   1.00
H336   H     0.46838   0.43572   0.11227   0.00000  Uiso   1.00
H337   H     0.46900   0.43482   0.38911   0.00000  Uiso   1.00
H338   H     0.52854   0.56596   0.11055   0.00000  Uiso   1.00
H339   H     0.44812   0.40022   0.45732   0.00000  Uiso   1.00
H340   H     0.54608   0.60279   0.04147   0.00000  Uiso   1.00
C341   C     0.35505   0.47463   0.28260   0.00000  Uiso   1.00
C342   C     0.64494   0.52539   0.21741   0.00000  Uiso   1.00
C343   C     0.64518   0.47527   0.28349   0.00000  Uiso   1.00
C344   C     0.35482   0.52476   0.21654   0.00000  Uiso   1.00
C345   C     0.62404   0.50053   0.25066   0.00000  Uiso   1.00
C346   C     0.37596   0.49946   0.24934   0.00000  Uiso   1.00
C347   C     0.52393   0.35730   0.27988   0.00000  Uiso   1.00
C348   C     0.47604   0.64270   0.22014   0.00000  Uiso   1.00
C349   C     0.47603   0.35735   0.22015   0.00000  Uiso   1.00
C350   C     0.52393   0.64265   0.27988   0.00000  Uiso   1.00
H351   H     0.54304   0.37549   0.30377   0.00000  Uiso   1.00
H352   H     0.45691   0.62451   0.19628   0.00000  Uiso   1.00
H353   H     0.45687   0.37557   0.19630   0.00000  Uiso   1.00
H354   H     0.54306   0.62443   0.30376   0.00000  Uiso   1.00
N355   N     0.50000   0.61907   0.25000   0.00000  Uiso   1.00
N356   N     0.50000   0.38093   0.25000   0.00000  Uiso   1.00
N357   N     0.43801   0.39234   0.04735   0.00000  Uiso   1.00
H358   H     0.41759   0.40387   0.07127   0.00000  Uiso   1.00
C359   C     0.42285   0.35243   0.02432   0.00000  Uiso   1.00
H360   H     0.41037   0.66107   0.04910   0.00000  Uiso   1.00
H361   H     0.44869   0.33576   0.00621   0.00000  Uiso   1.00
H362   H     0.39723   0.36162   0.00087   0.00000  Uiso   1.00
N363   N     0.55288   0.61176   0.45389   0.00000  Uiso   1.00
H364   H     0.57913   0.62402   0.47001   0.00000  Uiso   1.00
C365   C     0.52497   0.64784   0.44055   0.00000  Uiso   1.00
H366   H     0.54186   0.33862   0.41835   0.00000  Uiso   1.00
H367   H     0.51415   0.66651   0.47042   0.00000  Uiso   1.00
H368   H     0.49758   0.63417   0.42197   0.00000  Uiso   1.00
N369   N     0.37776   0.45210   0.31752   0.00000  Uiso   1.00
O370   O     0.39428   0.47559   0.34978   0.00000  Uiso   1.00
O371   O     0.38529   0.40891   0.31483   0.00000  Uiso   1.00
N372   N     0.62222   0.54805   0.18254   0.00000  Uiso   1.00
O373   O     0.60393   0.52451   0.15142   0.00000  Uiso   1.00
O374   O     0.61603   0.59153   0.18463   0.00000  Uiso   1.00
N375   N     0.62297   0.45253   0.31886   0.00000  Uiso   1.00
O376   O     0.63003   0.41003   0.32769   0.00000  Uiso   1.00
O377   O     0.59676   0.47479   0.34348   0.00000  Uiso   1.00
N378   N     0.37705   0.54741   0.18114   0.00000  Uiso   1.00
O379   O     0.37063   0.59014   0.17282   0.00000  Uiso   1.00
O380   O     0.40288   0.52496   0.15624   0.00000  Uiso   1.00
O381   O     0.77226   0.53821   0.25000   0.00000  Uiso   1.00
O382   O     0.89441   0.46179   0.25001   0.00000  Uiso   1.00
O383   O     0.89441   0.53821   0.25001   0.00000  Uiso   1.00
O384   O     0.77226   0.46179   0.25000   0.00000  Uiso   1.00
C385   C     0.75343   0.49987   0.24974   0.00000  Uiso   1.00
C386   C     0.91324   0.50013   0.25027   0.00000  Uiso   1.00
O387   O     0.83333   0.53823   0.18393   0.00000  Uiso   1.00
O388   O     0.83334   0.46177   0.31607   0.00000  Uiso   1.00
O389   O     0.83334   0.53823   0.31608   0.00000  Uiso   1.00
O390   O     0.83333   0.46177   0.18393   0.00000  Uiso   1.00
C391   C     0.83320   0.50013   0.16333   0.00000  Uiso   1.00
C392   C     0.83334   0.49989   0.33665   0.00000  Uiso   1.00
Zn393  Zn    0.83333   0.55104   0.25000   0.00000  Uiso   1.00
Zn394  Zn    0.83333   0.44896   0.25000   0.00000  Uiso   1.00
C395   C     0.85001   0.53684   0.40707   0.00000  Uiso   1.00
C396   C     0.81382   0.46404   0.09305   0.00000  Uiso   1.00
C397   C     0.83315   0.49981   0.38449   0.00000  Uiso   1.00
C398   C     0.83181   0.50058   0.11548   0.00000  Uiso   1.00
C399   C     0.81547   0.46325   0.40735   0.00000  Uiso   1.00
C400   C     0.84800   0.53781   0.09249   0.00000  Uiso   1.00
C401   C     0.81375   0.46380   0.45353   0.00000  Uiso   1.00
C402   C     0.84769   0.53816   0.04636   0.00000  Uiso   1.00
C403   C     0.83063   0.50117   0.47673   0.00000  Uiso   1.00
C404   C     0.82980   0.50119   0.02319   0.00000  Uiso   1.00
C405   C     0.84897   0.53814   0.45339   0.00000  Uiso   1.00
C406   C     0.81169   0.46408   0.04659   0.00000  Uiso   1.00
C407   C     0.79493   0.42771   0.47644   0.00000  Uiso   1.00
C408   C     0.86568   0.57465   0.02333   0.00000  Uiso   1.00
C409   C     0.79280   0.42762   0.02325   0.00000  Uiso   1.00
C410   C     0.86639   0.57511   0.47681   0.00000  Uiso   1.00
H411   H     0.86428   0.56431   0.38826   0.00000  Uiso   1.00
H412   H     0.80172   0.43572   0.11227   0.00000  Uiso   1.00
H413   H     0.80234   0.43482   0.38911   0.00000  Uiso   1.00
H414   H     0.86187   0.56596   0.11055   0.00000  Uiso   1.00
H415   H     0.78145   0.40022   0.45732   0.00000  Uiso   1.00
H416   H     0.87942   0.60279   0.04147   0.00000  Uiso   1.00
C417   C     0.68838   0.47463   0.28260   0.00000  Uiso   1.00
C418   C     0.97827   0.52539   0.21741   0.00000  Uiso   1.00
C419   C     0.97851   0.47527   0.28349   0.00000  Uiso   1.00
C420   C     0.68815   0.52476   0.21654   0.00000  Uiso   1.00
C421   C     0.95737   0.50053   0.25066   0.00000  Uiso   1.00
C422   C     0.70929   0.49946   0.24934   0.00000  Uiso   1.00
C423   C     0.85726   0.35730   0.27988   0.00000  Uiso   1.00
C424   C     0.80938   0.64270   0.22014   0.00000  Uiso   1.00
C425   C     0.80937   0.35735   0.22015   0.00000  Uiso   1.00
C426   C     0.85727   0.64265   0.27988   0.00000  Uiso   1.00
H427   H     0.87638   0.37549   0.30377   0.00000  Uiso   1.00
H428   H     0.79024   0.62451   0.19628   0.00000  Uiso   1.00
H429   H     0.79021   0.37557   0.19630   0.00000  Uiso   1.00
H430   H     0.87639   0.62443   0.30376   0.00000  Uiso   1.00
N431   N     0.83333   0.61907   0.25000   0.00000  Uiso   1.00
N432   N     0.83333   0.38093   0.25000   0.00000  Uiso   1.00
N433   N     0.77134   0.39234   0.04735   0.00000  Uiso   1.00
H434   H     0.75092   0.40387   0.07127   0.00000  Uiso   1.00
C435   C     0.75618   0.35243   0.02432   0.00000  Uiso   1.00
H436   H     0.74370   0.66107   0.04910   0.00000  Uiso   1.00
H437   H     0.78202   0.33576   0.00621   0.00000  Uiso   1.00
H438   H     0.73056   0.36162   0.00087   0.00000  Uiso   1.00
N439   N     0.88621   0.61176   0.45389   0.00000  Uiso   1.00
H440   H     0.91247   0.62402   0.47001   0.00000  Uiso   1.00
C441   C     0.85830   0.64784   0.44055   0.00000  Uiso   1.00
H442   H     0.87519   0.33862   0.41835   0.00000  Uiso   1.00
H443   H     0.84748   0.66651   0.47042   0.00000  Uiso   1.00
H444   H     0.83091   0.63417   0.42197   0.00000  Uiso   1.00
N445   N     0.71110   0.45210   0.31752   0.00000  Uiso   1.00
O446   O     0.72762   0.47559   0.34978   0.00000  Uiso   1.00
O447   O     0.71862   0.40891   0.31483   0.00000  Uiso   1.00
N448   N     0.95556   0.54805   0.18254   0.00000  Uiso   1.00
O449   O     0.93726   0.52451   0.15142   0.00000  Uiso   1.00
O450   O     0.94937   0.59153   0.18463   0.00000  Uiso   1.00
N451   N     0.95630   0.45253   0.31886   0.00000  Uiso   1.00
O452   O     0.96336   0.41003   0.32769   0.00000  Uiso   1.00
O453   O     0.93009   0.47479   0.34348   0.00000  Uiso   1.00
N454   N     0.71038   0.54741   0.18114   0.00000  Uiso   1.00
O455   O     0.70396   0.59014   0.17282   0.00000  Uiso   1.00
O456   O     0.73621   0.52496   0.15624   0.00000  Uiso   1.00
O457   O     0.10559   0.87154   0.25000   0.00000  Uiso   1.00
O458   O     0.22774   0.79513   0.25001   0.00000  Uiso   1.00
O459   O     0.22774   0.87154   0.25001   0.00000  Uiso   1.00
O460   O     0.10559   0.79513   0.25000   0.00000  Uiso   1.00
C461   C     0.08676   0.83320   0.24974   0.00000  Uiso   1.00
C462   C     0.24657   0.83347   0.25027   0.00000  Uiso   1.00
O463   O     0.16666   0.87156   0.18393   0.00000  Uiso   1.00
O464   O     0.16667   0.79511   0.31607   0.00000  Uiso   1.00
O465   O     0.16667   0.87156   0.31608   0.00000  Uiso   1.00
O466   O     0.16666   0.79511   0.18393   0.00000  Uiso   1.00
C467   C     0.16653   0.83347   0.16333   0.00000  Uiso   1.00
C468   C     0.16668   0.83323   0.33665   0.00000  Uiso   1.00
Zn469  Zn    0.16667   0.88437   0.25000   0.00000  Uiso   1.00
Zn470  Zn    0.16667   0.78229   0.25000   0.00000  Uiso   1.00
C471   C     0.18335   0.87018   0.40707   0.00000  Uiso   1.00
C472   C     0.14715   0.79737   0.09305   0.00000  Uiso   1.00
C473   C     0.16649   0.83314   0.38449   0.00000  Uiso   1.00
C474   C     0.16514   0.83392   0.11548   0.00000  Uiso   1.00
C475   C     0.14881   0.79658   0.40735   0.00000  Uiso   1.00
C476   C     0.18133   0.87115   0.09249   0.00000  Uiso   1.00
C477   C     0.14708   0.79713   0.45353   0.00000  Uiso   1.00
C478   C     0.18103   0.87149   0.04636   0.00000  Uiso   1.00
C479   C     0.16396   0.83450   0.47673   0.00000  Uiso   1.00
C480   C     0.16314   0.83453   0.02319   0.00000  Uiso   1.00
C481   C     0.18231   0.87148   0.45339   0.00000  Uiso   1.00
C482   C     0.14502   0.79742   0.04659   0.00000  Uiso   1.00
C483   C     0.12827   0.76105   0.47644   0.00000  Uiso   1.00
C484   C     0.19902   0.90798   0.02333   0.00000  Uiso   1.00
C485   C     0.12614   0.76095   0.02325   0.00000  Uiso   1.00
C486   C     0.19972   0.90844   0.47681   0.00000  Uiso   1.00
H487   H     0.19761   0.89764   0.38826   0.00000  Uiso   1.00
H488   H     0.13505   0.76906   0.11227   0.00000  Uiso   1.00
H489   H     0.13567   0.76815   0.38911   0.00000  Uiso   1.00
H490   H     0.19520   0.89930   0.11055   0.00000  Uiso   1.00
H491   H     0.11479   0.73355   0.45732   0.00000  Uiso   1.00
H492   H     0.21275   0.93613   0.04147   0.00000  Uiso   1.00
C493   C     0.02172   0.80796   0.28260   0.00000  Uiso   1.00
C494   C     0.31161   0.85873   0.21741   0.00000  Uiso   1.00
C495   C     0.31184   0.80861   0.28349   0.00000  Uiso   1.00
C496   C     0.02149   0.85809   0.21654   0.00000  Uiso   1.00
C497   C     0.29070   0.83386   0.25066   0.00000  Uiso   1.00
C498   C     0.04262   0.83280   0.24934   0.00000  Uiso   1.00
C499   C     0.19060   0.69064   0.27988   0.00000  Uiso   1.00
C500   C     0.14271   0.97603   0.22014   0.00000  Uiso   1.00
C501   C     0.14270   0.69068   0.22015   0.00000  Uiso   1.00
C502   C     0.19060   0.97598   0.27988   0.00000  Uiso   1.00
H503   H     0.20971   0.70882   0.30377   0.00000  Uiso   1.00
H504   H     0.12358   0.95784   0.19628   0.00000  Uiso   1.00
H505   H     0.12354   0.70890   0.19630   0.00000  Uiso   1.00
H506   H     0.20973   0.95777   0.30376   0.00000  Uiso   1.00
N507   N     0.16667   0.95240   0.25000   0.00000  Uiso   1.00
N508   N     0.16667   0.71427   0.25000   0.00000  Uiso   1.00
N509   N     0.10467   0.72567   0.04735   0.00000  Uiso   1.00
H510   H     0.08426   0.73721   0.07127   0.00000  Uiso   1.00
C511   C     0.08951   0.68576   0.02432   0.00000  Uiso   1.00
H512   H     0.07703   0.99441   0.04910   0.00000  Uiso   1.00
H513   H     0.11535   0.66909   0.00621   0.00000  Uiso   1.00
H514   H     0.06389   0.69495   0.00087   0.00000  Uiso   1.00
N515   N     0.21954   0.94509   0.45389   0.00000  Uiso   1.00
H516   H     0.24580   0.95735   0.47001   0.00000  Uiso   1.00
C517   C     0.19164   0.98117   0.44055   0.00000  Uiso   1.00
H518   H     0.20853   0.67195   0.41835   0.00000  Uiso   1.00
H519   H     0.18081   0.99984   0.47042   0.00000  Uiso   1.00
H520   H     0.16424   0.96751   0.42197   0.00000  Uiso   1.00
N521   N     0.04443   0.78543   0.31752   0.00000  Uiso   1.00
O522   O     0.06095   0.80892   0.34978   0.00000  Uiso   1.00
O523   O     0.05196   0.74225   0.31483   0.00000  Uiso   1.00
N524   N     0.28889   0.88138   0.18254   0.00000  Uiso   1.00
O525   O     0.27060   0.85784   0.15142   0.00000  Uiso   1.00
O526   O     0.28270   0.92486   0.18463   0.00000  Uiso   1.00
N527   N     0.28964   0.78587   0.31886   0.00000  Uiso   1.00
O528   O     0.29669   0.74336   0.32769   0.00000  Uiso   1.00
O529   O     0.26342   0.80812   0.34348   0.00000  Uiso   1.00
N530   N     0.04371   0.88074   0.18114   0.00000  Uiso   1.00
O531   O     0.03730   0.92348   0.17282   0.00000  Uiso   1.00
O532   O     0.06954   0.85830   0.15624   0.00000  Uiso   1.00
O533   O     0.43892   0.87154   0.25000   0.00000  Uiso   1.00
O534   O     0.56108   0.79513   0.25001   0.00000  Uiso   1.00
O535   O     0.56108   0.87154   0.25001   0.00000  Uiso   1.00
O536   O     0.43892   0.79513   0.25000   0.00000  Uiso   1.00
C537   C     0.42010   0.83320   0.24974   0.00000  Uiso   1.00
C538   C     0.57990   0.83347   0.25027   0.00000  Uiso   1.00
O539   O     0.49999   0.87156   0.18393   0.00000  Uiso   1.00
O540   O     0.50001   0.79511   0.31607   0.00000  Uiso   1.00
O541   O     0.50001   0.87156   0.31608   0.00000  Uiso   1.00
O542   O     0.49999   0.79511   0.18393   0.00000  Uiso   1.00
C543   C     0.49987   0.83347   0.16333   0.00000  Uiso   1.00
C544   C     0.50001   0.83323   0.33665   0.00000  Uiso   1.00
Zn545  Zn    0.50000   0.88437   0.25000   0.00000  Uiso   1.00
Zn546  Zn    0.50000   0.78229   0.25000   0.00000  Uiso   1.00
C547   C     0.51668   0.87018   0.40707   0.00000  Uiso   1.00
C548   C     0.48049   0.79737   0.09305   0.00000  Uiso   1.00
C549   C     0.49982   0.83314   0.38449   0.00000  Uiso   1.00
C550   C     0.49848   0.83392   0.11548   0.00000  Uiso   1.00
C551   C     0.48214   0.79658   0.40735   0.00000  Uiso   1.00
C552   C     0.51467   0.87115   0.09249   0.00000  Uiso   1.00
C553   C     0.48042   0.79713   0.45353   0.00000  Uiso   1.00
C554   C     0.51436   0.87149   0.04636   0.00000  Uiso   1.00
C555   C     0.49730   0.83450   0.47673   0.00000  Uiso   1.00
C556   C     0.49647   0.83453   0.02319   0.00000  Uiso   1.00
C557   C     0.51564   0.87148   0.45339   0.00000  Uiso   1.00
C558   C     0.47835   0.79742   0.04659   0.00000  Uiso   1.00
C559   C     0.46160   0.76105   0.47644   0.00000  Uiso   1.00
C560   C     0.53235   0.90798   0.02333   0.00000  Uiso   1.00
C561   C     0.45947   0.76095   0.02325   0.00000  Uiso   1.00
C562   C     0.53305   0.90844   0.47681   0.00000  Uiso   1.00
H563   H     0.53094   0.89764   0.38826   0.00000  Uiso   1.00
H564   H     0.46838   0.76906   0.11227   0.00000  Uiso   1.00
H565   H     0.46900   0.76815   0.38911   0.00000  Uiso   1.00
H566   H     0.52854   0.89930   0.11055   0.00000  Uiso   1.00
H567   H     0.44812   0.73355   0.45732   0.00000  Uiso   1.00
H568   H     0.54608   0.93613   0.04147   0.00000  Uiso   1.00
C569   C     0.35505   0.80796   0.28260   0.00000  Uiso   1.00
C570   C     0.64494   0.85873   0.21741   0.00000  Uiso   1.00
C571   C     0.64518   0.80861   0.28349   0.00000  Uiso   1.00
C572   C     0.35482   0.85809   0.21654   0.00000  Uiso   1.00
C573   C     0.62404   0.83386   0.25066   0.00000  Uiso   1.00
C574   C     0.37596   0.83280   0.24934   0.00000  Uiso   1.00
C575   C     0.52393   0.69064   0.27988   0.00000  Uiso   1.00
C576   C     0.47604   0.97603   0.22014   0.00000  Uiso   1.00
C577   C     0.47603   0.69068   0.22015   0.00000  Uiso   1.00
C578   C     0.52393   0.97598   0.27988   0.00000  Uiso   1.00
H579   H     0.54304   0.70882   0.30377   0.00000  Uiso   1.00
H580   H     0.45691   0.95784   0.19628   0.00000  Uiso   1.00
H581   H     0.45687   0.70890   0.19630   0.00000  Uiso   1.00
H582   H     0.54306   0.95777   0.30376   0.00000  Uiso   1.00
N583   N     0.50000   0.95240   0.25000   0.00000  Uiso   1.00
N584   N     0.50000   0.71427   0.25000   0.00000  Uiso   1.00
N585   N     0.43801   0.72567   0.04735   0.00000  Uiso   1.00
H586   H     0.41759   0.73721   0.07127   0.00000  Uiso   1.00
C587   C     0.42285   0.68576   0.02432   0.00000  Uiso   1.00
H588   H     0.41037   0.99441   0.04910   0.00000  Uiso   1.00
H589   H     0.44869   0.66909   0.00621   0.00000  Uiso   1.00
H590   H     0.39723   0.69495   0.00087   0.00000  Uiso   1.00
N591   N     0.55288   0.94509   0.45389   0.00000  Uiso   1.00
H592   H     0.57913   0.95735   0.47001   0.00000  Uiso   1.00
C593   C     0.52497   0.98117   0.44055   0.00000  Uiso   1.00
H594   H     0.54186   0.67195   0.41835   0.00000  Uiso   1.00
H595   H     0.51415   0.99984   0.47042   0.00000  Uiso   1.00
H596   H     0.49758   0.96751   0.42197   0.00000  Uiso   1.00
N597   N     0.37776   0.78543   0.31752   0.00000  Uiso   1.00
O598   O     0.39428   0.80892   0.34978   0.00000  Uiso   1.00
O599   O     0.38529   0.74225   0.31483   0.00000  Uiso   1.00
N600   N     0.62222   0.88138   0.18254   0.00000  Uiso   1.00
O601   O     0.60393   0.85784   0.15142   0.00000  Uiso   1.00
O602   O     0.61603   0.92486   0.18463   0.00000  Uiso   1.00
N603   N     0.62297   0.78587   0.31886   0.00000  Uiso   1.00
O604   O     0.63003   0.74336   0.32769   0.00000  Uiso   1.00
O605   O     0.59676   0.80812   0.34348   0.00000  Uiso   1.00
N606   N     0.37705   0.88074   0.18114   0.00000  Uiso   1.00
O607   O     0.37063   0.92348   0.17282   0.00000  Uiso   1.00
O608   O     0.40288   0.85830   0.15624   0.00000  Uiso   1.00
O609   O     0.77226   0.87154   0.25000   0.00000  Uiso   1.00
O610   O     0.89441   0.79513   0.25001   0.00000  Uiso   1.00
O611   O     0.89441   0.87154   0.25001   0.00000  Uiso   1.00
O612   O     0.77226   0.79513   0.25000   0.00000  Uiso   1.00
C613   C     0.75343   0.83320   0.24974   0.00000  Uiso   1.00
C614   C     0.91324   0.83347   0.25027   0.00000  Uiso   1.00
O615   O     0.83333   0.87156   0.18393   0.00000  Uiso   1.00
O616   O     0.83334   0.79511   0.31607   0.00000  Uiso   1.00
O617   O     0.83334   0.87156   0.31608   0.00000  Uiso   1.00
O618   O     0.83333   0.79511   0.18393   0.00000  Uiso   1.00
C619   C     0.83320   0.83347   0.16333   0.00000  Uiso   1.00
C620   C     0.83334   0.83323   0.33665   0.00000  Uiso   1.00
Zn621  Zn    0.83333   0.88437   0.25000   0.00000  Uiso   1.00
Zn622  Zn    0.83333   0.78229   0.25000   0.00000  Uiso   1.00
C623   C     0.85001   0.87018   0.40707   0.00000  Uiso   1.00
C624   C     0.81382   0.79737   0.09305   0.00000  Uiso   1.00
C625   C     0.83315   0.83314   0.38449   0.00000  Uiso   1.00
C626   C     0.83181   0.83392   0.11548   0.00000  Uiso   1.00
C627   C     0.81547   0.79658   0.40735   0.00000  Uiso   1.00
C628   C     0.84800   0.87115   0.09249   0.00000  Uiso   1.00
C629   C     0.81375   0.79713   0.45353   0.00000  Uiso   1.00
C630   C     0.84769   0.87149   0.04636   0.00000  Uiso   1.00
C631   C     0.83063   0.83450   0.47673   0.00000  Uiso   1.00
C632   C     0.82980   0.83453   0.02319   0.00000  Uiso   1.00
C633   C     0.84897   0.87148   0.45339   0.00000  Uiso   1.00
C634   C     0.81169   0.79742   0.04659   0.00000  Uiso   1.00
C635   C     0.79493   0.76105   0.47644   0.00000  Uiso   1.00
C636   C     0.86568   0.90798   0.02333   0.00000  Uiso   1.00
C637   C     0.79280   0.76095   0.02325   0.00000  Uiso   1.00
C638   C     0.86639   0.90844   0.47681   0.00000  Uiso   1.00
H639   H     0.86428   0.89764   0.38826   0.00000  Uiso   1.00
H640   H     0.80172   0.76906   0.11227   0.00000  Uiso   1.00
H641   H     0.80234   0.76815   0.38911   0.00000  Uiso   1.00
H642   H     0.86187   0.89930   0.11055   0.00000  Uiso   1.00
H643   H     0.78145   0.73355   0.45732   0.00000  Uiso   1.00
H644   H     0.87942   0.93613   0.04147   0.00000  Uiso   1.00
C645   C     0.68838   0.80796   0.28260   0.00000  Uiso   1.00
C646   C     0.97827   0.85873   0.21741   0.00000  Uiso   1.00
C647   C     0.97851   0.80861   0.28349   0.00000  Uiso   1.00
C648   C     0.68815   0.85809   0.21654   0.00000  Uiso   1.00
C649   C     0.95737   0.83386   0.25066   0.00000  Uiso   1.00
C650   C     0.70929   0.83280   0.24934   0.00000  Uiso   1.00
C651   C     0.85726   0.69064   0.27988   0.00000  Uiso   1.00
C652   C     0.80938   0.97603   0.22014   0.00000  Uiso   1.00
C653   C     0.80937   0.69068   0.22015   0.00000  Uiso   1.00
C654   C     0.85727   0.97598   0.27988   0.00000  Uiso   1.00
H655   H     0.87638   0.70882   0.30377   0.00000  Uiso   1.00
H656   H     0.79024   0.95784   0.19628   0.00000  Uiso   1.00
H657   H     0.79021   0.70890   0.19630   0.00000  Uiso   1.00
H658   H     0.87639   0.95777   0.30376   0.00000  Uiso   1.00
N659   N     0.83333   0.95240   0.25000   0.00000  Uiso   1.00
N660   N     0.83333   0.71427   0.25000   0.00000  Uiso   1.00
N661   N     0.77134   0.72567   0.04735   0.00000  Uiso   1.00
H662   H     0.75092   0.73721   0.07127   0.00000  Uiso   1.00
C663   C     0.75618   0.68576   0.02432   0.00000  Uiso   1.00
H664   H     0.74370   0.99441   0.04910   0.00000  Uiso   1.00
H665   H     0.78202   0.66909   0.00621   0.00000  Uiso   1.00
H666   H     0.73056   0.69495   0.00087   0.00000  Uiso   1.00
N667   N     0.88621   0.94509   0.45389   0.00000  Uiso   1.00
H668   H     0.91247   0.95735   0.47001   0.00000  Uiso   1.00
C669   C     0.85830   0.98117   0.44055   0.00000  Uiso   1.00
H670   H     0.87519   0.67195   0.41835   0.00000  Uiso   1.00
H671   H     0.84748   0.99984   0.47042   0.00000  Uiso   1.00
H672   H     0.83091   0.96751   0.42197   0.00000  Uiso   1.00
N673   N     0.71110   0.78543   0.31752   0.00000  Uiso   1.00
O674   O     0.72762   0.80892   0.34978   0.00000  Uiso   1.00
O675   O     0.71862   0.74225   0.31483   0.00000  Uiso   1.00
N676   N     0.95556   0.88138   0.18254   0.00000  Uiso   1.00
O677   O     0.93726   0.85784   0.15142   0.00000  Uiso   1.00
O678   O     0.94937   0.92486   0.18463   0.00000  Uiso   1.00
N679   N     0.95630   0.78587   0.31886   0.00000  Uiso   1.00
O680   O     0.96336   0.74336   0.32769   0.00000  Uiso   1.00
O681   O     0.93009   0.80812   0.34348   0.00000  Uiso   1.00
N682   N     0.71038   0.88074   0.18114   0.00000  Uiso   1.00
O683   O     0.70396   0.92348   0.17282   0.00000  Uiso   1.00
O684   O     0.73621   0.85830   0.15624   0.00000  Uiso   1.00
O685   O     0.10559   0.20487   0.75000   0.00000  Uiso   1.00
O686   O     0.22774   0.12846   0.75001   0.00000  Uiso   1.00
O687   O     0.22774   0.20487   0.75001   0.00000  Uiso   1.00
O688   O     0.10559   0.12846   0.75000   0.00000  Uiso   1.00
C689   C     0.08676   0.16653   0.74974   0.00000  Uiso   1.00
C690   C     0.24657   0.16680   0.75027   0.00000  Uiso   1.00
O691   O     0.16666   0.20489   0.68393   0.00000  Uiso   1.00
O692   O     0.16667   0.12844   0.81607   0.00000  Uiso   1.00
O693   O     0.16667   0.20489   0.81608   0.00000  Uiso   1.00
O694   O     0.16666   0.12844   0.68393   0.00000  Uiso   1.00
C695   C     0.16653   0.16680   0.66333   0.00000  Uiso   1.00
C696   C     0.16668   0.16656   0.83665   0.00000  Uiso   1.00
Zn697  Zn    0.16667   0.21771   0.75000   0.00000  Uiso   1.00
Zn698  Zn    0.16667   0.11563   0.75000   0.00000  Uiso   1.00
C699   C     0.18335   0.20351   0.90707   0.00000  Uiso   1.00
C700   C     0.14715   0.13071   0.59305   0.00000  Uiso   1.00
C701   C     0.16649   0.16647   0.88449   0.00000  Uiso   1.00
C702   C     0.16514   0.16725   0.61548   0.00000  Uiso   1.00
C703   C     0.14881   0.12992   0.90735   0.00000  Uiso   1.00
C704   C     0.18133   0.20448   0.59249   0.00000  Uiso   1.00
C705   C     0.14708   0.13047   0.95353   0.00000  Uiso   1.00
C706   C     0.18103   0.20483   0.54636   0.00000  Uiso   1.00
C707   C     0.16396   0.16784   0.97673   0.00000  Uiso   1.00
C708   C     0.16314   0.16786   0.52319   0.00000  Uiso   1.00
C709   C     0.18231   0.20481   0.95339   0.00000  Uiso   1.00
C710   C     0.14502   0.13075   0.54659   0.00000  Uiso   1.00
C711   C     0.12827   0.09438   0.97644   0.00000  Uiso   1.00
C712   C     0.19902   0.24132   0.52333   0.00000  Uiso   1.00
C713   C     0.12614   0.09428   0.52325   0.00000  Uiso   1.00
C714   C     0.19972   0.24177   0.97681   0.00000  Uiso   1.00
H715   H     0.19761   0.23097   0.88826   0.00000  Uiso   1.00
H716   H     0.13505   0.10239   0.61227   0.00000  Uiso   1.00
H717   H     0.13567   0.10149   0.88911   0.00000  Uiso   1.00
H718   H     0.19520   0.23263   0.61055   0.00000  Uiso   1.00
H719   H     0.11479   0.06688   0.95732   0.00000  Uiso   1.00
H720   H     0.21275   0.26946   0.54147   0.00000  Uiso   1.00
C721   C     0.02172   0.14130   0.78260   0.00000  Uiso   1.00
C722   C     0.31161   0.19206   0.71741   0.00000  Uiso   1.00
C723   C     0.31184   0.14194   0.78349   0.00000  Uiso   1.00
C724   C     0.02149   0.19142   0.71654   0.00000  Uiso   1.00
C725   C     0.29070   0.16720   0.75066   0.00000  Uiso   1.00
C726   C     0.04262   0.16613   0.74934   0.00000  Uiso   1.00
C727   C     0.19060   0.02397   0.77988   0.00000  Uiso   1.00
C728   C     0.14271   0.30936   0.72014   0.00000  Uiso   1.00
C729   C     0.14270   0.02402   0.72015   0.00000  Uiso   1.00
C730   C     0.19060   0.30932   0.77988   0.00000  Uiso   1.00
H731   H     0.20971   0.04215   0.80377   0.00000  Uiso   1.00
H732   H     0.12358   0.29118   0.69628   0.00000  Uiso   1.00
H733   H     0.12354   0.04223   0.69630   0.00000  Uiso   1.00
H734   H     0.20973   0.29110   0.80376   0.00000  Uiso   1.00
N735   N     0.16667   0.28573   0.75000   0.00000  Uiso   1.00
N736   N     0.16667   0.04760   0.75000   0.00000  Uiso   1.00
N737   N     0.10467   0.05900   0.54735   0.00000  Uiso   1.00
H738   H     0.08426   0.07054   0.57127   0.00000  Uiso   1.00
C739   C     0.08951   0.01909   0.52432   0.00000  Uiso   1.00
H740   H     0.07703   0.32774   0.54910   0.00000  Uiso   1.00
H741   H     0.11535   0.00242   0.50621   0.00000  Uiso   1.00
H742   H     0.06389   0.02828   0.50087   0.00000  Uiso   1.00
N743   N     0.21954   0.27842   0.95389   0.00000  Uiso   1.00
H744   H     0.24580   0.29068   0.97001   0.00000  Uiso   1.00
C745   C     0.19164   0.31450   0.94055   0.00000  Uiso   1.00
H746   H     0.20853   0.00528   0.91835   0.00000  Uiso   1.00
H747   H     0.18081   0.33318   0.97042   0.00000  Uiso   1.00
H748   H     0.16424   0.30084   0.92197   0.00000  Uiso   1.00
N749   N     0.04443   0.11877   0.81752   0.00000  Uiso   1.00
O750   O     0.06095   0.14225   0.84978   0.00000  Uiso   1.00
O751   O     0.05196   0.07558   0.81483   0.00000  Uiso   1.00
N752   N     0.28889   0.21471   0.68254   0.00000  Uiso   1.00
O753   O     0.27060   0.19117   0.65142   0.00000  Uiso   1.00
O754   O     0.28270   0.25820   0.68463   0.00000  Uiso   1.00
N755   N     0.28964   0.11920   0.81886   0.00000  Uiso   1.00
O756   O     0.29669   0.07669   0.82769   0.00000  Uiso   1.00
O757   O     0.26342   0.14146   0.84348   0.00000  Uiso   1.00
N758   N     0.04371   0.21408   0.68114   0.00000  Uiso   1.00
O759   O     0.03730   0.25681   0.67282   0.00000  Uiso   1.00
O760   O     0.06954   0.19163   0.65624   0.00000  Uiso   1.00
O761   O     0.43892   0.20487   0.75000   0.00000  Uiso   1.00
O762   O     0.56108   0.12846   0.75001   0.00000  Uiso   1.00
O763   O     0.56108   0.20487   0.75001   0.00000  Uiso   1.00
O764   O     0.43892   0.12846   0.75000   0.00000  Uiso   1.00
C765   C     0.42010   0.16653   0.74974   0.00000  Uiso   1.00
C766   C     0.57990   0.16680   0.75027   0.00000  Uiso   1.00
O767   O     0.49999   0.20489   0.68393   0.00000  Uiso   1.00
O768   O     0.50001   0.12844   0.81607   0.00000  Uiso   1.00
O769   O     0.50001   0.20489   0.81608   0.00000  Uiso   1.00
O770   O     0.49999   0.12844   0.68393   0.00000  Uiso   1.00
C771   C     0.49987   0.16680   0.66333   0.00000  Uiso   1.00
C772   C     0.50001   0.16656   0.83665   0.00000  Uiso   1.00
Zn773  Zn    0.50000   0.21771   0.75000   0.00000  Uiso   1.00
Zn774  Zn    0.50000   0.11563   0.75000   0.00000  Uiso   1.00
C775   C     0.51668   0.20351   0.90707   0.00000  Uiso   1.00
C776   C     0.48049   0.13071   0.59305   0.00000  Uiso   1.00
C777   C     0.49982   0.16647   0.88449   0.00000  Uiso   1.00
C778   C     0.49848   0.16725   0.61548   0.00000  Uiso   1.00
C779   C     0.48214   0.12992   0.90735   0.00000  Uiso   1.00
C780   C     0.51467   0.20448   0.59249   0.00000  Uiso   1.00
C781   C     0.48042   0.13047   0.95353   0.00000  Uiso   1.00
C782   C     0.51436   0.20483   0.54636   0.00000  Uiso   1.00
C783   C     0.49730   0.16784   0.97673   0.00000  Uiso   1.00
C784   C     0.49647   0.16786   0.52319   0.00000  Uiso   1.00
C785   C     0.51564   0.20481   0.95339   0.00000  Uiso   1.00
C786   C     0.47835   0.13075   0.54659   0.00000  Uiso   1.00
C787   C     0.46160   0.09438   0.97644   0.00000  Uiso   1.00
C788   C     0.53235   0.24132   0.52333   0.00000  Uiso   1.00
C789   C     0.45947   0.09428   0.52325   0.00000  Uiso   1.00
C790   C     0.53305   0.24177   0.97681   0.00000  Uiso   1.00
H791   H     0.53094   0.23097   0.88826   0.00000  Uiso   1.00
H792   H     0.46838   0.10239   0.61227   0.00000  Uiso   1.00
H793   H     0.46900   0.10149   0.88911   0.00000  Uiso   1.00
H794   H     0.52854   0.23263   0.61055   0.00000  Uiso   1.00
H795   H     0.44812   0.06688   0.95732   0.00000  Uiso   1.00
H796   H     0.54608   0.26946   0.54147   0.00000  Uiso   1.00
C797   C     0.35505   0.14130   0.78260   0.00000  Uiso   1.00
C798   C     0.64494   0.19206   0.71741   0.00000  Uiso   1.00
C799   C     0.64518   0.14194   0.78349   0.00000  Uiso   1.00
C800   C     0.35482   0.19142   0.71654   0.00000  Uiso   1.00
C801   C     0.62404   0.16720   0.75066   0.00000  Uiso   1.00
C802   C     0.37596   0.16613   0.74934   0.00000  Uiso   1.00
C803   C     0.52393   0.02397   0.77988   0.00000  Uiso   1.00
C804   C     0.47604   0.30936   0.72014   0.00000  Uiso   1.00
C805   C     0.47603   0.02402   0.72015   0.00000  Uiso   1.00
C806   C     0.52393   0.30932   0.77988   0.00000  Uiso   1.00
H807   H     0.54304   0.04215   0.80377   0.00000  Uiso   1.00
H808   H     0.45691   0.29118   0.69628   0.00000  Uiso   1.00
H809   H     0.45687   0.04223   0.69630   0.00000  Uiso   1.00
H810   H     0.54306   0.29110   0.80376   0.00000  Uiso   1.00
N811   N     0.50000   0.28573   0.75000   0.00000  Uiso   1.00
N812   N     0.50000   0.04760   0.75000   0.00000  Uiso   1.00
N813   N     0.43801   0.05900   0.54735   0.00000  Uiso   1.00
H814   H     0.41759   0.07054   0.57127   0.00000  Uiso   1.00
C815   C     0.42285   0.01909   0.52432   0.00000  Uiso   1.00
H816   H     0.41037   0.32774   0.54910   0.00000  Uiso   1.00
H817   H     0.44869   0.00242   0.50621   0.00000  Uiso   1.00
H818   H     0.39723   0.02828   0.50087   0.00000  Uiso   1.00
N819   N     0.55288   0.27842   0.95389   0.00000  Uiso   1.00
H820   H     0.57913   0.29068   0.97001   0.00000  Uiso   1.00
C821   C     0.52497   0.31450   0.94055   0.00000  Uiso   1.00
H822   H     0.54186   0.00528   0.91835   0.00000  Uiso   1.00
H823   H     0.51415   0.33318   0.97042   0.00000  Uiso   1.00
H824   H     0.49758   0.30084   0.92197   0.00000  Uiso   1.00
N825   N     0.37776   0.11877   0.81752   0.00000  Uiso   1.00
O826   O     0.39428   0.14225   0.84978   0.00000  Uiso   1.00
O827   O     0.38529   0.07558   0.81483   0.00000  Uiso   1.00
N828   N     0.62222   0.21471   0.68254   0.00000  Uiso   1.00
O829   O     0.60393   0.19117   0.65142   0.00000  Uiso   1.00
O830   O     0.61603   0.25820   0.68463   0.00000  Uiso   1.00
N831   N     0.62297   0.11920   0.81886   0.00000  Uiso   1.00
O832   O     0.63003   0.07669   0.82769   0.00000  Uiso   1.00
O833   O     0.59676   0.14146   0.84348   0.00000  Uiso   1.00
N834   N     0.37705   0.21408   0.68114   0.00000  Uiso   1.00
O835   O     0.37063   0.25681   0.67282   0.00000  Uiso   1.00
O836   O     0.40288   0.19163   0.65624   0.00000  Uiso   1.00
O837   O     0.77226   0.20487   0.75000   0.00000  Uiso   1.00
O838   O     0.89441   0.12846   0.75001   0.00000  Uiso   1.00
O839   O     0.89441   0.20487   0.75001   0.00000  Uiso   1.00
O840   O     0.77226   0.12846   0.75000   0.00000  Uiso   1.00
C841   C     0.75343   0.16653   0.74974   0.00000  Uiso   1.00
C842   C     0.91324   0.16680   0.75027   0.00000  Uiso   1.00
O843   O     0.83333   0.20489   0.68393   0.00000  Uiso   1.00
O844   O     0.83334   0.12844   0.81607   0.00000  Uiso   1.00
O845   O     0.83334   0.20489   0.81608   0.00000  Uiso   1.00
O846   O     0.83333   0.12844   0.68393   0.00000  Uiso   1.00
C847   C     0.83320   0.16680   0.66333   0.00000  Uiso   1.00
C848   C     0.83334   0.16656   0.83665   0.00000  Uiso   1.00
Zn849  Zn    0.83333   0.21771   0.75000   0.00000  Uiso   1.00
Zn850  Zn    0.83333   0.11563   0.75000   0.00000  Uiso   1.00
C851   C     0.85001   0.20351   0.90707   0.00000  Uiso   1.00
C852   C     0.81382   0.13071   0.59305   0.00000  Uiso   1.00
C853   C     0.83315   0.16647   0.88449   0.00000  Uiso   1.00
C854   C     0.83181   0.16725   0.61548   0.00000  Uiso   1.00
C855   C     0.81547   0.12992   0.90735   0.00000  Uiso   1.00
C856   C     0.84800   0.20448   0.59249   0.00000  Uiso   1.00
C857   C     0.81375   0.13047   0.95353   0.00000  Uiso   1.00
C858   C     0.84769   0.20483   0.54636   0.00000  Uiso   1.00
C859   C     0.83063   0.16784   0.97673   0.00000  Uiso   1.00
C860   C     0.82980   0.16786   0.52319   0.00000  Uiso   1.00
C861   C     0.84897   0.20481   0.95339   0.00000  Uiso   1.00
C862   C     0.81169   0.13075   0.54659   0.00000  Uiso   1.00
C863   C     0.79493   0.09438   0.97644   0.00000  Uiso   1.00
C864   C     0.86568   0.24132   0.52333   0.00000  Uiso   1.00
C865   C     0.79280   0.09428   0.52325   0.00000  Uiso   1.00
C866   C     0.86639   0.24177   0.97681   0.00000  Uiso   1.00
H867   H     0.86428   0.23097   0.88826   0.00000  Uiso   1.00
H868   H     0.80172   0.10239   0.61227   0.00000  Uiso   1.00
H869   H     0.80234   0.10149   0.88911   0.00000  Uiso   1.00
H870   H     0.86187   0.23263   0.61055   0.00000  Uiso   1.00
H871   H     0.78145   0.06688   0.95732   0.00000  Uiso   1.00
H872   H     0.87942   0.26946   0.54147   0.00000  Uiso   1.00
C873   C     0.68838   0.14130   0.78260   0.00000  Uiso   1.00
C874   C     0.97827   0.19206   0.71741   0.00000  Uiso   1.00
C875   C     0.97851   0.14194   0.78349   0.00000  Uiso   1.00
C876   C     0.68815   0.19142   0.71654   0.00000  Uiso   1.00
C877   C     0.95737   0.16720   0.75066   0.00000  Uiso   1.00
C878   C     0.70929   0.16613   0.74934   0.00000  Uiso   1.00
C879   C     0.85726   0.02397   0.77988   0.00000  Uiso   1.00
C880   C     0.80938   0.30936   0.72014   0.00000  Uiso   1.00
C881   C     0.80937   0.02402   0.72015   0.00000  Uiso   1.00
C882   C     0.85727   0.30932   0.77988   0.00000  Uiso   1.00
H883   H     0.87638   0.04215   0.80377   0.00000  Uiso   1.00
H884   H     0.79024   0.29118   0.69628   0.00000  Uiso   1.00
H885   H     0.79021   0.04223   0.69630   0.00000  Uiso   1.00
H886   H     0.87639   0.29110   0.80376   0.00000  Uiso   1.00
N887   N     0.83333   0.28573   0.75000   0.00000  Uiso   1.00
N888   N     0.83333   0.04760   0.75000   0.00000  Uiso   1.00
N889   N     0.77134   0.05900   0.54735   0.00000  Uiso   1.00
H890   H     0.75092   0.07054   0.57127   0.00000  Uiso   1.00
C891   C     0.75618   0.01909   0.52432   0.00000  Uiso   1.00
H892   H     0.74370   0.32774   0.54910   0.00000  Uiso   1.00
H893   H     0.78202   0.00242   0.50621   0.00000  Uiso   1.00
H894   H     0.73056   0.02828   0.50087   0.00000  Uiso   1.00
N895   N     0.88621   0.27842   0.95389   0.00000  Uiso   1.00
H896   H     0.91247   0.29068   0.97001   0.00000  Uiso   1.00
C897   C     0.85830   0.31450   0.94055   0.00000  Uiso   1.00
H898   H     0.87519   0.00528   0.91835   0.00000  Uiso   1.00
H899   H     0.84748   0.33318   0.97042   0.00000  Uiso   1.00
H900   H     0.83091   0.30084   0.92197   0.00000  Uiso   1.00
N901   N     0.71110   0.11877   0.81752   0.00000  Uiso   1.00
O902   O     0.72762   0.14225   0.84978   0.00000  Uiso   1.00
O903   O     0.71862   0.07558   0.81483   0.00000  Uiso   1.00
N904   N     0.95556   0.21471   0.68254   0.00000  Uiso   1.00
O905   O     0.93726   0.19117   0.65142   0.00000  Uiso   1.00
O906   O     0.94937   0.25820   0.68463   0.00000  Uiso   1.00
N907   N     0.95630   0.11920   0.81886   0.00000  Uiso   1.00
O908   O     0.96336   0.07669   0.82769   0.00000  Uiso   1.00
O909   O     0.93009   0.14146   0.84348   0.00000  Uiso   1.00
N910   N     0.71038   0.21408   0.68114   0.00000  Uiso   1.00
O911   O     0.70396   0.25681   0.67282   0.00000  Uiso   1.00
O912   O     0.73621   0.19163   0.65624   0.00000  Uiso   1.00
O913   O     0.10559   0.53821   0.75000   0.00000  Uiso   1.00
O914   O     0.22774   0.46179   0.75001   0.00000  Uiso   1.00
O915   O     0.22774   0.53821   0.75001   0.00000  Uiso   1.00
O916   O     0.10559   0.46179   0.75000   0.00000  Uiso   1.00
C917   C     0.08676   0.49987   0.74974   0.00000  Uiso   1.00
C918   C     0.24657   0.50013   0.75027   0.00000  Uiso   1.00
O919   O     0.16666   0.53823   0.68393   0.00000  Uiso   1.00
O920   O     0.16667   0.46177   0.81607   0.00000  Uiso   1.00
O921   O     0.16667   0.53823   0.81608   0.00000  Uiso   1.00
O922   O     0.16666   0.46177   0.68393   0.00000  Uiso   1.00
C923   C     0.16653   0.50013   0.66333   0.00000  Uiso   1.00
C924   C     0.16668   0.49989   0.83665   0.00000  Uiso   1.00
Zn925  Zn    0.16667   0.55104   0.75000   0.00000  Uiso   1.00
Zn926  Zn    0.16667   0.44896   0.75000   0.00000  Uiso   1.00
C927   C     0.18335   0.53684   0.90707   0.00000  Uiso   1.00
C928   C     0.14715   0.46404   0.59305   0.00000  Uiso   1.00
C929   C     0.16649   0.49981   0.88449   0.00000  Uiso   1.00
C930   C     0.16514   0.50058   0.61548   0.00000  Uiso   1.00
C931   C     0.14881   0.46325   0.90735   0.00000  Uiso   1.00
C932   C     0.18133   0.53781   0.59249   0.00000  Uiso   1.00
C933   C     0.14708   0.46380   0.95353   0.00000  Uiso   1.00
C934   C     0.18103   0.53816   0.54636   0.00000  Uiso   1.00
C935   C     0.16396   0.50117   0.97673   0.00000  Uiso   1.00
C936   C     0.16314   0.50119   0.52319   0.00000  Uiso   1.00
C937   C     0.18231   0.53814   0.95339   0.00000  Uiso   1.00
C938   C     0.14502   0.46408   0.54659   0.00000  Uiso   1.00
C939   C     0.12827   0.42771   0.97644   0.00000  Uiso   1.00
C940   C     0.19902   0.57465   0.52333   0.00000  Uiso   1.00
C941   C     0.12614   0.42762   0.52325   0.00000  Uiso   1.00
C942   C     0.19972   0.57511   0.97681   0.00000  Uiso   1.00
H943   H     0.19761   0.56431   0.88826   0.00000  Uiso   1.00
H944   H     0.13505   0.43572   0.61227   0.00000  Uiso   1.00
H945   H     0.13567   0.43482   0.88911   0.00000  Uiso   1.00
H946   H     0.19520   0.56596   0.61055   0.00000  Uiso   1.00
H947   H     0.11479   0.40022   0.95732   0.00000  Uiso   1.00
H948   H     0.21275   0.60279   0.54147   0.00000  Uiso   1.00
C949   C     0.02172   0.47463   0.78260   0.00000  Uiso   1.00
C950   C     0.31161   0.52539   0.71741   0.00000  Uiso   1.00
C951   C     0.31184   0.47527   0.78349   0.00000  Uiso   1.00
C952   C     0.02149   0.52476   0.71654   0.00000  Uiso   1.00
C953   C     0.29070   0.50053   0.75066   0.00000  Uiso   1.00
C954   C     0.04262   0.49946   0.74934   0.00000  Uiso   1.00
C955   C     0.19060   0.35730   0.77988   0.00000  Uiso   1.00
C956   C     0.14271   0.64270   0.72014   0.00000  Uiso   1.00
C957   C     0.14270   0.35735   0.72015   0.00000  Uiso   1.00
C958   C     0.19060   0.64265   0.77988   0.00000  Uiso   1.00
H959   H     0.20971   0.37549   0.80377   0.00000  Uiso   1.00
H960   H     0.12358   0.62451   0.69628   0.00000  Uiso   1.00
H961   H     0.12354   0.37557   0.69630   0.00000  Uiso   1.00
H962   H     0.20973   0.62443   0.80376   0.00000  Uiso   1.00
N963   N     0.16667   0.61907   0.75000   0.00000  Uiso   1.00
N964   N     0.16667   0.38093   0.75000   0.00000  Uiso   1.00
N965   N     0.10467   0.39234   0.54735   0.00000  Uiso   1.00
H966   H     0.08426   0.40387   0.57127   0.00000  Uiso   1.00
C967   C     0.08951   0.35243   0.52432   0.00000  Uiso   1.00
H968   H     0.07703   0.66107   0.54910   0.00000  Uiso   1.00
H969   H     0.11535   0.33576   0.50621   0.00000  Uiso   1.00
H970   H     0.06389   0.36162   0.50087   0.00000  Uiso   1.00
N971   N     0.21954   0.61176   0.95389   0.00000  Uiso   1.00
H972   H     0.24580   0.62402   0.97001   0.00000  Uiso   1.00
C973   C     0.19164   0.64784   0.94055   0.00000  Uiso   1.00
H974   H     0.20853   0.33862   0.91835   0.00000  Uiso   1.00
H975   H     0.18081   0.66651   0.97042   0.00000  Uiso   1.00
H976   H     0.16424   0.63417   0.92197   0.00000  Uiso   1.00
N977   N     0.04443   0.45210   0.81752   0.00000  Uiso   1.00
O978   O     0.06095   0.47559   0.84978   0.00000  Uiso   1.00
O979   O     0.05196   0.40891   0.81483   0.00000  Uiso   1.00
N980   N     0.28889   0.54805   0.68254   0.00000  Uiso   1.00
O981   O     0.27060   0.52451   0.65142   0.00000  Uiso   1.00
O982   O     0.28270   0.59153   0.68463   0.00000  Uiso   1.00
N983   N     0.28964   0.45253   0.81886   0.00000  Uiso   1.00
O984   O     0.29669   0.41003   0.82769   0.00000  Uiso   1.00
O985   O     0.26342   0.47479   0.84348   0.00000  Uiso   1.00
N986   N     0.04371   0.54741   0.68114   0.00000  Uiso   1.00
O987   O     0.03730   0.59014   0.67282   0.00000  Uiso   1.00
O988   O     0.06954   0.52496   0.65624   0.00000  Uiso   1.00
O989   O     0.43892   0.53821   0.75000   0.00000  Uiso   1.00
O990   O     0.56108   0.46179   0.75001   0.00000  Uiso   1.00
O991   O     0.56108   0.53821   0.75001   0.00000  Uiso   1.00
O992   O     0.43892   0.46179   0.75000   0.00000  Uiso   1.00
C993   C     0.42010   0.49987   0.74974   0.00000  Uiso   1.00
C994   C     0.57990   0.50013   0.75027   0.00000  Uiso   1.00
O995   O     0.49999   0.53823   0.68393   0.00000  Uiso   1.00
O996   O     0.50001   0.46177   0.81607   0.00000  Uiso   1.00
O997   O     0.50001   0.53823   0.81608   0.00000  Uiso   1.00
O998   O     0.49999   0.46177   0.68393   0.00000  Uiso   1.00
C999   C     0.49987   0.50013   0.66333   0.00000  Uiso   1.00
C1000  C     0.50001   0.49989   0.83665   0.00000  Uiso   1.00
Zn1001 Zn    0.50000   0.55104   0.75000   0.00000  Uiso   1.00
Zn1002 Zn    0.50000   0.44896   0.75000   0.00000  Uiso   1.00
C1003  C     0.51668   0.53684   0.90707   0.00000  Uiso   1.00
C1004  C     0.48049   0.46404   0.59305   0.00000  Uiso   1.00
C1005  C     0.49982   0.49981   0.88449   0.00000  Uiso   1.00
C1006  C     0.49848   0.50058   0.61548   0.00000  Uiso   1.00
C1007  C     0.48214   0.46325   0.90735   0.00000  Uiso   1.00
C1008  C     0.51467   0.53781   0.59249   0.00000  Uiso   1.00
C1009  C     0.48042   0.46380   0.95353   0.00000  Uiso   1.00
C1010  C     0.51436   0.53816   0.54636   0.00000  Uiso   1.00
C1011  C     0.49730   0.50117   0.97673   0.00000  Uiso   1.00
C1012  C     0.49647   0.50119   0.52319   0.00000  Uiso   1.00
C1013  C     0.51564   0.53814   0.95339   0.00000  Uiso   1.00
C1014  C     0.47835   0.46408   0.54659   0.00000  Uiso   1.00
C1015  C     0.46160   0.42771   0.97644   0.00000  Uiso   1.00
C1016  C     0.53235   0.57465   0.52333   0.00000  Uiso   1.00
C1017  C     0.45947   0.42762   0.52325   0.00000  Uiso   1.00
C1018  C     0.53305   0.57511   0.97681   0.00000  Uiso   1.00
H1019  H     0.53094   0.56431   0.88826   0.00000  Uiso   1.00
H1020  H     0.46838   0.43572   0.61227   0.00000  Uiso   1.00
H1021  H     0.46900   0.43482   0.88911   0.00000  Uiso   1.00
H1022  H     0.52854   0.56596   0.61055   0.00000  Uiso   1.00
H1023  H     0.44812   0.40022   0.95732   0.00000  Uiso   1.00
H1024  H     0.54608   0.60279   0.54147   0.00000  Uiso   1.00
C1025  C     0.35505   0.47463   0.78260   0.00000  Uiso   1.00
C1026  C     0.64494   0.52539   0.71741   0.00000  Uiso   1.00
C1027  C     0.64518   0.47527   0.78349   0.00000  Uiso   1.00
C1028  C     0.35482   0.52476   0.71654   0.00000  Uiso   1.00
C1029  C     0.62404   0.50053   0.75066   0.00000  Uiso   1.00
C1030  C     0.37596   0.49946   0.74934   0.00000  Uiso   1.00
C1031  C     0.52393   0.35730   0.77988   0.00000  Uiso   1.00
C1032  C     0.47604   0.64270   0.72014   0.00000  Uiso   1.00
C1033  C     0.47603   0.35735   0.72015   0.00000  Uiso   1.00
C1034  C     0.52393   0.64265   0.77988   0.00000  Uiso   1.00
H1035  H     0.54304   0.37549   0.80377   0.00000  Uiso   1.00
H1036  H     0.45691   0.62451   0.69628   0.00000  Uiso   1.00
H1037  H     0.45687   0.37557   0.69630   0.00000  Uiso   1.00
H1038  H     0.54306   0.62443   0.80376   0.00000  Uiso   1.00
N1039  N     0.50000   0.61907   0.75000   0.00000  Uiso   1.00
N1040  N     0.50000   0.38093   0.75000   0.00000  Uiso   1.00
N1041  N     0.43801   0.39234   0.54735   0.00000  Uiso   1.00
H1042  H     0.41759   0.40387   0.57127   0.00000  Uiso   1.00
C1043  C     0.42285   0.35243   0.52432   0.00000  Uiso   1.00
H1044  H     0.41037   0.66107   0.54910   0.00000  Uiso   1.00
H1045  H     0.44869   0.33576   0.50621   0.00000  Uiso   1.00
H1046  H     0.39723   0.36162   0.50087   0.00000  Uiso   1.00
N1047  N     0.55288   0.61176   0.95389   0.00000  Uiso   1.00
H1048  H     0.57913   0.62402   0.97001   0.00000  Uiso   1.00
C1049  C     0.52497   0.64784   0.94055   0.00000  Uiso   1.00
H1050  H     0.54186   0.33862   0.91835   0.00000  Uiso   1.00
H1051  H     0.51415   0.66651   0.97042   0.00000  Uiso   1.00
H1052  H     0.49758   0.63417   0.92197   0.00000  Uiso   1.00
N1053  N     0.37776   0.45210   0.81752   0.00000  Uiso   1.00
O1054  O     0.39428   0.47559   0.84978   0.00000  Uiso   1.00
O1055  O     0.38529   0.40891   0.81483   0.00000  Uiso   1.00
N1056  N     0.62222   0.54805   0.68254   0.00000  Uiso   1.00
O1057  O     0.60393   0.52451   0.65142   0.00000  Uiso   1.00
O1058  O     0.61603   0.59153   0.68463   0.00000  Uiso   1.00
N1059  N     0.62297   0.45253   0.81886   0.00000  Uiso   1.00
O1060  O     0.63003   0.41003   0.82769   0.00000  Uiso   1.00
O1061  O     0.59676   0.47479   0.84348   0.00000  Uiso   1.00
N1062  N     0.37705   0.54741   0.68114   0.00000  Uiso   1.00
O1063  O     0.37063   0.59014   0.67282   0.00000  Uiso   1.00
O1064  O     0.40288   0.52496   0.65624   0.00000  Uiso   1.00
O1065  O     0.77226   0.53821   0.75000   0.00000  Uiso   1.00
O1066  O     0.89441   0.46179   0.75001   0.00000  Uiso   1.00
O1067  O     0.89441   0.53821   0.75001   0.00000  Uiso   1.00
O1068  O     0.77226   0.46179   0.75000   0.00000  Uiso   1.00
C1069  C     0.75343   0.49987   0.74974   0.00000  Uiso   1.00
C1070  C     0.91324   0.50013   0.75027   0.00000  Uiso   1.00
O1071  O     0.83333   0.53823   0.68393   0.00000  Uiso   1.00
O1072  O     0.83334   0.46177   0.81607   0.00000  Uiso   1.00
O1073  O     0.83334   0.53823   0.81608   0.00000  Uiso   1.00
O1074  O     0.83333   0.46177   0.68393   0.00000  Uiso   1.00
C1075  C     0.83320   0.50013   0.66333   0.00000  Uiso   1.00
C1076  C     0.83334   0.49989   0.83665   0.00000  Uiso   1.00
Zn1077 Zn    0.83333   0.55104   0.75000   0.00000  Uiso   1.00
Zn1078 Zn    0.83333   0.44896   0.75000   0.00000  Uiso   1.00
C1079  C     0.85001   0.53684   0.90707   0.00000  Uiso   1.00
C1080  C     0.81382   0.46404   0.59305   0.00000  Uiso   1.00
C1081  C     0.83315   0.49981   0.88449   0.00000  Uiso   1.00
C1082  C     0.83181   0.50058   0.61548   0.00000  Uiso   1.00
C1083  C     0.81547   0.46325   0.90735   0.00000  Uiso   1.00
C1084  C     0.84800   0.53781   0.59249   0.00000  Uiso   1.00
C1085  C     0.81375   0.46380   0.95353   0.00000  Uiso   1.00
C1086  C     0.84769   0.53816   0.54636   0.00000  Uiso   1.00
C1087  C     0.83063   0.50117   0.97673   0.00000  Uiso   1.00
C1088  C     0.82980   0.50119   0.52319   0.00000  Uiso   1.00
C1089  C     0.84897   0.53814   0.95339   0.00000  Uiso   1.00
C1090  C     0.81169   0.46408   0.54659   0.00000  Uiso   1.00
C1091  C     0.79493   0.42771   0.97644   0.00000  Uiso   1.00
C1092  C     0.86568   0.57465   0.52333   0.00000  Uiso   1.00
C1093  C     0.79280   0.42762   0.52325   0.00000  Uiso   1.00
C1094  C     0.86639   0.57511   0.97681   0.00000  Uiso   1.00
H1095  H     0.86428   0.56431   0.88826   0.00000  Uiso   1.00
H1096  H     0.80172   0.43572   0.61227   0.00000  Uiso   1.00
H1097  H     0.80234   0.43482   0.88911   0.00000  Uiso   1.00
H1098  H     0.86187   0.56596   0.61055   0.00000  Uiso   1.00
H1099  H     0.78145   0.40022   0.95732   0.00000  Uiso   1.00
H1100  H     0.87942   0.60279   0.54147   0.00000  Uiso   1.00
C1101  C     0.68838   0.47463   0.78260   0.00000  Uiso   1.00
C1102  C     0.97827   0.52539   0.71741   0.00000  Uiso   1.00
C1103  C     0.97851   0.47527   0.78349   0.00000  Uiso   1.00
C1104  C     0.68815   0.52476   0.71654   0.00000  Uiso   1.00
C1105  C     0.95737   0.50053   0.75066   0.00000  Uiso   1.00
C1106  C     0.70929   0.49946   0.74934   0.00000  Uiso   1.00
C1107  C     0.85726   0.35730   0.77988   0.00000  Uiso   1.00
C1108  C     0.80938   0.64270   0.72014   0.00000  Uiso   1.00
C1109  C     0.80937   0.35735   0.72015   0.00000  Uiso   1.00
C1110  C     0.85727   0.64265   0.77988   0.00000  Uiso   1.00
H1111  H     0.87638   0.37549   0.80377   0.00000  Uiso   1.00
H1112  H     0.79024   0.62451   0.69628   0.00000  Uiso   1.00
H1113  H     0.79021   0.37557   0.69630   0.00000  Uiso   1.00
H1114  H     0.87639   0.62443   0.80376   0.00000  Uiso   1.00
N1115  N     0.83333   0.61907   0.75000   0.00000  Uiso   1.00
N1116  N     0.83333   0.38093   0.75000   0.00000  Uiso   1.00
N1117  N     0.77134   0.39234   0.54735   0.00000  Uiso   1.00
H1118  H     0.75092   0.40387   0.57127   0.00000  Uiso   1.00
C1119  C     0.75618   0.35243   0.52432   0.00000  Uiso   1.00
H1120  H     0.74370   0.66107   0.54910   0.00000  Uiso   1.00
H1121  H     0.78202   0.33576   0.50621   0.00000  Uiso   1.00
H1122  H     0.73056   0.36162   0.50087   0.00000  Uiso   1.00
N1123  N     0.88621   0.61176   0.95389   0.00000  Uiso   1.00
H1124  H     0.91247   0.62402   0.97001   0.00000  Uiso   1.00
C1125  C     0.85830   0.64784   0.94055   0.00000  Uiso   1.00
H1126  H     0.87519   0.33862   0.91835   0.00000  Uiso   1.00
H1127  H     0.84748   0.66651   0.97042   0.00000  Uiso   1.00
H1128  H     0.83091   0.63417   0.92197   0.00000  Uiso   1.00
N1129  N     0.71110   0.45210   0.81752   0.00000  Uiso   1.00
O1130  O     0.72762   0.47559   0.84978   0.00000  Uiso   1.00
O1131  O     0.71862   0.40891   0.81483   0.00000  Uiso   1.00
N1132  N     0.95556   0.54805   0.68254   0.00000  Uiso   1.00
O1133  O     0.93726   0.52451   0.65142   0.00000  Uiso   1.00
O1134  O     0.94937   0.59153   0.68463   0.00000  Uiso   1.00
N1135  N     0.95630   0.45253   0.81886   0.00000  Uiso   1.00
O1136  O     0.96336   0.41003   0.82769   0.00000  Uiso   1.00
O1137  O     0.93009   0.47479   0.84348   0.00000  Uiso   1.00
N1138  N     0.71038   0.54741   0.68114   0.00000  Uiso   1.00
O1139  O     0.70396   0.59014   0.67282   0.00000  Uiso   1.00
O1140  O     0.73621   0.52496   0.65624   0.00000  Uiso   1.00
O1141  O     0.10559   0.87154   0.75000   0.00000  Uiso   1.00
O1142  O     0.22774   0.79513   0.75001   0.00000  Uiso   1.00
O1143  O     0.22774   0.87154   0.75001   0.00000  Uiso   1.00
O1144  O     0.10559   0.79513   0.75000   0.00000  Uiso   1.00
C1145  C     0.08676   0.83320   0.74974   0.00000  Uiso   1.00
C1146  C     0.24657   0.83347   0.75027   0.00000  Uiso   1.00
O1147  O     0.16666   0.87156   0.68393   0.00000  Uiso   1.00
O1148  O     0.16667   0.79511   0.81607   0.00000  Uiso   1.00
O1149  O     0.16667   0.87156   0.81608   0.00000  Uiso   1.00
O1150  O     0.16666   0.79511   0.68393   0.00000  Uiso   1.00
C1151  C     0.16653   0.83347   0.66333   0.00000  Uiso   1.00
C1152  C     0.16668   0.83323   0.83665   0.00000  Uiso   1.00
Zn1153 Zn    0.16667   0.88437   0.75000   0.00000  Uiso   1.00
Zn1154 Zn    0.16667   0.78229   0.75000   0.00000  Uiso   1.00
C1155  C     0.18335   0.87018   0.90707   0.00000  Uiso   1.00
C1156  C     0.14715   0.79737   0.59305   0.00000  Uiso   1.00
C1157  C     0.16649   0.83314   0.88449   0.00000  Uiso   1.00
C1158  C     0.16514   0.83392   0.61548   0.00000  Uiso   1.00
C1159  C     0.14881   0.79658   0.90735   0.00000  Uiso   1.00
C1160  C     0.18133   0.87115   0.59249   0.00000  Uiso   1.00
C1161  C     0.14708   0.79713   0.95353   0.00000  Uiso   1.00
C1162  C     0.18103   0.87149   0.54636   0.00000  Uiso   1.00
C1163  C     0.16396   0.83450   0.97673   0.00000  Uiso   1.00
C1164  C     0.16314   0.83453   0.52319   0.00000  Uiso   1.00
C1165  C     0.18231   0.87148   0.95339   0.00000  Uiso   1.00
C1166  C     0.14502   0.79742   0.54659   0.00000  Uiso   1.00
C1167  C     0.12827   0.76105   0.97644   0.00000  Uiso   1.00
C1168  C     0.19902   0.90798   0.52333   0.00000  Uiso   1.00
C1169  C     0.12614   0.76095   0.52325   0.00000  Uiso   1.00
C1170  C     0.19972   0.90844   0.97681   0.00000  Uiso   1.00
H1171  H     0.19761   0.89764   0.88826   0.00000  Uiso   1.00
H1172  H     0.13505   0.76906   0.61227   0.00000  Uiso   1.00
H1173  H     0.13567   0.76815   0.88911   0.00000  Uiso   1.00
H1174  H     0.19520   0.89930   0.61055   0.00000  Uiso   1.00
H1175  H     0.11479   0.73355   0.95732   0.00000  Uiso   1.00
H1176  H     0.21275   0.93613   0.54147   0.00000  Uiso   1.00
C1177  C     0.02172   0.80796   0.78260   0.00000  Uiso   1.00
C1178  C     0.31161   0.85873   0.71741   0.00000  Uiso   1.00
C1179  C     0.31184   0.80861   0.78349   0.00000  Uiso   1.00
C1180  C     0.02149   0.85809   0.71654   0.00000  Uiso   1.00
C1181  C     0.29070   0.83386   0.75066   0.00000  Uiso   1.00
C1182  C     0.04262   0.83280   0.74934   0.00000  Uiso   1.00
C1183  C     0.19060   0.69064   0.77988   0.00000  Uiso   1.00
C1184  C     0.14271   0.97603   0.72014   0.00000  Uiso   1.00
C1185  C     0.14270   0.69068   0.72015   0.00000  Uiso   1.00
C1186  C     0.19060   0.97598   0.77988   0.00000  Uiso   1.00
H1187  H     0.20971   0.70882   0.80377   0.00000  Uiso   1.00
H1188  H     0.12358   0.95784   0.69628   0.00000  Uiso   1.00
H1189  H     0.12354   0.70890   0.69630   0.00000  Uiso   1.00
H1190  H     0.20973   0.95777   0.80376   0.00000  Uiso   1.00
N1191  N     0.16667   0.95240   0.75000   0.00000  Uiso   1.00
N1192  N     0.16667   0.71427   0.75000   0.00000  Uiso   1.00
N1193  N     0.10467   0.72567   0.54735   0.00000  Uiso   1.00
H1194  H     0.08426   0.73721   0.57127   0.00000  Uiso   1.00
C1195  C     0.08951   0.68576   0.52432   0.00000  Uiso   1.00
H1196  H     0.07703   0.99441   0.54910   0.00000  Uiso   1.00
H1197  H     0.11535   0.66909   0.50621   0.00000  Uiso   1.00
H1198  H     0.06389   0.69495   0.50087   0.00000  Uiso   1.00
N1199  N     0.21954   0.94509   0.95389   0.00000  Uiso   1.00
H1200  H     0.24580   0.95735   0.97001   0.00000  Uiso   1.00
C1201  C     0.19164   0.98117   0.94055   0.00000  Uiso   1.00
H1202  H     0.20853   0.67195   0.91835   0.00000  Uiso   1.00
H1203  H     0.18081   0.99984   0.97042   0.00000  Uiso   1.00
H1204  H     0.16424   0.96751   0.92197   0.00000  Uiso   1.00
N1205  N     0.04443   0.78543   0.81752   0.00000  Uiso   1.00
O1206  O     0.06095   0.80892   0.84978   0.00000  Uiso   1.00
O1207  O     0.05196   0.74225   0.81483   0.00000  Uiso   1.00
N1208  N     0.28889   0.88138   0.68254   0.00000  Uiso   1.00
O1209  O     0.27060   0.85784   0.65142   0.00000  Uiso   1.00
O1210  O     0.28270   0.92486   0.68463   0.00000  Uiso   1.00
N1211  N     0.28964   0.78587   0.81886   0.00000  Uiso   1.00
O1212  O     0.29669   0.74336   0.82769   0.00000  Uiso   1.00
O1213  O     0.26342   0.80812   0.84348   0.00000  Uiso   1.00
N1214  N     0.04371   0.88074   0.68114   0.00000  Uiso   1.00
O1215  O     0.03730   0.92348   0.67282   0.00000  Uiso   1.00
O1216  O     0.06954   0.85830   0.65624   0.00000  Uiso   1.00
O1217  O     0.43892   0.87154   0.75000   0.00000  Uiso   1.00
O1218  O     0.56108   0.79513   0.75001   0.00000  Uiso   1.00
O1219  O     0.56108   0.87154   0.75001   0.00000  Uiso   1.00
O1220  O     0.43892   0.79513   0.75000   0.00000  Uiso   1.00
C1221  C     0.42010   0.83320   0.74974   0.00000  Uiso   1.00
C1222  C     0.57990   0.83347   0.75027   0.00000  Uiso   1.00
O1223  O     0.49999   0.87156   0.68393   0.00000  Uiso   1.00
O1224  O     0.50001   0.79511   0.81607   0.00000  Uiso   1.00
O1225  O     0.50001   0.87156   0.81608   0.00000  Uiso   1.00
O1226  O     0.49999   0.79511   0.68393   0.00000  Uiso   1.00
C1227  C     0.49987   0.83347   0.66333   0.00000  Uiso   1.00
C1228  C     0.50001   0.83323   0.83665   0.00000  Uiso   1.00
Zn1229 Zn    0.50000   0.88437   0.75000   0.00000  Uiso   1.00
Zn1230 Zn    0.50000   0.78229   0.75000   0.00000  Uiso   1.00
C1231  C     0.51668   0.87018   0.90707   0.00000  Uiso   1.00
C1232  C     0.48049   0.79737   0.59305   0.00000  Uiso   1.00
C1233  C     0.49982   0.83314   0.88449   0.00000  Uiso   1.00
C1234  C     0.49848   0.83392   0.61548   0.00000  Uiso   1.00
C1235  C     0.48214   0.79658   0.90735   0.00000  Uiso   1.00
C1236  C     0.51467   0.87115   0.59249   0.00000  Uiso   1.00
C1237  C     0.48042   0.79713   0.95353   0.00000  Uiso   1.00
C1238  C     0.51436   0.87149   0.54636   0.00000  Uiso   1.00
C1239  C     0.49730   0.83450   0.97673   0.00000  Uiso   1.00
C1240  C     0.49647   0.83453   0.52319   0.00000  Uiso   1.00
C1241  C     0.51564   0.87148   0.95339   0.00000  Uiso   1.00
C1242  C     0.47835   0.79742   0.54659   0.00000  Uiso   1.00
C1243  C     0.46160   0.76105   0.97644   0.00000  Uiso   1.00
C1244  C     0.53235   0.90798   0.52333   0.00000  Uiso   1.00
C1245  C     0.45947   0.76095   0.52325   0.00000  Uiso   1.00
C1246  C     0.53305   0.90844   0.97681   0.00000  Uiso   1.00
H1247  H     0.53094   0.89764   0.88826   0.00000  Uiso   1.00
H1248  H     0.46838   0.76906   0.61227   0.00000  Uiso   1.00
H1249  H     0.46900   0.76815   0.88911   0.00000  Uiso   1.00
H1250  H     0.52854   0.89930   0.61055   0.00000  Uiso   1.00
H1251  H     0.44812   0.73355   0.95732   0.00000  Uiso   1.00
H1252  H     0.54608   0.93613   0.54147   0.00000  Uiso   1.00
C1253  C     0.35505   0.80796   0.78260   0.00000  Uiso   1.00
C1254  C     0.64494   0.85873   0.71741   0.00000  Uiso   1.00
C1255  C     0.64518   0.80861   0.78349   0.00000  Uiso   1.00
C1256  C     0.35482   0.85809   0.71654   0.00000  Uiso   1.00
C1257  C     0.62404   0.83386   0.75066   0.00000  Uiso   1.00
C1258  C     0.37596   0.83280   0.74934   0.00000  Uiso   1.00
C1259  C     0.52393   0.69064   0.77988   0.00000  Uiso   1.00
C1260  C     0.47604   0.97603   0.72014   0.00000  Uiso   1.00
C1261  C     0.47603   0.69068   0.72015   0.00000  Uiso   1.00
C1262  C     0.52393   0.97598   0.77988   0.00000  Uiso   1.00
H1263  H     0.54304   0.70882   0.80377   0.00000  Uiso   1.00
H1264  H     0.45691   0.95784   0.69628   0.00000  Uiso   1.00
H1265  H     0.45687   0.70890   0.69630   0.00000  Uiso   1.00
H1266  H     0.54306   0.95777   0.80376   0.00000  Uiso   1.00
N1267  N     0.50000   0.95240   0.75000   0.00000  Uiso   1.00
N1268  N     0.50000   0.71427   0.75000   0.00000  Uiso   1.00
N1269  N     0.43801   0.72567   0.54735   0.00000  Uiso   1.00
H1270  H     0.41759   0.73721   0.57127   0.00000  Uiso   1.00
C1271  C     0.42285   0.68576   0.52432   0.00000  Uiso   1.00
H1272  H     0.41037   0.99441   0.54910   0.00000  Uiso   1.00
H1273  H     0.44869   0.66909   0.50621   0.00000  Uiso   1.00
H1274  H     0.39723   0.69495   0.50087   0.00000  Uiso   1.00
N1275  N     0.55288   0.94509   0.95389   0.00000  Uiso   1.00
H1276  H     0.57913   0.95735   0.97001   0.00000  Uiso   1.00
C1277  C     0.52497   0.98117   0.94055   0.00000  Uiso   1.00
H1278  H     0.54186   0.67195   0.91835   0.00000  Uiso   1.00
H1279  H     0.51415   0.99984   0.97042   0.00000  Uiso   1.00
H1280  H     0.49758   0.96751   0.92197   0.00000  Uiso   1.00
N1281  N     0.37776   0.78543   0.81752   0.00000  Uiso   1.00
O1282  O     0.39428   0.80892   0.84978   0.00000  Uiso   1.00
O1283  O     0.38529   0.74225   0.81483   0.00000  Uiso   1.00
N1284  N     0.62222   0.88138   0.68254   0.00000  Uiso   1.00
O1285  O     0.60393   0.85784   0.65142   0.00000  Uiso   1.00
O1286  O     0.61603   0.92486   0.68463   0.00000  Uiso   1.00
N1287  N     0.62297   0.78587   0.81886   0.00000  Uiso   1.00
O1288  O     0.63003   0.74336   0.82769   0.00000  Uiso   1.00
O1289  O     0.59676   0.80812   0.84348   0.00000  Uiso   1.00
N1290  N     0.37705   0.88074   0.68114   0.00000  Uiso   1.00
O1291  O     0.37063   0.92348   0.67282   0.00000  Uiso   1.00
O1292  O     0.40288   0.85830   0.65624   0.00000  Uiso   1.00
O1293  O     0.77226   0.87154   0.75000   0.00000  Uiso   1.00
O1294  O     0.89441   0.79513   0.75001   0.00000  Uiso   1.00
O1295  O     0.89441   0.87154   0.75001   0.00000  Uiso   1.00
O1296  O     0.77226   0.79513   0.75000   0.00000  Uiso   1.00
C1297  C     0.75343   0.83320   0.74974   0.00000  Uiso   1.00
C1298  C     0.91324   0.83347   0.75027   0.00000  Uiso   1.00
O1299  O     0.83333   0.87156   0.68393   0.00000  Uiso   1.00
O1300  O     0.83334   0.79511   0.81607   0.00000  Uiso   1.00
O1301  O     0.83334   0.87156   0.81608   0.00000  Uiso   1.00
O1302  O     0.83333   0.79511   0.68393   0.00000  Uiso   1.00
C1303  C     0.83320   0.83347   0.66333   0.00000  Uiso   1.00
C1304  C     0.83334   0.83323   0.83665   0.00000  Uiso   1.00
Zn1305 Zn    0.83333   0.88437   0.75000   0.00000  Uiso   1.00
Zn1306 Zn    0.83333   0.78229   0.75000   0.00000  Uiso   1.00
C1307  C     0.85001   0.87018   0.90707   0.00000  Uiso   1.00
C1308  C     0.81382   0.79737   0.59305   0.00000  Uiso   1.00
C1309  C     0.83315   0.83314   0.88449   0.00000  Uiso   1.00
C1310  C     0.83181   0.83392   0.61548   0.00000  Uiso   1.00
C1311  C     0.81547   0.79658   0.90735   0.00000  Uiso   1.00
C1312  C     0.84800   0.87115   0.59249   0.00000  Uiso   1.00
C1313  C     0.81375   0.79713   0.95353   0.00000  Uiso   1.00
C1314  C     0.84769   0.87149   0.54636   0.00000  Uiso   1.00
C1315  C     0.83063   0.83450   0.97673   0.00000  Uiso   1.00
C1316  C     0.82980   0.83453   0.52319   0.00000  Uiso   1.00
C1317  C     0.84897   0.87148   0.95339   0.00000  Uiso   1.00
C1318  C     0.81169   0.79742   0.54659   0.00000  Uiso   1.00
C1319  C     0.79493   0.76105   0.97644   0.00000  Uiso   1.00
C1320  C     0.86568   0.90798   0.52333   0.00000  Uiso   1.00
C1321  C     0.79280   0.76095   0.52325   0.00000  Uiso   1.00
C1322  C     0.86639   0.90844   0.97681   0.00000  Uiso   1.00
H1323  H     0.86428   0.89764   0.88826   0.00000  Uiso   1.00
H1324  H     0.80172   0.76906   0.61227   0.00000  Uiso   1.00
H1325  H     0.80234   0.76815   0.88911   0.00000  Uiso   1.00
H1326  H     0.86187   0.89930   0.61055   0.00000  Uiso   1.00
H1327  H     0.78145   0.73355   0.95732   0.00000  Uiso   1.00
H1328  H     0.87942   0.93613   0.54147   0.00000  Uiso   1.00
C1329  C     0.68838   0.80796   0.78260   0.00000  Uiso   1.00
C1330  C     0.97827   0.85873   0.71741   0.00000  Uiso   1.00
C1331  C     0.97851   0.80861   0.78349   0.00000  Uiso   1.00
C1332  C     0.68815   0.85809   0.71654   0.00000  Uiso   1.00
C1333  C     0.95737   0.83386   0.75066   0.00000  Uiso   1.00
C1334  C     0.70929   0.83280   0.74934   0.00000  Uiso   1.00
C1335  C     0.85726   0.69064   0.77988   0.00000  Uiso   1.00
C1336  C     0.80938   0.97603   0.72014   0.00000  Uiso   1.00
C1337  C     0.80937   0.69068   0.72015   0.00000  Uiso   1.00
C1338  C     0.85727   0.97598   0.77988   0.00000  Uiso   1.00
H1339  H     0.87638   0.70882   0.80377   0.00000  Uiso   1.00
H1340  H     0.79024   0.95784   0.69628   0.00000  Uiso   1.00
H1341  H     0.79021   0.70890   0.69630   0.00000  Uiso   1.00
H1342  H     0.87639   0.95777   0.80376   0.00000  Uiso   1.00
N1343  N     0.83333   0.95240   0.75000   0.00000  Uiso   1.00
N1344  N     0.83333   0.71427   0.75000   0.00000  Uiso   1.00
N1345  N     0.77134   0.72567   0.54735   0.00000  Uiso   1.00
H1346  H     0.75092   0.73721   0.57127   0.00000  Uiso   1.00
C1347  C     0.75618   0.68576   0.52432   0.00000  Uiso   1.00
H1348  H     0.74370   0.99441   0.54910   0.00000  Uiso   1.00
H1349  H     0.78202   0.66909   0.50621   0.00000  Uiso   1.00
H1350  H     0.73056   0.69495   0.50087   0.00000  Uiso   1.00
N1351  N     0.88621   0.94509   0.95389   0.00000  Uiso   1.00
H1352  H     0.91247   0.95735   0.97001   0.00000  Uiso   1.00
C1353  C     0.85830   0.98117   0.94055   0.00000  Uiso   1.00
H1354  H     0.87519   0.67195   0.91835   0.00000  Uiso   1.00
H1355  H     0.84748   0.99984   0.97042   0.00000  Uiso   1.00
H1356  H     0.83091   0.96751   0.92197   0.00000  Uiso   1.00
N1357  N     0.71110   0.78543   0.81752   0.00000  Uiso   1.00
O1358  O     0.72762   0.80892   0.84978   0.00000  Uiso   1.00
O1359  O     0.71862   0.74225   0.81483   0.00000  Uiso   1.00
N1360  N     0.95556   0.88138   0.68254   0.00000  Uiso   1.00
O1361  O     0.93726   0.85784   0.65142   0.00000  Uiso   1.00
O1362  O     0.94937   0.92486   0.68463   0.00000  Uiso   1.00
N1363  N     0.95630   0.78587   0.81886   0.00000  Uiso   1.00
O1364  O     0.96336   0.74336   0.82769   0.00000  Uiso   1.00
O1365  O     0.93009   0.80812   0.84348   0.00000  Uiso   1.00
N1366  N     0.71038   0.88074   0.68114   0.00000  Uiso   1.00
O1367  O     0.70396   0.92348   0.67282   0.00000  Uiso   1.00
O1368  O     0.73621   0.85830   0.65624   0.00000  Uiso   1.00
loop_
_geom_bond_atom_site_label_1
_geom_bond_atom_site_label_2
_geom_bond_distance
_geom_bond_site_symmetry_2
_ccdc_geom_bond_type
O1     C5      1.279   .     A
O1     Zn13    1.988   .     S
O2     C6      1.278   .     A
O2     Zn14    1.988   .     S
O3     C6      1.277   .     A
O3     Zn13    1.992   .     S
O4     C5      1.277   .     A
O4     Zn14    1.992   .     S
C5     C42     1.412   .     S
C6     C41     1.412   .     S
O7     C11     1.285   .     A
O7     Zn13    2.016   .     S
O8     C12     1.285   .     A
O8     Zn14    2.016   .     S
O9     Zn13    2.012   .     S
O9     C12     1.285   .     A
O10    Zn14    2.012   .     S
O10    C11     1.286   .     A
C11    C18     1.433   .     S
C12    C17     1.432   .     S
Zn13   N51     2.007   .     S
Zn14   N52     2.007   .     S
C15    C25     1.388   .     A
C15    C17     1.393   .     A
C15    H31     1.084   .     S
C16    C26     1.392   .     A
C16    H32     1.082   .     S
C16    C18     1.394   .     A
C17    C19     1.393   .     A
C18    C20     1.392   .     A
C19    C21     1.384   .     A
C19    H33     1.085   .     S
C20    H34     1.085   .     S
C20    C22     1.381   .     A
C21    C27     1.398   .     A
C21    C23     1.410   .     A
C22    C28     1.398   .     A
C22    C24     1.413   .     A
C23    C25     1.418   .     A
C23    C708    1.391   .     S
C24    C26     1.419   .     A
C24    C707    1.391   1_554 S
C25    C30     1.411   .     A
C26    C29     1.417   .     A
C27    H35     1.082   .     S
C27    C713    1.403   .     S
C28    H36     1.085   .     S
C28    C714    1.393   1_554 S
C29    N53     1.436   .     S
C29    C711    1.403   1_554 S
C30    N59     1.425   .     S
C30    C712    1.393   .     S
C37    C42     1.402   .     A
C37    N65     1.434   .     S
C37    C191    1.383   1_455 S
C38    C41     1.403   .     A
C38    N68     1.434   .     S
C38    C116    1.383   .     S
C39    C41     1.404   .     A
C39    N71     1.438   .     S
C39    C113    1.383   .     S
C40    C42     1.404   .     A
C40    N74     1.438   .     S
C40    C190    1.383   1_455 S
C43    N52     1.366   .     A
C43    H47     1.082   .     S
C43    C502    1.416   1_545 S
C44    N51     1.366   .     A
C44    H48     1.082   .     S
C44    C273    1.416   .     S
C45    N52     1.366   .     A
C45    H49     1.082   .     S
C45    C500    1.416   1_545 S
C46    N51     1.366   .     A
C46    H50     1.082   .     S
C46    C271    1.416   .     S
N53    H54     1.031   .     S
N53    C55     1.448   .     S
C55    H57     1.109   .     S
C55    H58     1.111   .     S
C55    H512    1.111   1_545 S
H56    C283    1.111   .     S
N59    H60     1.032   .     S
N59    C61     1.446   .     S
C61    H63     1.110   .     S
C61    H64     1.111   .     S
C61    H290    1.110   .     S
H62    C517    1.110   1_545 S
N65    O67     1.301   .     A
N65    O66     1.301   .     A
N68    O69     1.301   .     A
N68    O70     1.301   .     A
N71    O73     1.301   .     A
N71    O72     1.301   .     A
N74    O76     1.301   .     A
N74    O75     1.301   .     A
O77    C81     1.279   .     A
O77    Zn89    1.988   .     S
O78    C82     1.278   .     A
O78    Zn90    1.988   .     S
O79    C82     1.277   .     A
O79    Zn89    1.992   .     S
O80    C81     1.277   .     A
O80    Zn90    1.992   .     S
C81    C118    1.412   .     S
C82    C117    1.412   .     S
O83    C87     1.285   .     A
O83    Zn89    2.016   .     S
O84    C88     1.285   .     A
O84    Zn90    2.016   .     S
O85    Zn89    2.012   .     S
O85    C88     1.285   .     A
O86    Zn90    2.012   .     S
O86    C87     1.286   .     A
C87    C94     1.433   .     S
C88    C93     1.432   .     S
Zn89   N127    2.007   .     S
Zn90   N128    2.007   .     S
C91    C101    1.388   .     A
C91    C93     1.393   .     A
C91    H107    1.084   .     S
C92    C102    1.392   .     A
C92    H108    1.082   .     S
C92    C94     1.394   .     A
C93    C95     1.393   .     A
C94    C96     1.392   .     A
C95    C97     1.384   .     A
C95    H109    1.085   .     S
C96    H110    1.085   .     S
C96    C98     1.381   .     A
C97    C103    1.398   .     A
C97    C99     1.410   .     A
C98    C104    1.398   .     A
C98    C100    1.413   .     A
C99    C101    1.418   .     A
C99    C784    1.391   .     S
C100   C102    1.419   .     A
C100   C783    1.391   1_554 S
C101   C106    1.411   .     A
C102   C105    1.417   .     A
C103   H111    1.082   .     S
C103   C789    1.403   .     S
C104   H112    1.085   .     S
C104   C790    1.393   1_554 S
C105   N129    1.436   .     S
C105   C787    1.403   1_554 S
C106   N135    1.425   .     S
C106   C788    1.393   .     S
C113   C118    1.402   .     A
C113   N141    1.434   .     S
C114   C117    1.403   .     A
C114   N144    1.434   .     S
C114   C192    1.383   .     S
C115   C117    1.404   .     A
C115   N147    1.438   .     S
C115   C189    1.383   .     S
C116   C118    1.404   .     A
C116   N150    1.438   .     S
C119   N128    1.366   .     A
C119   H123    1.082   .     S
C119   C578    1.416   1_545 S
C120   N127    1.366   .     A
C120   H124    1.082   .     S
C120   C349    1.416   .     S
C121   N128    1.366   .     A
C121   H125    1.082   .     S
C121   C576    1.416   1_545 S
C122   N127    1.366   .     A
C122   H126    1.082   .     S
C122   C347    1.416   .     S
N129   H130    1.031   .     S
N129   C131    1.448   .     S
C131   H133    1.109   .     S
C131   H134    1.111   .     S
C131   H588    1.111   1_545 S
H132   C359    1.111   .     S
N135   H136    1.032   .     S
N135   C137    1.446   .     S
C137   H139    1.110   .     S
C137   H140    1.111   .     S
C137   H366    1.110   .     S
H138   C593    1.110   1_545 S
N141   O143    1.301   .     A
N141   O142    1.301   .     A
N144   O145    1.301   .     A
N144   O146    1.301   .     A
N147   O149    1.301   .     A
N147   O148    1.301   .     A
N150   O152    1.301   .     A
N150   O151    1.301   .     A
O153   C157    1.279   .     A
O153   Zn165   1.988   .     S
O154   C158    1.278   .     A
O154   Zn166   1.988   .     S
O155   C158    1.277   .     A
O155   Zn165   1.992   .     S
O156   C157    1.277   .     A
O156   Zn166   1.992   .     S
C157   C194    1.412   .     S
C158   C193    1.412   .     S
O159   C163    1.285   .     A
O159   Zn165   2.016   .     S
O160   C164    1.285   .     A
O160   Zn166   2.016   .     S
O161   Zn165   2.012   .     S
O161   C164    1.285   .     A
O162   Zn166   2.012   .     S
O162   C163    1.286   .     A
C163   C170    1.433   .     S
C164   C169    1.432   .     S
Zn165  N203    2.007   .     S
Zn166  N204    2.007   .     S
C167   C177    1.388   .     A
C167   C169    1.393   .     A
C167   H183    1.084   .     S
C168   C178    1.392   .     A
C168   H184    1.082   .     S
C168   C170    1.394   .     A
C169   C171    1.393   .     A
C170   C172    1.392   .     A
C171   C173    1.384   .     A
C171   H185    1.085   .     S
C172   H186    1.085   .     S
C172   C174    1.381   .     A
C173   C179    1.398   .     A
C173   C175    1.410   .     A
C174   C180    1.398   .     A
C174   C176    1.413   .     A
C175   C177    1.418   .     A
C175   C860    1.391   .     S
C176   C178    1.419   .     A
C176   C859    1.391   1_554 S
C177   C182    1.411   .     A
C178   C181    1.417   .     A
C179   H187    1.082   .     S
C179   C865    1.403   .     S
C180   H188    1.085   .     S
C180   C866    1.393   1_554 S
C181   N205    1.436   .     S
C181   C863    1.403   1_554 S
C182   N211    1.425   .     S
C182   C864    1.393   .     S
C189   C194    1.402   .     A
C189   N217    1.434   .     S
C190   C193    1.403   .     A
C190   N220    1.434   .     S
C190   C40     1.383   1_655 S
C191   C193    1.404   .     A
C191   N223    1.438   .     S
C191   C37     1.383   1_655 S
C192   C194    1.404   .     A
C192   N226    1.438   .     S
C195   N204    1.366   .     A
C195   H199    1.082   .     S
C195   C654    1.416   1_545 S
C196   N203    1.366   .     A
C196   H200    1.082   .     S
C196   C425    1.416   .     S
C197   N204    1.366   .     A
C197   H201    1.082   .     S
C197   C652    1.416   1_545 S
C198   N203    1.366   .     A
C198   H202    1.082   .     S
C198   C423    1.416   .     S
N205   H206    1.031   .     S
N205   C207    1.448   .     S
C207   H209    1.109   .     S
C207   H210    1.111   .     S
C207   H664    1.111   1_545 S
H208   C435    1.111   .     S
N211   H212    1.032   .     S
N211   C213    1.446   .     S
C213   H215    1.110   .     S
C213   H216    1.111   .     S
C213   H442    1.110   .     S
H214   C669    1.110   1_545 S
N217   O219    1.301   .     A
N217   O218    1.301   .     A
N220   O221    1.301   .     A
N220   O222    1.301   .     A
N223   O225    1.301   .     A
N223   O224    1.301   .     A
N226   O228    1.301   .     A
N226   O227    1.301   .     A
O229   C233    1.279   .     A
O229   Zn241   1.988   .     S
O230   C234    1.278   .     A
O230   Zn242   1.988   .     S
O231   C234    1.277   .     A
O231   Zn241   1.992   .     S
O232   C233    1.277   .     A
O232   Zn242   1.992   .     S
C233   C270    1.412   .     S
C234   C269    1.412   .     S
O235   C239    1.285   .     A
O235   Zn241   2.016   .     S
O236   C240    1.285   .     A
O236   Zn242   2.016   .     S
O237   Zn241   2.012   .     S
O237   C240    1.285   .     A
O238   Zn242   2.012   .     S
O238   C239    1.286   .     A
C239   C246    1.433   .     S
C240   C245    1.432   .     S
Zn241  N279    2.007   .     S
Zn242  N280    2.007   .     S
C243   C253    1.388   .     A
C243   C245    1.393   .     A
C243   H259    1.084   .     S
C244   C254    1.392   .     A
C244   H260    1.082   .     S
C244   C246    1.394   .     A
C245   C247    1.393   .     A
C246   C248    1.392   .     A
C247   C249    1.384   .     A
C247   H261    1.085   .     S
C248   H262    1.085   .     S
C248   C250    1.381   .     A
C249   C255    1.398   .     A
C249   C251    1.410   .     A
C250   C256    1.398   .     A
C250   C252    1.413   .     A
C251   C253    1.418   .     A
C251   C936    1.391   .     S
C252   C254    1.419   .     A
C252   C935    1.391   1_554 S
C253   C258    1.411   .     A
C254   C257    1.417   .     A
C255   H263    1.082   .     S
C255   C941    1.403   .     S
C256   H264    1.085   .     S
C256   C942    1.393   1_554 S
C257   N281    1.436   .     S
C257   C939    1.403   1_554 S
C258   N287    1.425   .     S
C258   C940    1.393   .     S
C265   C270    1.402   .     A
C265   N293    1.434   .     S
C265   C419    1.383   1_455 S
C266   C269    1.403   .     A
C266   N296    1.434   .     S
C266   C344    1.383   .     S
C267   C269    1.404   .     A
C267   N299    1.438   .     S
C267   C341    1.383   .     S
C268   C270    1.404   .     A
C268   N302    1.438   .     S
C268   C418    1.383   1_455 S
C271   N280    1.366   .     A
C271   H275    1.082   .     S
C272   N279    1.366   .     A
C272   H276    1.082   .     S
C272   C501    1.416   .     S
C273   N280    1.366   .     A
C273   H277    1.082   .     S
C274   N279    1.366   .     A
C274   H278    1.082   .     S
C274   C499    1.416   .     S
N281   H282    1.031   .     S
N281   C283    1.448   .     S
C283   H285    1.109   .     S
C283   H286    1.111   .     S
H284   C511    1.111   .     S
N287   H288    1.032   .     S
N287   C289    1.446   .     S
C289   H291    1.110   .     S
C289   H292    1.111   .     S
C289   H518    1.110   .     S
N293   O295    1.301   .     A
N293   O294    1.301   .     A
N296   O297    1.301   .     A
N296   O298    1.301   .     A
N299   O301    1.301   .     A
N299   O300    1.301   .     A
N302   O304    1.301   .     A
N302   O303    1.301   .     A
O305   C309    1.279   .     A
O305   Zn317   1.988   .     S
O306   C310    1.278   .     A
O306   Zn318   1.988   .     S
O307   C310    1.277   .     A
O307   Zn317   1.992   .     S
O308   C309    1.277   .     A
O308   Zn318   1.992   .     S
C309   C346    1.412   .     S
C310   C345    1.412   .     S
O311   C315    1.285   .     A
O311   Zn317   2.016   .     S
O312   C316    1.285   .     A
O312   Zn318   2.016   .     S
O313   Zn317   2.012   .     S
O313   C316    1.285   .     A
O314   Zn318   2.012   .     S
O314   C315    1.286   .     A
C315   C322    1.433   .     S
C316   C321    1.432   .     S
Zn317  N355    2.007   .     S
Zn318  N356    2.007   .     S
C319   C329    1.388   .     A
C319   C321    1.393   .     A
C319   H335    1.084   .     S
C320   C330    1.392   .     A
C320   H336    1.082   .     S
C320   C322    1.394   .     A
C321   C323    1.393   .     A
C322   C324    1.392   .     A
C323   C325    1.384   .     A
C323   H337    1.085   .     S
C324   H338    1.085   .     S
C324   C326    1.381   .     A
C325   C331    1.398   .     A
C325   C327    1.410   .     A
C326   C332    1.398   .     A
C326   C328    1.413   .     A
C327   C329    1.418   .     A
C327   C1012   1.391   .     S
C328   C330    1.419   .     A
C328   C1011   1.391   1_554 S
C329   C334    1.411   .     A
C330   C333    1.417   .     A
C331   H339    1.082   .     S
C331   C1017   1.403   .     S
C332   H340    1.085   .     S
C332   C1018   1.393   1_554 S
C333   N357    1.436   .     S
C333   C1015   1.403   1_554 S
C334   N363    1.425   .     S
C334   C1016   1.393   .     S
C341   C346    1.402   .     A
C341   N369    1.434   .     S
C342   C345    1.403   .     A
C342   N372    1.434   .     S
C342   C420    1.383   .     S
C343   C345    1.404   .     A
C343   N375    1.438   .     S
C343   C417    1.383   .     S
C344   C346    1.404   .     A
C344   N378    1.438   .     S
C347   N356    1.366   .     A
C347   H351    1.082   .     S
C348   N355    1.366   .     A
C348   H352    1.082   .     S
C348   C577    1.416   .     S
C349   N356    1.366   .     A
C349   H353    1.082   .     S
C350   N355    1.366   .     A
C350   H354    1.082   .     S
C350   C575    1.416   .     S
N357   H358    1.031   .     S
N357   C359    1.448   .     S
C359   H361    1.109   .     S
C359   H362    1.111   .     S
H360   C587    1.111   .     S
N363   H364    1.032   .     S
N363   C365    1.446   .     S
C365   H367    1.110   .     S
C365   H368    1.111   .     S
C365   H594    1.110   .     S
N369   O371    1.301   .     A
N369   O370    1.301   .     A
N372   O373    1.301   .     A
N372   O374    1.301   .     A
N375   O377    1.301   .     A
N375   O376    1.301   .     A
N378   O380    1.301   .     A
N378   O379    1.301   .     A
O381   C385    1.279   .     A
O381   Zn393   1.988   .     S
O382   C386    1.278   .     A
O382   Zn394   1.988   .     S
O383   C386    1.277   .     A
O383   Zn393   1.992   .     S
O384   C385    1.277   .     A
O384   Zn394   1.992   .     S
C385   C422    1.412   .     S
C386   C421    1.412   .     S
O387   C391    1.285   .     A
O387   Zn393   2.016   .     S
O388   C392    1.285   .     A
O388   Zn394   2.016   .     S
O389   Zn393   2.012   .     S
O389   C392    1.285   .     A
O390   Zn394   2.012   .     S
O390   C391    1.286   .     A
C391   C398    1.433   .     S
C392   C397    1.432   .     S
Zn393  N431    2.007   .     S
Zn394  N432    2.007   .     S
C395   C405    1.388   .     A
C395   C397    1.393   .     A
C395   H411    1.084   .     S
C396   C406    1.392   .     A
C396   H412    1.082   .     S
C396   C398    1.394   .     A
C397   C399    1.393   .     A
C398   C400    1.392   .     A
C399   C401    1.384   .     A
C399   H413    1.085   .     S
C400   H414    1.085   .     S
C400   C402    1.381   .     A
C401   C407    1.398   .     A
C401   C403    1.410   .     A
C402   C408    1.398   .     A
C402   C404    1.413   .     A
C403   C405    1.418   .     A
C403   C1088   1.391   .     S
C404   C406    1.419   .     A
C404   C1087   1.391   1_554 S
C405   C410    1.411   .     A
C406   C409    1.417   .     A
C407   H415    1.082   .     S
C407   C1093   1.403   .     S
C408   H416    1.085   .     S
C408   C1094   1.393   1_554 S
C409   N433    1.436   .     S
C409   C1091   1.403   1_554 S
C410   N439    1.425   .     S
C410   C1092   1.393   .     S
C417   C422    1.402   .     A
C417   N445    1.434   .     S
C418   C421    1.403   .     A
C418   N448    1.434   .     S
C418   C268    1.383   1_655 S
C419   C421    1.404   .     A
C419   N451    1.438   .     S
C419   C265    1.383   1_655 S
C420   C422    1.404   .     A
C420   N454    1.438   .     S
C423   N432    1.366   .     A
C423   H427    1.082   .     S
C424   N431    1.366   .     A
C424   H428    1.082   .     S
C424   C653    1.416   .     S
C425   N432    1.366   .     A
C425   H429    1.082   .     S
C426   N431    1.366   .     A
C426   H430    1.082   .     S
C426   C651    1.416   .     S
N433   H434    1.031   .     S
N433   C435    1.448   .     S
C435   H437    1.109   .     S
C435   H438    1.111   .     S
H436   C663    1.111   .     S
N439   H440    1.032   .     S
N439   C441    1.446   .     S
C441   H443    1.110   .     S
C441   H444    1.111   .     S
C441   H670    1.110   .     S
N445   O447    1.301   .     A
N445   O446    1.301   .     A
N448   O449    1.301   .     A
N448   O450    1.301   .     A
N451   O453    1.301   .     A
N451   O452    1.301   .     A
N454   O456    1.301   .     A
N454   O455    1.301   .     A
O457   C461    1.279   .     A
O457   Zn469   1.988   .     S
O458   C462    1.278   .     A
O458   Zn470   1.988   .     S
O459   C462    1.277   .     A
O459   Zn469   1.992   .     S
O460   C461    1.277   .     A
O460   Zn470   1.992   .     S
C461   C498    1.412   .     S
C462   C497    1.412   .     S
O463   C467    1.285   .     A
O463   Zn469   2.016   .     S
O464   C468    1.285   .     A
O464   Zn470   2.016   .     S
O465   Zn469   2.012   .     S
O465   C468    1.285   .     A
O466   Zn470   2.012   .     S
O466   C467    1.286   .     A
C467   C474    1.433   .     S
C468   C473    1.432   .     S
Zn469  N507    2.007   .     S
Zn470  N508    2.007   .     S
C471   C481    1.388   .     A
C471   C473    1.393   .     A
C471   H487    1.084   .     S
C472   C482    1.392   .     A
C472   H488    1.082   .     S
C472   C474    1.394   .     A
C473   C475    1.393   .     A
C474   C476    1.392   .     A
C475   C477    1.384   .     A
C475   H489    1.085   .     S
C476   H490    1.085   .     S
C476   C478    1.381   .     A
C477   C483    1.398   .     A
C477   C479    1.410   .     A
C478   C484    1.398   .     A
C478   C480    1.413   .     A
C479   C481    1.418   .     A
C479   C1164   1.391   .     S
C480   C482    1.419   .     A
C480   C1163   1.391   1_554 S
C481   C486    1.411   .     A
C482   C485    1.417   .     A
C483   H491    1.082   .     S
C483   C1169   1.403   .     S
C484   H492    1.085   .     S
C484   C1170   1.393   1_554 S
C485   N509    1.436   .     S
C485   C1167   1.403   1_554 S
C486   N515    1.425   .     S
C486   C1168   1.393   .     S
C493   C498    1.402   .     A
C493   N521    1.434   .     S
C493   C647    1.383   1_455 S
C494   C497    1.403   .     A
C494   N524    1.434   .     S
C494   C572    1.383   .     S
C495   C497    1.404   .     A
C495   N527    1.438   .     S
C495   C569    1.383   .     S
C496   C498    1.404   .     A
C496   N530    1.438   .     S
C496   C646    1.383   1_455 S
C499   N508    1.366   .     A
C499   H503    1.082   .     S
C500   N507    1.366   .     A
C500   H504    1.082   .     S
C500   C45     1.416   1_565 S
C501   N508    1.366   .     A
C501   H505    1.082   .     S
C502   N507    1.366   .     A
C502   H506    1.082   .     S
C502   C43     1.416   1_565 S
N509   H510    1.031   .     S
N509   C511    1.448   .     S
C511   H513    1.109   .     S
C511   H514    1.111   .     S
H512   C55     1.111   1_565 S
N515   H516    1.032   .     S
N515   C517    1.446   .     S
C517   H519    1.110   .     S
C517   H520    1.111   .     S
C517   H62     1.110   1_565 S
N521   O523    1.301   .     A
N521   O522    1.301   .     A
N524   O525    1.301   .     A
N524   O526    1.301   .     A
N527   O529    1.301   .     A
N527   O528    1.301   .     A
N530   O532    1.301   .     A
N530   O531    1.301   .     A
O533   C537    1.279   .     A
O533   Zn545   1.988   .     S
O534   C538    1.278   .     A
O534   Zn546   1.988   .     S
O535   C538    1.277   .     A
O535   Zn545   1.992   .     S
O536   C537    1.277   .     A
O536   Zn546   1.992   .     S
C537   C574    1.412   .     S
C538   C573    1.412   .     S
O539   C543    1.285   .     A
O539   Zn545   2.016   .     S
O540   C544    1.285   .     A
O540   Zn546   2.016   .     S
O541   Zn545   2.012   .     S
O541   C544    1.285   .     A
O542   Zn546   2.012   .     S
O542   C543    1.286   .     A
C543   C550    1.433   .     S
C544   C549    1.432   .     S
Zn545  N583    2.007   .     S
Zn546  N584    2.007   .     S
C547   C557    1.388   .     A
C547   C549    1.393   .     A
C547   H563    1.084   .     S
C548   C558    1.392   .     A
C548   H564    1.082   .     S
C548   C550    1.394   .     A
C549   C551    1.393   .     A
C550   C552    1.392   .     A
C551   C553    1.384   .     A
C551   H565    1.085   .     S
C552   H566    1.085   .     S
C552   C554    1.381   .     A
C553   C559    1.398   .     A
C553   C555    1.410   .     A
C554   C560    1.398   .     A
C554   C556    1.413   .     A
C555   C557    1.418   .     A
C555   C1240   1.391   .     S
C556   C558    1.419   .     A
C556   C1239   1.391   1_554 S
C557   C562    1.411   .     A
C558   C561    1.417   .     A
C559   H567    1.082   .     S
C559   C1245   1.403   .     S
C560   H568    1.085   .     S
C560   C1246   1.393   1_554 S
C561   N585    1.436   .     S
C561   C1243   1.403   1_554 S
C562   N591    1.425   .     S
C562   C1244   1.393   .     S
C569   C574    1.402   .     A
C569   N597    1.434   .     S
C570   C573    1.403   .     A
C570   N600    1.434   .     S
C570   C648    1.383   .     S
C571   C573    1.404   .     A
C571   N603    1.438   .     S
C571   C645    1.383   .     S
C572   C574    1.404   .     A
C572   N606    1.438   .     S
C575   N584    1.366   .     A
C575   H579    1.082   .     S
C576   N583    1.366   .     A
C576   H580    1.082   .     S
C576   C121    1.416   1_565 S
C577   N584    1.366   .     A
C577   H581    1.082   .     S
C578   N583    1.366   .     A
C578   H582    1.082   .     S
C578   C119    1.416   1_565 S
N585   H586    1.031   .     S
N585   C587    1.448   .     S
C587   H589    1.109   .     S
C587   H590    1.111   .     S
H588   C131    1.111   1_565 S
N591   H592    1.032   .     S
N591   C593    1.446   .     S
C593   H595    1.110   .     S
C593   H596    1.111   .     S
C593   H138    1.110   1_565 S
N597   O599    1.301   .     A
N597   O598    1.301   .     A
N600   O601    1.301   .     A
N600   O602    1.301   .     A
N603   O605    1.301   .     A
N603   O604    1.301   .     A
N606   O608    1.301   .     A
N606   O607    1.301   .     A
O609   C613    1.279   .     A
O609   Zn621   1.988   .     S
O610   C614    1.278   .     A
O610   Zn622   1.988   .     S
O611   C614    1.277   .     A
O611   Zn621   1.992   .     S
O612   C613    1.277   .     A
O612   Zn622   1.992   .     S
C613   C650    1.412   .     S
C614   C649    1.412   .     S
O615   C619    1.285   .     A
O615   Zn621   2.016   .     S
O616   C620    1.285   .     A
O616   Zn622   2.016   .     S
O617   Zn621   2.012   .     S
O617   C620    1.285   .     A
O618   Zn622   2.012   .     S
O618   C619    1.286   .     A
C619   C626    1.433   .     S
C620   C625    1.432   .     S
Zn621  N659    2.007   .     S
Zn622  N660    2.007   .     S
C623   C633    1.388   .     A
C623   C625    1.393   .     A
C623   H639    1.084   .     S
C624   C634    1.392   .     A
C624   H640    1.082   .     S
C624   C626    1.394   .     A
C625   C627    1.393   .     A
C626   C628    1.392   .     A
C627   C629    1.384   .     A
C627   H641    1.085   .     S
C628   H642    1.085   .     S
C628   C630    1.381   .     A
C629   C635    1.398   .     A
C629   C631    1.410   .     A
C630   C636    1.398   .     A
C630   C632    1.413   .     A
C631   C633    1.418   .     A
C631   C1316   1.391   .     S
C632   C634    1.419   .     A
C632   C1315   1.391   1_554 S
C633   C638    1.411   .     A
C634   C637    1.417   .     A
C635   H643    1.082   .     S
C635   C1321   1.403   .     S
C636   H644    1.085   .     S
C636   C1322   1.393   1_554 S
C637   N661    1.436   .     S
C637   C1319   1.403   1_554 S
C638   N667    1.425   .     S
C638   C1320   1.393   .     S
C645   C650    1.402   .     A
C645   N673    1.434   .     S
C646   C649    1.403   .     A
C646   N676    1.434   .     S
C646   C496    1.383   1_655 S
C647   C649    1.404   .     A
C647   N679    1.438   .     S
C647   C493    1.383   1_655 S
C648   C650    1.404   .     A
C648   N682    1.438   .     S
C651   N660    1.366   .     A
C651   H655    1.082   .     S
C652   N659    1.366   .     A
C652   H656    1.082   .     S
C652   C197    1.416   1_565 S
C653   N660    1.366   .     A
C653   H657    1.082   .     S
C654   N659    1.366   .     A
C654   H658    1.082   .     S
C654   C195    1.416   1_565 S
N661   H662    1.031   .     S
N661   C663    1.448   .     S
C663   H665    1.109   .     S
C663   H666    1.111   .     S
H664   C207    1.111   1_565 S
N667   H668    1.032   .     S
N667   C669    1.446   .     S
C669   H671    1.110   .     S
C669   H672    1.111   .     S
C669   H214    1.110   1_565 S
N673   O675    1.301   .     A
N673   O674    1.301   .     A
N676   O677    1.301   .     A
N676   O678    1.301   .     A
N679   O681    1.301   .     A
N679   O680    1.301   .     A
N682   O684    1.301   .     A
N682   O683    1.301   .     A
O685   C689    1.279   .     A
O685   Zn697   1.988   .     S
O686   C690    1.278   .     A
O686   Zn698   1.988   .     S
O687   C690    1.277   .     A
O687   Zn697   1.992   .     S
O688   C689    1.277   .     A
O688   Zn698   1.992   .     S
C689   C726    1.412   .     S
C690   C725    1.412   .     S
O691   C695    1.285   .     A
O691   Zn697   2.016   .     S
O692   C696    1.285   .     A
O692   Zn698   2.016   .     S
O693   Zn697   2.012   .     S
O693   C696    1.285   .     A
O694   Zn698   2.012   .     S
O694   C695    1.286   .     A
C695   C702    1.433   .     S
C696   C701    1.432   .     S
Zn697  N735    2.007   .     S
Zn698  N736    2.007   .     S
C699   C709    1.388   .     A
C699   C701    1.393   .     A
C699   H715    1.084   .     S
C700   C710    1.392   .     A
C700   H716    1.082   .     S
C700   C702    1.394   .     A
C701   C703    1.393   .     A
C702   C704    1.392   .     A
C703   C705    1.384   .     A
C703   H717    1.085   .     S
C704   H718    1.085   .     S
C704   C706    1.381   .     A
C705   C711    1.398   .     A
C705   C707    1.410   .     A
C706   C712    1.398   .     A
C706   C708    1.413   .     A
C707   C709    1.418   .     A
C707   C24     1.391   1_556 S
C708   C710    1.419   .     A
C709   C714    1.411   .     A
C710   C713    1.417   .     A
C711   H719    1.082   .     S
C711   C29     1.403   1_556 S
C712   H720    1.085   .     S
C713   N737    1.436   .     S
C714   N743    1.425   .     S
C714   C28     1.393   1_556 S
C721   C726    1.402   .     A
C721   N749    1.434   .     S
C721   C875    1.383   1_455 S
C722   C725    1.403   .     A
C722   N752    1.434   .     S
C722   C800    1.383   .     S
C723   C725    1.404   .     A
C723   N755    1.438   .     S
C723   C797    1.383   .     S
C724   C726    1.404   .     A
C724   N758    1.438   .     S
C724   C874    1.383   1_455 S
C727   N736    1.366   .     A
C727   H731    1.082   .     S
C727   C1186   1.416   1_545 S
C728   N735    1.366   .     A
C728   H732    1.082   .     S
C728   C957    1.416   .     S
C729   N736    1.366   .     A
C729   H733    1.082   .     S
C729   C1184   1.416   1_545 S
C730   N735    1.366   .     A
C730   H734    1.082   .     S
C730   C955    1.416   .     S
N737   H738    1.031   .     S
N737   C739    1.448   .     S
C739   H741    1.109   .     S
C739   H742    1.111   .     S
C739   H1196   1.111   1_545 S
H740   C967    1.111   .     S
N743   H744    1.032   .     S
N743   C745    1.446   .     S
C745   H747    1.110   .     S
C745   H748    1.111   .     S
C745   H974    1.110   .     S
H746   C1201   1.110   1_545 S
N749   O751    1.301   .     A
N749   O750    1.301   .     A
N752   O753    1.301   .     A
N752   O754    1.301   .     A
N755   O757    1.301   .     A
N755   O756    1.301   .     A
N758   O760    1.301   .     A
N758   O759    1.301   .     A
O761   C765    1.279   .     A
O761   Zn773   1.988   .     S
O762   C766    1.278   .     A
O762   Zn774   1.988   .     S
O763   C766    1.277   .     A
O763   Zn773   1.992   .     S
O764   C765    1.277   .     A
O764   Zn774   1.992   .     S
C765   C802    1.412   .     S
C766   C801    1.412   .     S
O767   C771    1.285   .     A
O767   Zn773   2.016   .     S
O768   C772    1.285   .     A
O768   Zn774   2.016   .     S
O769   Zn773   2.012   .     S
O769   C772    1.285   .     A
O770   Zn774   2.012   .     S
O770   C771    1.286   .     A
C771   C778    1.433   .     S
C772   C777    1.432   .     S
Zn773  N811    2.007   .     S
Zn774  N812    2.007   .     S
C775   C785    1.388   .     A
C775   C777    1.393   .     A
C775   H791    1.084   .     S
C776   C786    1.392   .     A
C776   H792    1.082   .     S
C776   C778    1.394   .     A
C777   C779    1.393   .     A
C778   C780    1.392   .     A
C779   C781    1.384   .     A
C779   H793    1.085   .     S
C780   H794    1.085   .     S
C780   C782    1.381   .     A
C781   C787    1.398   .     A
C781   C783    1.410   .     A
C782   C788    1.398   .     A
C782   C784    1.413   .     A
C783   C785    1.418   .     A
C783   C100    1.391   1_556 S
C784   C786    1.419   .     A
C785   C790    1.411   .     A
C786   C789    1.417   .     A
C787   H795    1.082   .     S
C787   C105    1.403   1_556 S
C788   H796    1.085   .     S
C789   N813    1.436   .     S
C790   N819    1.425   .     S
C790   C104    1.393   1_556 S
C797   C802    1.402   .     A
C797   N825    1.434   .     S
C798   C801    1.403   .     A
C798   N828    1.434   .     S
C798   C876    1.383   .     S
C799   C801    1.404   .     A
C799   N831    1.438   .     S
C799   C873    1.383   .     S
C800   C802    1.404   .     A
C800   N834    1.438   .     S
C803   N812    1.366   .     A
C803   H807    1.082   .     S
C803   C1262   1.416   1_545 S
C804   N811    1.366   .     A
C804   H808    1.082   .     S
C804   C1033   1.416   .     S
C805   N812    1.366   .     A
C805   H809    1.082   .     S
C805   C1260   1.416   1_545 S
C806   N811    1.366   .     A
C806   H810    1.082   .     S
C806   C1031   1.416   .     S
N813   H814    1.031   .     S
N813   C815    1.448   .     S
C815   H817    1.109   .     S
C815   H818    1.111   .     S
C815   H1272   1.111   1_545 S
H816   C1043   1.111   .     S
N819   H820    1.032   .     S
N819   C821    1.446   .     S
C821   H823    1.110   .     S
C821   H824    1.111   .     S
C821   H1050   1.110   .     S
H822   C1277   1.110   1_545 S
N825   O827    1.301   .     A
N825   O826    1.301   .     A
N828   O829    1.301   .     A
N828   O830    1.301   .     A
N831   O833    1.301   .     A
N831   O832    1.301   .     A
N834   O836    1.301   .     A
N834   O835    1.301   .     A
O837   C841    1.279   .     A
O837   Zn849   1.988   .     S
O838   C842    1.278   .     A
O838   Zn850   1.988   .     S
O839   C842    1.277   .     A
O839   Zn849   1.992   .     S
O840   C841    1.277   .     A
O840   Zn850   1.992   .     S
C841   C878    1.412   .     S
C842   C877    1.412   .     S
O843   C847    1.285   .     A
O843   Zn849   2.016   .     S
O844   C848    1.285   .     A
O844   Zn850   2.016   .     S
O845   Zn849   2.012   .     S
O845   C848    1.285   .     A
O846   Zn850   2.012   .     S
O846   C847    1.286   .     A
C847   C854    1.433   .     S
C848   C853    1.432   .     S
Zn849  N887    2.007   .     S
Zn850  N888    2.007   .     S
C851   C861    1.388   .     A
C851   C853    1.393   .     A
C851   H867    1.084   .     S
C852   C862    1.392   .     A
C852   H868    1.082   .     S
C852   C854    1.394   .     A
C853   C855    1.393   .     A
C854   C856    1.392   .     A
C855   C857    1.384   .     A
C855   H869    1.085   .     S
C856   H870    1.085   .     S
C856   C858    1.381   .     A
C857   C863    1.398   .     A
C857   C859    1.410   .     A
C858   C864    1.398   .     A
C858   C860    1.413   .     A
C859   C861    1.418   .     A
C859   C176    1.391   1_556 S
C860   C862    1.419   .     A
C861   C866    1.411   .     A
C862   C865    1.417   .     A
C863   H871    1.082   .     S
C863   C181    1.403   1_556 S
C864   H872    1.085   .     S
C865   N889    1.436   .     S
C866   N895    1.425   .     S
C866   C180    1.393   1_556 S
C873   C878    1.402   .     A
C873   N901    1.434   .     S
C874   C877    1.403   .     A
C874   N904    1.434   .     S
C874   C724    1.383   1_655 S
C875   C877    1.404   .     A
C875   N907    1.438   .     S
C875   C721    1.383   1_655 S
C876   C878    1.404   .     A
C876   N910    1.438   .     S
C879   N888    1.366   .     A
C879   H883    1.082   .     S
C879   C1338   1.416   1_545 S
C880   N887    1.366   .     A
C880   H884    1.082   .     S
C880   C1109   1.416   .     S
C881   N888    1.366   .     A
C881   H885    1.082   .     S
C881   C1336   1.416   1_545 S
C882   N887    1.366   .     A
C882   H886    1.082   .     S
C882   C1107   1.416   .     S
N889   H890    1.031   .     S
N889   C891    1.448   .     S
C891   H893    1.109   .     S
C891   H894    1.111   .     S
C891   H1348   1.111   1_545 S
H892   C1119   1.111   .     S
N895   H896    1.032   .     S
N895   C897    1.446   .     S
C897   H899    1.110   .     S
C897   H900    1.111   .     S
C897   H1126   1.110   .     S
H898   C1353   1.110   1_545 S
N901   O903    1.301   .     A
N901   O902    1.301   .     A
N904   O905    1.301   .     A
N904   O906    1.301   .     A
N907   O909    1.301   .     A
N907   O908    1.301   .     A
N910   O912    1.301   .     A
N910   O911    1.301   .     A
O913   C917    1.279   .     A
O913   Zn925   1.988   .     S
O914   C918    1.278   .     A
O914   Zn926   1.988   .     S
O915   C918    1.277   .     A
O915   Zn925   1.992   .     S
O916   C917    1.277   .     A
O916   Zn926   1.992   .     S
C917   C954    1.412   .     S
C918   C953    1.412   .     S
O919   C923    1.285   .     A
O919   Zn925   2.016   .     S
O920   C924    1.285   .     A
O920   Zn926   2.016   .     S
O921   Zn925   2.012   .     S
O921   C924    1.285   .     A
O922   Zn926   2.012   .     S
O922   C923    1.286   .     A
C923   C930    1.433   .     S
C924   C929    1.432   .     S
Zn925  N963    2.007   .     S
Zn926  N964    2.007   .     S
C927   C937    1.388   .     A
C927   C929    1.393   .     A
C927   H943    1.084   .     S
C928   C938    1.392   .     A
C928   H944    1.082   .     S
C928   C930    1.394   .     A
C929   C931    1.393   .     A
C930   C932    1.392   .     A
C931   C933    1.384   .     A
C931   H945    1.085   .     S
C932   H946    1.085   .     S
C932   C934    1.381   .     A
C933   C939    1.398   .     A
C933   C935    1.410   .     A
C934   C940    1.398   .     A
C934   C936    1.413   .     A
C935   C937    1.418   .     A
C935   C252    1.391   1_556 S
C936   C938    1.419   .     A
C937   C942    1.411   .     A
C938   C941    1.417   .     A
C939   H947    1.082   .     S
C939   C257    1.403   1_556 S
C940   H948    1.085   .     S
C941   N965    1.436   .     S
C942   N971    1.425   .     S
C942   C256    1.393   1_556 S
C949   C954    1.402   .     A
C949   N977    1.434   .     S
C949   C1103   1.383   1_455 S
C950   C953    1.403   .     A
C950   N980    1.434   .     S
C950   C1028   1.383   .     S
C951   C953    1.404   .     A
C951   N983    1.438   .     S
C951   C1025   1.383   .     S
C952   C954    1.404   .     A
C952   N986    1.438   .     S
C952   C1102   1.383   1_455 S
C955   N964    1.366   .     A
C955   H959    1.082   .     S
C956   N963    1.366   .     A
C956   H960    1.082   .     S
C956   C1185   1.416   .     S
C957   N964    1.366   .     A
C957   H961    1.082   .     S
C958   N963    1.366   .     A
C958   H962    1.082   .     S
C958   C1183   1.416   .     S
N965   H966    1.031   .     S
N965   C967    1.448   .     S
C967   H969    1.109   .     S
C967   H970    1.111   .     S
H968   C1195   1.111   .     S
N971   H972    1.032   .     S
N971   C973    1.446   .     S
C973   H975    1.110   .     S
C973   H976    1.111   .     S
C973   H1202   1.110   .     S
N977   O979    1.301   .     A
N977   O978    1.301   .     A
N980   O981    1.301   .     A
N980   O982    1.301   .     A
N983   O985    1.301   .     A
N983   O984    1.301   .     A
N986   O988    1.301   .     A
N986   O987    1.301   .     A
O989   C993    1.279   .     A
O989   Zn1001  1.988   .     S
O990   C994    1.278   .     A
O990   Zn1002  1.988   .     S
O991   C994    1.277   .     A
O991   Zn1001  1.992   .     S
O992   C993    1.277   .     A
O992   Zn1002  1.992   .     S
C993   C1030   1.412   .     S
C994   C1029   1.412   .     S
O995   C999    1.285   .     A
O995   Zn1001  2.016   .     S
O996   C1000   1.285   .     A
O996   Zn1002  2.016   .     S
O997   Zn1001  2.012   .     S
O997   C1000   1.285   .     A
O998   Zn1002  2.012   .     S
O998   C999    1.286   .     A
C999   C1006   1.433   .     S
C1000  C1005   1.432   .     S
Zn1001 N1039   2.007   .     S
Zn1002 N1040   2.007   .     S
C1003  C1013   1.388   .     A
C1003  C1005   1.393   .     A
C1003  H1019   1.084   .     S
C1004  C1014   1.392   .     A
C1004  H1020   1.082   .     S
C1004  C1006   1.394   .     A
C1005  C1007   1.393   .     A
C1006  C1008   1.392   .     A
C1007  C1009   1.384   .     A
C1007  H1021   1.085   .     S
C1008  H1022   1.085   .     S
C1008  C1010   1.381   .     A
C1009  C1015   1.398   .     A
C1009  C1011   1.410   .     A
C1010  C1016   1.398   .     A
C1010  C1012   1.413   .     A
C1011  C1013   1.418   .     A
C1011  C328    1.391   1_556 S
C1012  C1014   1.419   .     A
C1013  C1018   1.411   .     A
C1014  C1017   1.417   .     A
C1015  H1023   1.082   .     S
C1015  C333    1.403   1_556 S
C1016  H1024   1.085   .     S
C1017  N1041   1.436   .     S
C1018  N1047   1.425   .     S
C1018  C332    1.393   1_556 S
C1025  C1030   1.402   .     A
C1025  N1053   1.434   .     S
C1026  C1029   1.403   .     A
C1026  N1056   1.434   .     S
C1026  C1104   1.383   .     S
C1027  C1029   1.404   .     A
C1027  N1059   1.438   .     S
C1027  C1101   1.383   .     S
C1028  C1030   1.404   .     A
C1028  N1062   1.438   .     S
C1031  N1040   1.366   .     A
C1031  H1035   1.082   .     S
C1032  N1039   1.366   .     A
C1032  H1036   1.082   .     S
C1032  C1261   1.416   .     S
C1033  N1040   1.366   .     A
C1033  H1037   1.082   .     S
C1034  N1039   1.366   .     A
C1034  H1038   1.082   .     S
C1034  C1259   1.416   .     S
N1041  H1042   1.031   .     S
N1041  C1043   1.448   .     S
C1043  H1045   1.109   .     S
C1043  H1046   1.111   .     S
H1044  C1271   1.111   .     S
N1047  H1048   1.032   .     S
N1047  C1049   1.446   .     S
C1049  H1051   1.110   .     S
C1049  H1052   1.111   .     S
C1049  H1278   1.110   .     S
N1053  O1055   1.301   .     A
N1053  O1054   1.301   .     A
N1056  O1057   1.301   .     A
N1056  O1058   1.301   .     A
N1059  O1061   1.301   .     A
N1059  O1060   1.301   .     A
N1062  O1064   1.301   .     A
N1062  O1063   1.301   .     A
O1065  C1069   1.279   .     A
O1065  Zn1077  1.988   .     S
O1066  C1070   1.278   .     A
O1066  Zn1078  1.988   .     S
O1067  C1070   1.277   .     A
O1067  Zn1077  1.992   .     S
O1068  C1069   1.277   .     A
O1068  Zn1078  1.992   .     S
C1069  C1106   1.412   .     S
C1070  C1105   1.412   .     S
O1071  C1075   1.285   .     A
O1071  Zn1077  2.016   .     S
O1072  C1076   1.285   .     A
O1072  Zn1078  2.016   .     S
O1073  Zn1077  2.012   .     S
O1073  C1076   1.285   .     A
O1074  Zn1078  2.012   .     S
O1074  C1075   1.286   .     A
C1075  C1082   1.433   .     S
C1076  C1081   1.432   .     S
Zn1077 N1115   2.007   .     S
Zn1078 N1116   2.007   .     S
C1079  C1089   1.388   .     A
C1079  C1081   1.393   .     A
C1079  H1095   1.084   .     S
C1080  C1090   1.392   .     A
C1080  H1096   1.082   .     S
C1080  C1082   1.394   .     A
C1081  C1083   1.393   .     A
C1082  C1084   1.392   .     A
C1083  C1085   1.384   .     A
C1083  H1097   1.085   .     S
C1084  H1098   1.085   .     S
C1084  C1086   1.381   .     A
C1085  C1091   1.398   .     A
C1085  C1087   1.410   .     A
C1086  C1092   1.398   .     A
C1086  C1088   1.413   .     A
C1087  C1089   1.418   .     A
C1087  C404    1.391   1_556 S
C1088  C1090   1.419   .     A
C1089  C1094   1.411   .     A
C1090  C1093   1.417   .     A
C1091  H1099   1.082   .     S
C1091  C409    1.403   1_556 S
C1092  H1100   1.085   .     S
C1093  N1117   1.436   .     S
C1094  N1123   1.425   .     S
C1094  C408    1.393   1_556 S
C1101  C1106   1.402   .     A
C1101  N1129   1.434   .     S
C1102  C1105   1.403   .     A
C1102  N1132   1.434   .     S
C1102  C952    1.383   1_655 S
C1103  C1105   1.404   .     A
C1103  N1135   1.438   .     S
C1103  C949    1.383   1_655 S
C1104  C1106   1.404   .     A
C1104  N1138   1.438   .     S
C1107  N1116   1.366   .     A
C1107  H1111   1.082   .     S
C1108  N1115   1.366   .     A
C1108  H1112   1.082   .     S
C1108  C1337   1.416   .     S
C1109  N1116   1.366   .     A
C1109  H1113   1.082   .     S
C1110  N1115   1.366   .     A
C1110  H1114   1.082   .     S
C1110  C1335   1.416   .     S
N1117  H1118   1.031   .     S
N1117  C1119   1.448   .     S
C1119  H1121   1.109   .     S
C1119  H1122   1.111   .     S
H1120  C1347   1.111   .     S
N1123  H1124   1.032   .     S
N1123  C1125   1.446   .     S
C1125  H1127   1.110   .     S
C1125  H1128   1.111   .     S
C1125  H1354   1.110   .     S
N1129  O1131   1.301   .     A
N1129  O1130   1.301   .     A
N1132  O1133   1.301   .     A
N1132  O1134   1.301   .     A
N1135  O1137   1.301   .     A
N1135  O1136   1.301   .     A
N1138  O1140   1.301   .     A
N1138  O1139   1.301   .     A
O1141  C1145   1.279   .     A
O1141  Zn1153  1.988   .     S
O1142  C1146   1.278   .     A
O1142  Zn1154  1.988   .     S
O1143  C1146   1.277   .     A
O1143  Zn1153  1.992   .     S
O1144  C1145   1.277   .     A
O1144  Zn1154  1.992   .     S
C1145  C1182   1.412   .     S
C1146  C1181   1.412   .     S
O1147  C1151   1.285   .     A
O1147  Zn1153  2.016   .     S
O1148  C1152   1.285   .     A
O1148  Zn1154  2.016   .     S
O1149  Zn1153  2.012   .     S
O1149  C1152   1.285   .     A
O1150  Zn1154  2.012   .     S
O1150  C1151   1.286   .     A
C1151  C1158   1.433   .     S
C1152  C1157   1.432   .     S
Zn1153 N1191   2.007   .     S
Zn1154 N1192   2.007   .     S
C1155  C1165   1.388   .     A
C1155  C1157   1.393   .     A
C1155  H1171   1.084   .     S
C1156  C1166   1.392   .     A
C1156  H1172   1.082   .     S
C1156  C1158   1.394   .     A
C1157  C1159   1.393   .     A
C1158  C1160   1.392   .     A
C1159  C1161   1.384   .     A
C1159  H1173   1.085   .     S
C1160  H1174   1.085   .     S
C1160  C1162   1.381   .     A
C1161  C1167   1.398   .     A
C1161  C1163   1.410   .     A
C1162  C1168   1.398   .     A
C1162  C1164   1.413   .     A
C1163  C1165   1.418   .     A
C1163  C480    1.391   1_556 S
C1164  C1166   1.419   .     A
C1165  C1170   1.411   .     A
C1166  C1169   1.417   .     A
C1167  H1175   1.082   .     S
C1167  C485    1.403   1_556 S
C1168  H1176   1.085   .     S
C1169  N1193   1.436   .     S
C1170  N1199   1.425   .     S
C1170  C484    1.393   1_556 S
C1177  C1182   1.402   .     A
C1177  N1205   1.434   .     S
C1177  C1331   1.383   1_455 S
C1178  C1181   1.403   .     A
C1178  N1208   1.434   .     S
C1178  C1256   1.383   .     S
C1179  C1181   1.404   .     A
C1179  N1211   1.438   .     S
C1179  C1253   1.383   .     S
C1180  C1182   1.404   .     A
C1180  N1214   1.438   .     S
C1180  C1330   1.383   1_455 S
C1183  N1192   1.366   .     A
C1183  H1187   1.082   .     S
C1184  N1191   1.366   .     A
C1184  H1188   1.082   .     S
C1184  C729    1.416   1_565 S
C1185  N1192   1.366   .     A
C1185  H1189   1.082   .     S
C1186  N1191   1.366   .     A
C1186  H1190   1.082   .     S
C1186  C727    1.416   1_565 S
N1193  H1194   1.031   .     S
N1193  C1195   1.448   .     S
C1195  H1197   1.109   .     S
C1195  H1198   1.111   .     S
H1196  C739    1.111   1_565 S
N1199  H1200   1.032   .     S
N1199  C1201   1.446   .     S
C1201  H1203   1.110   .     S
C1201  H1204   1.111   .     S
C1201  H746    1.110   1_565 S
N1205  O1207   1.301   .     A
N1205  O1206   1.301   .     A
N1208  O1209   1.301   .     A
N1208  O1210   1.301   .     A
N1211  O1213   1.301   .     A
N1211  O1212   1.301   .     A
N1214  O1216   1.301   .     A
N1214  O1215   1.301   .     A
O1217  C1221   1.279   .     A
O1217  Zn1229  1.988   .     S
O1218  C1222   1.278   .     A
O1218  Zn1230  1.988   .     S
O1219  C1222   1.277   .     A
O1219  Zn1229  1.992   .     S
O1220  C1221   1.277   .     A
O1220  Zn1230  1.992   .     S
C1221  C1258   1.412   .     S
C1222  C1257   1.412   .     S
O1223  C1227   1.285   .     A
O1223  Zn1229  2.016   .     S
O1224  C1228   1.285   .     A
O1224  Zn1230  2.016   .     S
O1225  Zn1229  2.012   .     S
O1225  C1228   1.285   .     A
O1226  Zn1230  2.012   .     S
O1226  C1227   1.286   .     A
C1227  C1234   1.433   .     S
C1228  C1233   1.432   .     S
Zn1229 N1267   2.007   .     S
Zn1230 N1268   2.007   .     S
C1231  C1241   1.388   .     A
C1231  C1233   1.393   .     A
C1231  H1247   1.084   .     S
C1232  C1242   1.392   .     A
C1232  H1248   1.082   .     S
C1232  C1234   1.394   .     A
C1233  C1235   1.393   .     A
C1234  C1236   1.392   .     A
C1235  C1237   1.384   .     A
C1235  H1249   1.085   .     S
C1236  H1250   1.085   .     S
C1236  C1238   1.381   .     A
C1237  C1243   1.398   .     A
C1237  C1239   1.410   .     A
C1238  C1244   1.398   .     A
C1238  C1240   1.413   .     A
C1239  C1241   1.418   .     A
C1239  C556    1.391   1_556 S
C1240  C1242   1.419   .     A
C1241  C1246   1.411   .     A
C1242  C1245   1.417   .     A
C1243  H1251   1.082   .     S
C1243  C561    1.403   1_556 S
C1244  H1252   1.085   .     S
C1245  N1269   1.436   .     S
C1246  N1275   1.425   .     S
C1246  C560    1.393   1_556 S
C1253  C1258   1.402   .     A
C1253  N1281   1.434   .     S
C1254  C1257   1.403   .     A
C1254  N1284   1.434   .     S
C1254  C1332   1.383   .     S
C1255  C1257   1.404   .     A
C1255  N1287   1.438   .     S
C1255  C1329   1.383   .     S
C1256  C1258   1.404   .     A
C1256  N1290   1.438   .     S
C1259  N1268   1.366   .     A
C1259  H1263   1.082   .     S
C1260  N1267   1.366   .     A
C1260  H1264   1.082   .     S
C1260  C805    1.416   1_565 S
C1261  N1268   1.366   .     A
C1261  H1265   1.082   .     S
C1262  N1267   1.366   .     A
C1262  H1266   1.082   .     S
C1262  C803    1.416   1_565 S
N1269  H1270   1.031   .     S
N1269  C1271   1.448   .     S
C1271  H1273   1.109   .     S
C1271  H1274   1.111   .     S
H1272  C815    1.111   1_565 S
N1275  H1276   1.032   .     S
N1275  C1277   1.446   .     S
C1277  H1279   1.110   .     S
C1277  H1280   1.111   .     S
C1277  H822    1.110   1_565 S
N1281  O1283   1.301   .     A
N1281  O1282   1.301   .     A
N1284  O1285   1.301   .     A
N1284  O1286   1.301   .     A
N1287  O1289   1.301   .     A
N1287  O1288   1.301   .     A
N1290  O1292   1.301   .     A
N1290  O1291   1.301   .     A
O1293  C1297   1.279   .     A
O1293  Zn1305  1.988   .     S
O1294  C1298   1.278   .     A
O1294  Zn1306  1.988   .     S
O1295  C1298   1.277   .     A
O1295  Zn1305  1.992   .     S
O1296  C1297   1.277   .     A
O1296  Zn1306  1.992   .     S
C1297  C1334   1.412   .     S
C1298  C1333   1.412   .     S
O1299  C1303   1.285   .     A
O1299  Zn1305  2.016   .     S
O1300  C1304   1.285   .     A
O1300  Zn1306  2.016   .     S
O1301  Zn1305  2.012   .     S
O1301  C1304   1.285   .     A
O1302  Zn1306  2.012   .     S
O1302  C1303   1.286   .     A
C1303  C1310   1.433   .     S
C1304  C1309   1.432   .     S
Zn1305 N1343   2.007   .     S
Zn1306 N1344   2.007   .     S
C1307  C1317   1.388   .     A
C1307  C1309   1.393   .     A
C1307  H1323   1.084   .     S
C1308  C1318   1.392   .     A
C1308  H1324   1.082   .     S
C1308  C1310   1.394   .     A
C1309  C1311   1.393   .     A
C1310  C1312   1.392   .     A
C1311  C1313   1.384   .     A
C1311  H1325   1.085   .     S
C1312  H1326   1.085   .     S
C1312  C1314   1.381   .     A
C1313  C1319   1.398   .     A
C1313  C1315   1.410   .     A
C1314  C1320   1.398   .     A
C1314  C1316   1.413   .     A
C1315  C1317   1.418   .     A
C1315  C632    1.391   1_556 S
C1316  C1318   1.419   .     A
C1317  C1322   1.411   .     A
C1318  C1321   1.417   .     A
C1319  H1327   1.082   .     S
C1319  C637    1.403   1_556 S
C1320  H1328   1.085   .     S
C1321  N1345   1.436   .     S
C1322  N1351   1.425   .     S
C1322  C636    1.393   1_556 S
C1329  C1334   1.402   .     A
C1329  N1357   1.434   .     S
C1330  C1333   1.403   .     A
C1330  N1360   1.434   .     S
C1330  C1180   1.383   1_655 S
C1331  C1333   1.404   .     A
C1331  N1363   1.438   .     S
C1331  C1177   1.383   1_655 S
C1332  C1334   1.404   .     A
C1332  N1366   1.438   .     S
C1335  N1344   1.366   .     A
C1335  H1339   1.082   .     S
C1336  N1343   1.366   .     A
C1336  H1340   1.082   .     S
C1336  C881    1.416   1_565 S
C1337  N1344   1.366   .     A
C1337  H1341   1.082   .     S
C1338  N1343   1.366   .     A
C1338  H1342   1.082   .     S
C1338  C879    1.416   1_565 S
N1345  H1346   1.031   .     S
N1345  C1347   1.448   .     S
C1347  H1349   1.109   .     S
C1347  H1350   1.111   .     S
H1348  C891    1.111   1_565 S
N1351  H1352   1.032   .     S
N1351  C1353   1.446   .     S
C1353  H1355   1.110   .     S
C1353  H1356   1.111   .     S
C1353  H898    1.110   1_565 S
N1357  O1359   1.301   .     A
N1357  O1358   1.301   .     A
N1360  O1361   1.301   .     A
N1360  O1362   1.301   .     A
N1363  O1365   1.301   .     A
N1363  O1364   1.301   .     A
N1366  O1368   1.301   .     A
N1366  O1367   1.301   .     A
