data_str_m3_o10_o17_pcu_sym.106
_audit_creation_date              2020-01-03
_audit_creation_method            'Materials Studio'
_symmetry_space_group_name_H-M    'P1'
_symmetry_Int_Tables_number       1
_symmetry_cell_setting            triclinic
loop_
_symmetry_equiv_pos_as_xyz
  x,y,z
_cell_length_a                    23.5201
_cell_length_b                    26.2744
_cell_length_c                    29.9489
_cell_angle_alpha                 92.3737
_cell_angle_beta                  85.1102
_cell_angle_gamma                 92.9064
loop_
_atom_site_label
_atom_site_type_symbol
_atom_site_fract_x
_atom_site_fract_y
_atom_site_fract_z
_atom_site_U_iso_or_equiv
_atom_site_adp_type
_atom_site_occupancy
C1     C     0.18151   0.26455   0.24850   0.00000  Uiso   1.00
C2     C     0.20385   0.20055   0.40543   0.00000  Uiso   1.00
C3     C     0.16678   0.16698   0.11581   0.00000  Uiso   1.00
C4     C     0.16655   0.16636   0.38418   0.00000  Uiso   1.00
C5     C     0.20551   0.19959   0.09155   0.00000  Uiso   1.00
C6     C     0.12783   0.13374   0.40845   0.00000  Uiso   1.00
C7     C     0.20790   0.19709   0.04489   0.00000  Uiso   1.00
C8     C     0.12544   0.13624   0.45511   0.00000  Uiso   1.00
C9     C     0.16670   0.16642   0.02332   0.00000  Uiso   1.00
C10    C     0.16664   0.16692   0.47668   0.00000  Uiso   1.00
C11    C     0.12554   0.13542   0.04840   0.00000  Uiso   1.00
C12    C     0.15182   0.06878   0.25150   0.00000  Uiso   1.00
C13    C     0.20779   0.19792   0.45160   0.00000  Uiso   1.00
C14    C     0.25023   0.22551   0.01977   0.00000  Uiso   1.00
C15    C     0.08311   0.10782   0.48022   0.00000  Uiso   1.00
C16    C     0.12913   0.05275   0.12010   0.00000  Uiso   1.00
C17    C     0.20420   0.28058   0.37990   0.00000  Uiso   1.00
C18    C     0.21867   0.28194   0.11628   0.00000  Uiso   1.00
C19    C     0.11468   0.05140   0.38372   0.00000  Uiso   1.00
C20    C     0.01217   0.22664   0.44805   0.00000  Uiso   1.00
C21    C     0.32119   0.10674   0.05199   0.00000  Uiso   1.00
C22    C     0.27981   0.33305   0.21622   0.00000  Uiso   1.00
C23    C     0.25151   0.22520   0.47326   0.00000  Uiso   1.00
C24    C     0.05353   0.00028   0.28378   0.00000  Uiso   1.00
C25    C     0.31574   0.10991   0.17233   0.00000  Uiso   1.00
C26    C     0.01759   0.22342   0.32767   0.00000  Uiso   1.00
C27    C     0.08183   0.10813   0.02674   0.00000  Uiso   1.00
C28    C     0.18973   0.31865   0.24961   0.00000  Uiso   1.00
C29    C     0.14360   0.01469   0.25039   0.00000  Uiso   1.00
C30    C     0.16672   0.16612   0.33635   0.00000  Uiso   1.00
C31    C     0.16662   0.16721   0.16365   0.00000  Uiso   1.00
C32    C     0.12949   0.13279   0.09457   0.00000  Uiso   1.00
H33    H     0.28282   0.24818   0.03605   0.00000  Uiso   1.00
H34    H     0.25440   0.31101   0.11691   0.00000  Uiso   1.00
H35    H     0.19001   0.28609   0.14752   0.00000  Uiso   1.00
H36    H     0.07894   0.02232   0.38309   0.00000  Uiso   1.00
H37    H     0.13843   0.04282   0.41299   0.00000  Uiso   1.00
H38    H     0.14333   0.04725   0.35247   0.00000  Uiso   1.00
H39    H     0.00642   0.18711   0.43368   0.00000  Uiso   1.00
H40    H     0.02826   0.22581   0.48186   0.00000  Uiso   1.00
H41    H     0.04549   0.24697   0.42608   0.00000  Uiso   1.00
H42    H     0.30514   0.10770   0.01817   0.00000  Uiso   1.00
H43    H     0.32696   0.14622   0.06646   0.00000  Uiso   1.00
H44    H     0.05051   0.08515   0.46394   0.00000  Uiso   1.00
H45    H     0.28783   0.08636   0.07389   0.00000  Uiso   1.00
H46    H     0.25854   0.01063   0.18669   0.00000  Uiso   1.00
H47    H     0.29525   0.29396   0.21093   0.00000  Uiso   1.00
H48    H     0.31840   0.02496   0.21871   0.00000  Uiso   1.00
H49    H     0.03809   0.03938   0.28907   0.00000  Uiso   1.00
H50    H     0.07480   0.32270   0.31332   0.00000  Uiso   1.00
H51    H     0.01494   0.30838   0.28129   0.00000  Uiso   1.00
H52    H     0.31653   0.14454   0.15216   0.00000  Uiso   1.00
H53    H     0.27214   0.09457   0.18137   0.00000  Uiso   1.00
H54    H     0.00261   0.07915   0.15136   0.00000  Uiso   1.00
H55    H     0.16951   0.06086   0.13651   0.00000  Uiso   1.00
H56    H     0.06119   0.23877   0.31863   0.00000  Uiso   1.00
H57    H     0.01680   0.18880   0.34785   0.00000  Uiso   1.00
H58    H     0.33072   0.25419   0.34864   0.00000  Uiso   1.00
H59    H     0.13846   0.03596   0.08569   0.00000  Uiso   1.00
H60    H     0.10329   0.02384   0.14000   0.00000  Uiso   1.00
H61    H     0.16382   0.27247   0.36348   0.00000  Uiso   1.00
H62    H     0.23004   0.30950   0.36000   0.00000  Uiso   1.00
H63    H     0.19487   0.29738   0.41431   0.00000  Uiso   1.00
H64    H     0.19492   0.29052   0.08700   0.00000  Uiso   1.00
N65    N     0.31678   0.15265   0.23783   0.00000  Uiso   1.00
N66    N     0.01656   0.18068   0.26217   0.00000  Uiso   1.00
O67    O     0.12975   0.24619   0.25299   0.00000  Uiso   1.00
O68    O     0.23593   0.23654   0.38062   0.00000  Uiso   1.00
O69    O     0.24178   0.23321   0.11361   0.00000  Uiso   1.00
O70    O     0.09156   0.10013   0.38639   0.00000  Uiso   1.00
O71    O     0.29453   0.25304   0.44934   0.00000  Uiso   1.00
O72    O     0.03880   0.08030   0.05065   0.00000  Uiso   1.00
O73    O     0.24425   0.00553   0.25638   0.00000  Uiso   1.00
O74    O     0.08908   0.32780   0.24362   0.00000  Uiso   1.00
O75    O     0.01266   0.11960   0.21025   0.00000  Uiso   1.00
O76    O     0.32067   0.21373   0.28975   0.00000  Uiso   1.00
O77    O     0.20358   0.08714   0.24702   0.00000  Uiso   1.00
O78    O     0.22613   0.23721   0.24518   0.00000  Uiso   1.00
O79    O     0.10720   0.09613   0.25482   0.00000  Uiso   1.00
O80    O     0.11847   0.17117   0.31998   0.00000  Uiso   1.00
O81    O     0.21486   0.16216   0.18002   0.00000  Uiso   1.00
O82    O     0.21485   0.16219   0.31218   0.00000  Uiso   1.00
O83    O     0.11848   0.17115   0.18783   0.00000  Uiso   1.00
O84    O     0.09740   0.09680   0.11937   0.00000  Uiso   1.00
Zn85   Zn    0.10231   0.17266   0.25521   0.00000  Uiso   1.00
Zn86   Zn    0.23102   0.16067   0.24479   0.00000  Uiso   1.00
C87    C     0.51484   0.26455   0.24850   0.00000  Uiso   1.00
C88    C     0.53718   0.20055   0.40543   0.00000  Uiso   1.00
C89    C     0.50012   0.16698   0.11581   0.00000  Uiso   1.00
C90    C     0.49989   0.16636   0.38418   0.00000  Uiso   1.00
C91    C     0.53884   0.19959   0.09155   0.00000  Uiso   1.00
C92    C     0.46116   0.13374   0.40845   0.00000  Uiso   1.00
C93    C     0.54123   0.19709   0.04489   0.00000  Uiso   1.00
C94    C     0.45878   0.13624   0.45511   0.00000  Uiso   1.00
C95    C     0.50003   0.16642   0.02332   0.00000  Uiso   1.00
C96    C     0.49997   0.16692   0.47668   0.00000  Uiso   1.00
C97    C     0.45888   0.13542   0.04840   0.00000  Uiso   1.00
C98    C     0.48516   0.06878   0.25150   0.00000  Uiso   1.00
C99    C     0.54112   0.19792   0.45160   0.00000  Uiso   1.00
C100   C     0.58356   0.22551   0.01977   0.00000  Uiso   1.00
C101   C     0.41644   0.10782   0.48022   0.00000  Uiso   1.00
C102   C     0.46246   0.05275   0.12010   0.00000  Uiso   1.00
C103   C     0.53753   0.28058   0.37990   0.00000  Uiso   1.00
C104   C     0.55200   0.28194   0.11628   0.00000  Uiso   1.00
C105   C     0.44801   0.05140   0.38372   0.00000  Uiso   1.00
C106   C     0.34550   0.22664   0.44805   0.00000  Uiso   1.00
C107   C     0.65452   0.10674   0.05199   0.00000  Uiso   1.00
C108   C     0.61314   0.33305   0.21622   0.00000  Uiso   1.00
C109   C     0.58484   0.22520   0.47326   0.00000  Uiso   1.00
C110   C     0.38686   0.00028   0.28378   0.00000  Uiso   1.00
C111   C     0.64907   0.10991   0.17233   0.00000  Uiso   1.00
C112   C     0.35092   0.22342   0.32767   0.00000  Uiso   1.00
C113   C     0.41516   0.10813   0.02674   0.00000  Uiso   1.00
C114   C     0.52306   0.31865   0.24961   0.00000  Uiso   1.00
C115   C     0.47694   0.01469   0.25039   0.00000  Uiso   1.00
C116   C     0.50005   0.16612   0.33635   0.00000  Uiso   1.00
C117   C     0.49995   0.16721   0.16365   0.00000  Uiso   1.00
C118   C     0.46282   0.13279   0.09457   0.00000  Uiso   1.00
H119   H     0.61616   0.24818   0.03605   0.00000  Uiso   1.00
H120   H     0.58773   0.31101   0.11691   0.00000  Uiso   1.00
H121   H     0.52334   0.28609   0.14752   0.00000  Uiso   1.00
H122   H     0.41228   0.02232   0.38309   0.00000  Uiso   1.00
H123   H     0.47176   0.04282   0.41299   0.00000  Uiso   1.00
H124   H     0.47666   0.04725   0.35247   0.00000  Uiso   1.00
H125   H     0.33975   0.18711   0.43368   0.00000  Uiso   1.00
H126   H     0.36159   0.22581   0.48186   0.00000  Uiso   1.00
H127   H     0.37882   0.24697   0.42608   0.00000  Uiso   1.00
H128   H     0.63847   0.10770   0.01817   0.00000  Uiso   1.00
H129   H     0.66030   0.14622   0.06646   0.00000  Uiso   1.00
H130   H     0.38385   0.08515   0.46394   0.00000  Uiso   1.00
H131   H     0.62117   0.08636   0.07389   0.00000  Uiso   1.00
H132   H     0.59187   0.01063   0.18669   0.00000  Uiso   1.00
H133   H     0.62858   0.29396   0.21093   0.00000  Uiso   1.00
H134   H     0.65173   0.02496   0.21871   0.00000  Uiso   1.00
H135   H     0.37142   0.03938   0.28907   0.00000  Uiso   1.00
H136   H     0.40813   0.32270   0.31332   0.00000  Uiso   1.00
H137   H     0.34827   0.30838   0.28129   0.00000  Uiso   1.00
H138   H     0.64986   0.14454   0.15216   0.00000  Uiso   1.00
H139   H     0.60547   0.09457   0.18137   0.00000  Uiso   1.00
H140   H     0.33594   0.07915   0.15136   0.00000  Uiso   1.00
H141   H     0.50284   0.06086   0.13651   0.00000  Uiso   1.00
H142   H     0.39453   0.23877   0.31863   0.00000  Uiso   1.00
H143   H     0.35014   0.18880   0.34785   0.00000  Uiso   1.00
H144   H     0.66406   0.25419   0.34864   0.00000  Uiso   1.00
H145   H     0.47179   0.03596   0.08569   0.00000  Uiso   1.00
H146   H     0.43662   0.02384   0.14000   0.00000  Uiso   1.00
H147   H     0.49715   0.27247   0.36348   0.00000  Uiso   1.00
H148   H     0.56338   0.30950   0.36000   0.00000  Uiso   1.00
H149   H     0.52820   0.29738   0.41431   0.00000  Uiso   1.00
H150   H     0.52826   0.29052   0.08700   0.00000  Uiso   1.00
N151   N     0.65011   0.15265   0.23783   0.00000  Uiso   1.00
N152   N     0.34989   0.18068   0.26217   0.00000  Uiso   1.00
O153   O     0.46308   0.24619   0.25299   0.00000  Uiso   1.00
O154   O     0.56927   0.23654   0.38062   0.00000  Uiso   1.00
O155   O     0.57511   0.23321   0.11361   0.00000  Uiso   1.00
O156   O     0.42489   0.10013   0.38639   0.00000  Uiso   1.00
O157   O     0.62787   0.25304   0.44934   0.00000  Uiso   1.00
O158   O     0.37213   0.08030   0.05065   0.00000  Uiso   1.00
O159   O     0.57759   0.00553   0.25638   0.00000  Uiso   1.00
O160   O     0.42241   0.32780   0.24362   0.00000  Uiso   1.00
O161   O     0.34600   0.11960   0.21025   0.00000  Uiso   1.00
O162   O     0.65400   0.21373   0.28975   0.00000  Uiso   1.00
O163   O     0.53692   0.08714   0.24702   0.00000  Uiso   1.00
O164   O     0.55946   0.23721   0.24518   0.00000  Uiso   1.00
O165   O     0.44054   0.09613   0.25482   0.00000  Uiso   1.00
O166   O     0.45181   0.17117   0.31998   0.00000  Uiso   1.00
O167   O     0.54819   0.16216   0.18002   0.00000  Uiso   1.00
O168   O     0.54819   0.16219   0.31218   0.00000  Uiso   1.00
O169   O     0.45181   0.17115   0.18783   0.00000  Uiso   1.00
O170   O     0.43073   0.09680   0.11937   0.00000  Uiso   1.00
Zn171  Zn    0.43565   0.17266   0.25521   0.00000  Uiso   1.00
Zn172  Zn    0.56435   0.16067   0.24479   0.00000  Uiso   1.00
C173   C     0.84818   0.26455   0.24850   0.00000  Uiso   1.00
C174   C     0.87051   0.20055   0.40543   0.00000  Uiso   1.00
C175   C     0.83345   0.16698   0.11581   0.00000  Uiso   1.00
C176   C     0.83322   0.16636   0.38418   0.00000  Uiso   1.00
C177   C     0.87217   0.19959   0.09155   0.00000  Uiso   1.00
C178   C     0.79450   0.13374   0.40845   0.00000  Uiso   1.00
C179   C     0.87456   0.19709   0.04489   0.00000  Uiso   1.00
C180   C     0.79211   0.13624   0.45511   0.00000  Uiso   1.00
C181   C     0.83337   0.16642   0.02332   0.00000  Uiso   1.00
C182   C     0.83330   0.16692   0.47668   0.00000  Uiso   1.00
C183   C     0.79221   0.13542   0.04840   0.00000  Uiso   1.00
C184   C     0.81849   0.06878   0.25150   0.00000  Uiso   1.00
C185   C     0.87446   0.19792   0.45160   0.00000  Uiso   1.00
C186   C     0.91690   0.22551   0.01977   0.00000  Uiso   1.00
C187   C     0.74977   0.10782   0.48022   0.00000  Uiso   1.00
C188   C     0.79580   0.05275   0.12010   0.00000  Uiso   1.00
C189   C     0.87087   0.28058   0.37990   0.00000  Uiso   1.00
C190   C     0.88533   0.28194   0.11628   0.00000  Uiso   1.00
C191   C     0.78134   0.05140   0.38372   0.00000  Uiso   1.00
C192   C     0.67884   0.22664   0.44805   0.00000  Uiso   1.00
C193   C     0.98785   0.10674   0.05199   0.00000  Uiso   1.00
C194   C     0.94647   0.33305   0.21622   0.00000  Uiso   1.00
C195   C     0.91818   0.22520   0.47326   0.00000  Uiso   1.00
C196   C     0.72019   0.00028   0.28378   0.00000  Uiso   1.00
C197   C     0.98241   0.10991   0.17233   0.00000  Uiso   1.00
C198   C     0.68426   0.22342   0.32767   0.00000  Uiso   1.00
C199   C     0.74849   0.10813   0.02674   0.00000  Uiso   1.00
C200   C     0.85639   0.31865   0.24961   0.00000  Uiso   1.00
C201   C     0.81027   0.01469   0.25039   0.00000  Uiso   1.00
C202   C     0.83338   0.16612   0.33635   0.00000  Uiso   1.00
C203   C     0.83328   0.16721   0.16365   0.00000  Uiso   1.00
C204   C     0.79615   0.13279   0.09457   0.00000  Uiso   1.00
H205   H     0.94949   0.24818   0.03605   0.00000  Uiso   1.00
H206   H     0.92107   0.31101   0.11691   0.00000  Uiso   1.00
H207   H     0.85668   0.28609   0.14752   0.00000  Uiso   1.00
H208   H     0.74561   0.02232   0.38309   0.00000  Uiso   1.00
H209   H     0.80509   0.04282   0.41299   0.00000  Uiso   1.00
H210   H     0.80999   0.04725   0.35247   0.00000  Uiso   1.00
H211   H     0.67309   0.18711   0.43368   0.00000  Uiso   1.00
H212   H     0.69492   0.22581   0.48186   0.00000  Uiso   1.00
H213   H     0.71215   0.24697   0.42608   0.00000  Uiso   1.00
H214   H     0.97180   0.10770   0.01817   0.00000  Uiso   1.00
H215   H     0.99363   0.14622   0.06646   0.00000  Uiso   1.00
H216   H     0.71718   0.08515   0.46394   0.00000  Uiso   1.00
H217   H     0.95450   0.08636   0.07389   0.00000  Uiso   1.00
H218   H     0.92520   0.01063   0.18669   0.00000  Uiso   1.00
H219   H     0.96192   0.29396   0.21093   0.00000  Uiso   1.00
H220   H     0.98506   0.02496   0.21871   0.00000  Uiso   1.00
H221   H     0.70475   0.03938   0.28907   0.00000  Uiso   1.00
H222   H     0.74147   0.32270   0.31332   0.00000  Uiso   1.00
H223   H     0.68160   0.30838   0.28129   0.00000  Uiso   1.00
H224   H     0.98319   0.14454   0.15216   0.00000  Uiso   1.00
H225   H     0.93881   0.09457   0.18137   0.00000  Uiso   1.00
H226   H     0.66928   0.07915   0.15136   0.00000  Uiso   1.00
H227   H     0.83618   0.06086   0.13651   0.00000  Uiso   1.00
H228   H     0.72786   0.23877   0.31863   0.00000  Uiso   1.00
H229   H     0.68347   0.18880   0.34785   0.00000  Uiso   1.00
H230   H     0.99739   0.25419   0.34864   0.00000  Uiso   1.00
H231   H     0.80513   0.03596   0.08569   0.00000  Uiso   1.00
H232   H     0.76995   0.02384   0.14000   0.00000  Uiso   1.00
H233   H     0.83049   0.27247   0.36348   0.00000  Uiso   1.00
H234   H     0.89671   0.30950   0.36000   0.00000  Uiso   1.00
H235   H     0.86153   0.29738   0.41431   0.00000  Uiso   1.00
H236   H     0.86159   0.29052   0.08700   0.00000  Uiso   1.00
N237   N     0.98344   0.15265   0.23783   0.00000  Uiso   1.00
N238   N     0.68322   0.18068   0.26217   0.00000  Uiso   1.00
O239   O     0.79642   0.24619   0.25299   0.00000  Uiso   1.00
O240   O     0.90260   0.23654   0.38062   0.00000  Uiso   1.00
O241   O     0.90845   0.23321   0.11361   0.00000  Uiso   1.00
O242   O     0.75822   0.10013   0.38639   0.00000  Uiso   1.00
O243   O     0.96120   0.25304   0.44934   0.00000  Uiso   1.00
O244   O     0.70546   0.08030   0.05065   0.00000  Uiso   1.00
O245   O     0.91092   0.00553   0.25638   0.00000  Uiso   1.00
O246   O     0.75575   0.32780   0.24362   0.00000  Uiso   1.00
O247   O     0.67933   0.11960   0.21025   0.00000  Uiso   1.00
O248   O     0.98734   0.21373   0.28975   0.00000  Uiso   1.00
O249   O     0.87025   0.08714   0.24702   0.00000  Uiso   1.00
O250   O     0.89280   0.23721   0.24518   0.00000  Uiso   1.00
O251   O     0.77387   0.09613   0.25482   0.00000  Uiso   1.00
O252   O     0.78514   0.17117   0.31998   0.00000  Uiso   1.00
O253   O     0.88153   0.16216   0.18002   0.00000  Uiso   1.00
O254   O     0.88152   0.16219   0.31218   0.00000  Uiso   1.00
O255   O     0.78515   0.17115   0.18783   0.00000  Uiso   1.00
O256   O     0.76406   0.09680   0.11937   0.00000  Uiso   1.00
Zn257  Zn    0.76898   0.17266   0.25521   0.00000  Uiso   1.00
Zn258  Zn    0.89769   0.16067   0.24479   0.00000  Uiso   1.00
C259   C     0.18151   0.59789   0.24850   0.00000  Uiso   1.00
C260   C     0.20385   0.53388   0.40543   0.00000  Uiso   1.00
C261   C     0.16678   0.50031   0.11581   0.00000  Uiso   1.00
C262   C     0.16655   0.49969   0.38418   0.00000  Uiso   1.00
C263   C     0.20551   0.53293   0.09155   0.00000  Uiso   1.00
C264   C     0.12783   0.46707   0.40845   0.00000  Uiso   1.00
C265   C     0.20790   0.53043   0.04489   0.00000  Uiso   1.00
C266   C     0.12544   0.46957   0.45511   0.00000  Uiso   1.00
C267   C     0.16670   0.49975   0.02332   0.00000  Uiso   1.00
C268   C     0.16664   0.50025   0.47668   0.00000  Uiso   1.00
C269   C     0.12554   0.46875   0.04840   0.00000  Uiso   1.00
C270   C     0.15182   0.40212   0.25150   0.00000  Uiso   1.00
C271   C     0.20779   0.53125   0.45160   0.00000  Uiso   1.00
C272   C     0.25023   0.55884   0.01977   0.00000  Uiso   1.00
C273   C     0.08311   0.44116   0.48022   0.00000  Uiso   1.00
C274   C     0.12913   0.38609   0.12010   0.00000  Uiso   1.00
C275   C     0.20420   0.61392   0.37990   0.00000  Uiso   1.00
C276   C     0.21867   0.61527   0.11628   0.00000  Uiso   1.00
C277   C     0.11468   0.38473   0.38372   0.00000  Uiso   1.00
C278   C     0.01217   0.55997   0.44805   0.00000  Uiso   1.00
C279   C     0.32119   0.44007   0.05199   0.00000  Uiso   1.00
C280   C     0.27981   0.66639   0.21622   0.00000  Uiso   1.00
C281   C     0.25151   0.55853   0.47326   0.00000  Uiso   1.00
C282   C     0.05353   0.33361   0.28378   0.00000  Uiso   1.00
C283   C     0.31574   0.44324   0.17233   0.00000  Uiso   1.00
C284   C     0.01759   0.55676   0.32767   0.00000  Uiso   1.00
C285   C     0.08183   0.44147   0.02674   0.00000  Uiso   1.00
C286   C     0.18973   0.65198   0.24961   0.00000  Uiso   1.00
C287   C     0.14360   0.34802   0.25039   0.00000  Uiso   1.00
C288   C     0.16672   0.49946   0.33635   0.00000  Uiso   1.00
C289   C     0.16662   0.50054   0.16365   0.00000  Uiso   1.00
C290   C     0.12949   0.46612   0.09457   0.00000  Uiso   1.00
H291   H     0.28282   0.58152   0.03605   0.00000  Uiso   1.00
H292   H     0.25440   0.64434   0.11691   0.00000  Uiso   1.00
H293   H     0.19001   0.61942   0.14752   0.00000  Uiso   1.00
H294   H     0.07894   0.35566   0.38309   0.00000  Uiso   1.00
H295   H     0.13843   0.37615   0.41299   0.00000  Uiso   1.00
H296   H     0.14333   0.38058   0.35247   0.00000  Uiso   1.00
H297   H     0.00642   0.52044   0.43368   0.00000  Uiso   1.00
H298   H     0.02826   0.55915   0.48186   0.00000  Uiso   1.00
H299   H     0.04549   0.58031   0.42608   0.00000  Uiso   1.00
H300   H     0.30514   0.44104   0.01817   0.00000  Uiso   1.00
H301   H     0.32696   0.47955   0.06646   0.00000  Uiso   1.00
H302   H     0.05051   0.41849   0.46394   0.00000  Uiso   1.00
H303   H     0.28783   0.41969   0.07389   0.00000  Uiso   1.00
H304   H     0.25854   0.34396   0.18669   0.00000  Uiso   1.00
H305   H     0.29525   0.62729   0.21093   0.00000  Uiso   1.00
H306   H     0.31840   0.35829   0.21871   0.00000  Uiso   1.00
H307   H     0.03809   0.37271   0.28907   0.00000  Uiso   1.00
H308   H     0.07480   0.65603   0.31332   0.00000  Uiso   1.00
H309   H     0.01494   0.64171   0.28129   0.00000  Uiso   1.00
H310   H     0.31653   0.47787   0.15216   0.00000  Uiso   1.00
H311   H     0.27214   0.42790   0.18137   0.00000  Uiso   1.00
H312   H     0.00261   0.41248   0.15136   0.00000  Uiso   1.00
H313   H     0.16951   0.39420   0.13651   0.00000  Uiso   1.00
H314   H     0.06119   0.57210   0.31863   0.00000  Uiso   1.00
H315   H     0.01680   0.52213   0.34785   0.00000  Uiso   1.00
H316   H     0.33072   0.58752   0.34864   0.00000  Uiso   1.00
H317   H     0.13846   0.36929   0.08569   0.00000  Uiso   1.00
H318   H     0.10329   0.35717   0.14000   0.00000  Uiso   1.00
H319   H     0.16382   0.60581   0.36348   0.00000  Uiso   1.00
H320   H     0.23004   0.64283   0.36000   0.00000  Uiso   1.00
H321   H     0.19487   0.63071   0.41431   0.00000  Uiso   1.00
H322   H     0.19492   0.62385   0.08700   0.00000  Uiso   1.00
N323   N     0.31678   0.48598   0.23783   0.00000  Uiso   1.00
N324   N     0.01656   0.51402   0.26217   0.00000  Uiso   1.00
O325   O     0.12975   0.57952   0.25299   0.00000  Uiso   1.00
O326   O     0.23593   0.56987   0.38062   0.00000  Uiso   1.00
O327   O     0.24178   0.56654   0.11361   0.00000  Uiso   1.00
O328   O     0.09156   0.43346   0.38639   0.00000  Uiso   1.00
O329   O     0.29453   0.58637   0.44934   0.00000  Uiso   1.00
O330   O     0.03880   0.41363   0.05065   0.00000  Uiso   1.00
O331   O     0.24425   0.33887   0.25638   0.00000  Uiso   1.00
O332   O     0.08908   0.66113   0.24362   0.00000  Uiso   1.00
O333   O     0.01266   0.45293   0.21025   0.00000  Uiso   1.00
O334   O     0.32067   0.54707   0.28975   0.00000  Uiso   1.00
O335   O     0.20358   0.42048   0.24702   0.00000  Uiso   1.00
O336   O     0.22613   0.57054   0.24518   0.00000  Uiso   1.00
O337   O     0.10720   0.42946   0.25482   0.00000  Uiso   1.00
O338   O     0.11847   0.50450   0.31998   0.00000  Uiso   1.00
O339   O     0.21486   0.49550   0.18002   0.00000  Uiso   1.00
O340   O     0.21485   0.49552   0.31218   0.00000  Uiso   1.00
O341   O     0.11848   0.50448   0.18783   0.00000  Uiso   1.00
O342   O     0.09740   0.43013   0.11937   0.00000  Uiso   1.00
Zn343  Zn    0.10231   0.50600   0.25521   0.00000  Uiso   1.00
Zn344  Zn    0.23102   0.49400   0.24479   0.00000  Uiso   1.00
C345   C     0.51484   0.59789   0.24850   0.00000  Uiso   1.00
C346   C     0.53718   0.53388   0.40543   0.00000  Uiso   1.00
C347   C     0.50012   0.50031   0.11581   0.00000  Uiso   1.00
C348   C     0.49989   0.49969   0.38418   0.00000  Uiso   1.00
C349   C     0.53884   0.53293   0.09155   0.00000  Uiso   1.00
C350   C     0.46116   0.46707   0.40845   0.00000  Uiso   1.00
C351   C     0.54123   0.53043   0.04489   0.00000  Uiso   1.00
C352   C     0.45878   0.46957   0.45511   0.00000  Uiso   1.00
C353   C     0.50003   0.49975   0.02332   0.00000  Uiso   1.00
C354   C     0.49997   0.50025   0.47668   0.00000  Uiso   1.00
C355   C     0.45888   0.46875   0.04840   0.00000  Uiso   1.00
C356   C     0.48516   0.40212   0.25150   0.00000  Uiso   1.00
C357   C     0.54112   0.53125   0.45160   0.00000  Uiso   1.00
C358   C     0.58356   0.55884   0.01977   0.00000  Uiso   1.00
C359   C     0.41644   0.44116   0.48022   0.00000  Uiso   1.00
C360   C     0.46246   0.38609   0.12010   0.00000  Uiso   1.00
C361   C     0.53753   0.61392   0.37990   0.00000  Uiso   1.00
C362   C     0.55200   0.61527   0.11628   0.00000  Uiso   1.00
C363   C     0.44801   0.38473   0.38372   0.00000  Uiso   1.00
C364   C     0.34550   0.55997   0.44805   0.00000  Uiso   1.00
C365   C     0.65452   0.44007   0.05199   0.00000  Uiso   1.00
C366   C     0.61314   0.66639   0.21622   0.00000  Uiso   1.00
C367   C     0.58484   0.55853   0.47326   0.00000  Uiso   1.00
C368   C     0.38686   0.33361   0.28378   0.00000  Uiso   1.00
C369   C     0.64907   0.44324   0.17233   0.00000  Uiso   1.00
C370   C     0.35092   0.55676   0.32767   0.00000  Uiso   1.00
C371   C     0.41516   0.44147   0.02674   0.00000  Uiso   1.00
C372   C     0.52306   0.65198   0.24961   0.00000  Uiso   1.00
C373   C     0.47694   0.34802   0.25039   0.00000  Uiso   1.00
C374   C     0.50005   0.49946   0.33635   0.00000  Uiso   1.00
C375   C     0.49995   0.50054   0.16365   0.00000  Uiso   1.00
C376   C     0.46282   0.46612   0.09457   0.00000  Uiso   1.00
H377   H     0.61616   0.58152   0.03605   0.00000  Uiso   1.00
H378   H     0.58773   0.64434   0.11691   0.00000  Uiso   1.00
H379   H     0.52334   0.61942   0.14752   0.00000  Uiso   1.00
H380   H     0.41228   0.35566   0.38309   0.00000  Uiso   1.00
H381   H     0.47176   0.37615   0.41299   0.00000  Uiso   1.00
H382   H     0.47666   0.38058   0.35247   0.00000  Uiso   1.00
H383   H     0.33975   0.52044   0.43368   0.00000  Uiso   1.00
H384   H     0.36159   0.55915   0.48186   0.00000  Uiso   1.00
H385   H     0.37882   0.58031   0.42608   0.00000  Uiso   1.00
H386   H     0.63847   0.44104   0.01817   0.00000  Uiso   1.00
H387   H     0.66030   0.47955   0.06646   0.00000  Uiso   1.00
H388   H     0.38385   0.41849   0.46394   0.00000  Uiso   1.00
H389   H     0.62117   0.41969   0.07389   0.00000  Uiso   1.00
H390   H     0.59187   0.34396   0.18669   0.00000  Uiso   1.00
H391   H     0.62858   0.62729   0.21093   0.00000  Uiso   1.00
H392   H     0.65173   0.35829   0.21871   0.00000  Uiso   1.00
H393   H     0.37142   0.37271   0.28907   0.00000  Uiso   1.00
H394   H     0.40813   0.65603   0.31332   0.00000  Uiso   1.00
H395   H     0.34827   0.64171   0.28129   0.00000  Uiso   1.00
H396   H     0.64986   0.47787   0.15216   0.00000  Uiso   1.00
H397   H     0.60547   0.42790   0.18137   0.00000  Uiso   1.00
H398   H     0.33594   0.41248   0.15136   0.00000  Uiso   1.00
H399   H     0.50284   0.39420   0.13651   0.00000  Uiso   1.00
H400   H     0.39453   0.57210   0.31863   0.00000  Uiso   1.00
H401   H     0.35014   0.52213   0.34785   0.00000  Uiso   1.00
H402   H     0.66406   0.58752   0.34864   0.00000  Uiso   1.00
H403   H     0.47179   0.36929   0.08569   0.00000  Uiso   1.00
H404   H     0.43662   0.35717   0.14000   0.00000  Uiso   1.00
H405   H     0.49715   0.60581   0.36348   0.00000  Uiso   1.00
H406   H     0.56338   0.64283   0.36000   0.00000  Uiso   1.00
H407   H     0.52820   0.63071   0.41431   0.00000  Uiso   1.00
H408   H     0.52826   0.62385   0.08700   0.00000  Uiso   1.00
N409   N     0.65011   0.48598   0.23783   0.00000  Uiso   1.00
N410   N     0.34989   0.51402   0.26217   0.00000  Uiso   1.00
O411   O     0.46308   0.57952   0.25299   0.00000  Uiso   1.00
O412   O     0.56927   0.56987   0.38062   0.00000  Uiso   1.00
O413   O     0.57511   0.56654   0.11361   0.00000  Uiso   1.00
O414   O     0.42489   0.43346   0.38639   0.00000  Uiso   1.00
O415   O     0.62787   0.58637   0.44934   0.00000  Uiso   1.00
O416   O     0.37213   0.41363   0.05065   0.00000  Uiso   1.00
O417   O     0.57759   0.33887   0.25638   0.00000  Uiso   1.00
O418   O     0.42241   0.66113   0.24362   0.00000  Uiso   1.00
O419   O     0.34600   0.45293   0.21025   0.00000  Uiso   1.00
O420   O     0.65400   0.54707   0.28975   0.00000  Uiso   1.00
O421   O     0.53692   0.42048   0.24702   0.00000  Uiso   1.00
O422   O     0.55946   0.57054   0.24518   0.00000  Uiso   1.00
O423   O     0.44054   0.42946   0.25482   0.00000  Uiso   1.00
O424   O     0.45181   0.50450   0.31998   0.00000  Uiso   1.00
O425   O     0.54819   0.49550   0.18002   0.00000  Uiso   1.00
O426   O     0.54819   0.49552   0.31218   0.00000  Uiso   1.00
O427   O     0.45181   0.50448   0.18783   0.00000  Uiso   1.00
O428   O     0.43073   0.43013   0.11937   0.00000  Uiso   1.00
Zn429  Zn    0.43565   0.50600   0.25521   0.00000  Uiso   1.00
Zn430  Zn    0.56435   0.49400   0.24479   0.00000  Uiso   1.00
C431   C     0.84818   0.59789   0.24850   0.00000  Uiso   1.00
C432   C     0.87051   0.53388   0.40543   0.00000  Uiso   1.00
C433   C     0.83345   0.50031   0.11581   0.00000  Uiso   1.00
C434   C     0.83322   0.49969   0.38418   0.00000  Uiso   1.00
C435   C     0.87217   0.53293   0.09155   0.00000  Uiso   1.00
C436   C     0.79450   0.46707   0.40845   0.00000  Uiso   1.00
C437   C     0.87456   0.53043   0.04489   0.00000  Uiso   1.00
C438   C     0.79211   0.46957   0.45511   0.00000  Uiso   1.00
C439   C     0.83337   0.49975   0.02332   0.00000  Uiso   1.00
C440   C     0.83330   0.50025   0.47668   0.00000  Uiso   1.00
C441   C     0.79221   0.46875   0.04840   0.00000  Uiso   1.00
C442   C     0.81849   0.40212   0.25150   0.00000  Uiso   1.00
C443   C     0.87446   0.53125   0.45160   0.00000  Uiso   1.00
C444   C     0.91690   0.55884   0.01977   0.00000  Uiso   1.00
C445   C     0.74977   0.44116   0.48022   0.00000  Uiso   1.00
C446   C     0.79580   0.38609   0.12010   0.00000  Uiso   1.00
C447   C     0.87087   0.61392   0.37990   0.00000  Uiso   1.00
C448   C     0.88533   0.61527   0.11628   0.00000  Uiso   1.00
C449   C     0.78134   0.38473   0.38372   0.00000  Uiso   1.00
C450   C     0.67884   0.55997   0.44805   0.00000  Uiso   1.00
C451   C     0.98785   0.44007   0.05199   0.00000  Uiso   1.00
C452   C     0.94647   0.66639   0.21622   0.00000  Uiso   1.00
C453   C     0.91818   0.55853   0.47326   0.00000  Uiso   1.00
C454   C     0.72019   0.33361   0.28378   0.00000  Uiso   1.00
C455   C     0.98241   0.44324   0.17233   0.00000  Uiso   1.00
C456   C     0.68426   0.55676   0.32767   0.00000  Uiso   1.00
C457   C     0.74849   0.44147   0.02674   0.00000  Uiso   1.00
C458   C     0.85639   0.65198   0.24961   0.00000  Uiso   1.00
C459   C     0.81027   0.34802   0.25039   0.00000  Uiso   1.00
C460   C     0.83338   0.49946   0.33635   0.00000  Uiso   1.00
C461   C     0.83328   0.50054   0.16365   0.00000  Uiso   1.00
C462   C     0.79615   0.46612   0.09457   0.00000  Uiso   1.00
H463   H     0.94949   0.58152   0.03605   0.00000  Uiso   1.00
H464   H     0.92107   0.64434   0.11691   0.00000  Uiso   1.00
H465   H     0.85668   0.61942   0.14752   0.00000  Uiso   1.00
H466   H     0.74561   0.35566   0.38309   0.00000  Uiso   1.00
H467   H     0.80509   0.37615   0.41299   0.00000  Uiso   1.00
H468   H     0.80999   0.38058   0.35247   0.00000  Uiso   1.00
H469   H     0.67309   0.52044   0.43368   0.00000  Uiso   1.00
H470   H     0.69492   0.55915   0.48186   0.00000  Uiso   1.00
H471   H     0.71215   0.58031   0.42608   0.00000  Uiso   1.00
H472   H     0.97180   0.44104   0.01817   0.00000  Uiso   1.00
H473   H     0.99363   0.47955   0.06646   0.00000  Uiso   1.00
H474   H     0.71718   0.41849   0.46394   0.00000  Uiso   1.00
H475   H     0.95450   0.41969   0.07389   0.00000  Uiso   1.00
H476   H     0.92520   0.34396   0.18669   0.00000  Uiso   1.00
H477   H     0.96192   0.62729   0.21093   0.00000  Uiso   1.00
H478   H     0.98506   0.35829   0.21871   0.00000  Uiso   1.00
H479   H     0.70475   0.37271   0.28907   0.00000  Uiso   1.00
H480   H     0.74147   0.65603   0.31332   0.00000  Uiso   1.00
H481   H     0.68160   0.64171   0.28129   0.00000  Uiso   1.00
H482   H     0.98319   0.47787   0.15216   0.00000  Uiso   1.00
H483   H     0.93881   0.42790   0.18137   0.00000  Uiso   1.00
H484   H     0.66928   0.41248   0.15136   0.00000  Uiso   1.00
H485   H     0.83618   0.39420   0.13651   0.00000  Uiso   1.00
H486   H     0.72786   0.57210   0.31863   0.00000  Uiso   1.00
H487   H     0.68347   0.52213   0.34785   0.00000  Uiso   1.00
H488   H     0.99739   0.58752   0.34864   0.00000  Uiso   1.00
H489   H     0.80513   0.36929   0.08569   0.00000  Uiso   1.00
H490   H     0.76995   0.35717   0.14000   0.00000  Uiso   1.00
H491   H     0.83049   0.60581   0.36348   0.00000  Uiso   1.00
H492   H     0.89671   0.64283   0.36000   0.00000  Uiso   1.00
H493   H     0.86153   0.63071   0.41431   0.00000  Uiso   1.00
H494   H     0.86159   0.62385   0.08700   0.00000  Uiso   1.00
N495   N     0.98344   0.48598   0.23783   0.00000  Uiso   1.00
N496   N     0.68322   0.51402   0.26217   0.00000  Uiso   1.00
O497   O     0.79642   0.57952   0.25299   0.00000  Uiso   1.00
O498   O     0.90260   0.56987   0.38062   0.00000  Uiso   1.00
O499   O     0.90845   0.56654   0.11361   0.00000  Uiso   1.00
O500   O     0.75822   0.43346   0.38639   0.00000  Uiso   1.00
O501   O     0.96120   0.58637   0.44934   0.00000  Uiso   1.00
O502   O     0.70546   0.41363   0.05065   0.00000  Uiso   1.00
O503   O     0.91092   0.33887   0.25638   0.00000  Uiso   1.00
O504   O     0.75575   0.66113   0.24362   0.00000  Uiso   1.00
O505   O     0.67933   0.45293   0.21025   0.00000  Uiso   1.00
O506   O     0.98734   0.54707   0.28975   0.00000  Uiso   1.00
O507   O     0.87025   0.42048   0.24702   0.00000  Uiso   1.00
O508   O     0.89280   0.57054   0.24518   0.00000  Uiso   1.00
O509   O     0.77387   0.42946   0.25482   0.00000  Uiso   1.00
O510   O     0.78514   0.50450   0.31998   0.00000  Uiso   1.00
O511   O     0.88153   0.49550   0.18002   0.00000  Uiso   1.00
O512   O     0.88152   0.49552   0.31218   0.00000  Uiso   1.00
O513   O     0.78515   0.50448   0.18783   0.00000  Uiso   1.00
O514   O     0.76406   0.43013   0.11937   0.00000  Uiso   1.00
Zn515  Zn    0.76898   0.50600   0.25521   0.00000  Uiso   1.00
Zn516  Zn    0.89769   0.49400   0.24479   0.00000  Uiso   1.00
C517   C     0.18151   0.93122   0.24850   0.00000  Uiso   1.00
C518   C     0.20385   0.86721   0.40543   0.00000  Uiso   1.00
C519   C     0.16678   0.83365   0.11581   0.00000  Uiso   1.00
C520   C     0.16655   0.83302   0.38418   0.00000  Uiso   1.00
C521   C     0.20551   0.86626   0.09155   0.00000  Uiso   1.00
C522   C     0.12783   0.80041   0.40845   0.00000  Uiso   1.00
C523   C     0.20790   0.86376   0.04489   0.00000  Uiso   1.00
C524   C     0.12544   0.80291   0.45511   0.00000  Uiso   1.00
C525   C     0.16670   0.83308   0.02332   0.00000  Uiso   1.00
C526   C     0.16664   0.83359   0.47668   0.00000  Uiso   1.00
C527   C     0.12554   0.80208   0.04840   0.00000  Uiso   1.00
C528   C     0.15182   0.73545   0.25150   0.00000  Uiso   1.00
C529   C     0.20779   0.86458   0.45160   0.00000  Uiso   1.00
C530   C     0.25023   0.89218   0.01977   0.00000  Uiso   1.00
C531   C     0.08311   0.77449   0.48022   0.00000  Uiso   1.00
C532   C     0.12913   0.71942   0.12010   0.00000  Uiso   1.00
C533   C     0.20420   0.94725   0.37990   0.00000  Uiso   1.00
C534   C     0.21867   0.94860   0.11628   0.00000  Uiso   1.00
C535   C     0.11468   0.71806   0.38372   0.00000  Uiso   1.00
C536   C     0.01217   0.89331   0.44805   0.00000  Uiso   1.00
C537   C     0.32119   0.77341   0.05199   0.00000  Uiso   1.00
C538   C     0.27981   0.99972   0.21622   0.00000  Uiso   1.00
C539   C     0.25151   0.89187   0.47326   0.00000  Uiso   1.00
C540   C     0.05353   0.66695   0.28378   0.00000  Uiso   1.00
C541   C     0.31574   0.77658   0.17233   0.00000  Uiso   1.00
C542   C     0.01759   0.89009   0.32767   0.00000  Uiso   1.00
C543   C     0.08183   0.77480   0.02674   0.00000  Uiso   1.00
C544   C     0.18973   0.98531   0.24961   0.00000  Uiso   1.00
C545   C     0.14360   0.68135   0.25039   0.00000  Uiso   1.00
C546   C     0.16672   0.83279   0.33635   0.00000  Uiso   1.00
C547   C     0.16662   0.83388   0.16365   0.00000  Uiso   1.00
C548   C     0.12949   0.79945   0.09457   0.00000  Uiso   1.00
H549   H     0.28282   0.91485   0.03605   0.00000  Uiso   1.00
H550   H     0.25440   0.97767   0.11691   0.00000  Uiso   1.00
H551   H     0.19001   0.95276   0.14752   0.00000  Uiso   1.00
H552   H     0.07894   0.68899   0.38309   0.00000  Uiso   1.00
H553   H     0.13843   0.70949   0.41299   0.00000  Uiso   1.00
H554   H     0.14333   0.71391   0.35247   0.00000  Uiso   1.00
H555   H     0.00642   0.85378   0.43368   0.00000  Uiso   1.00
H556   H     0.02826   0.89248   0.48186   0.00000  Uiso   1.00
H557   H     0.04549   0.91364   0.42608   0.00000  Uiso   1.00
H558   H     0.30514   0.77437   0.01817   0.00000  Uiso   1.00
H559   H     0.32696   0.81289   0.06646   0.00000  Uiso   1.00
H560   H     0.05051   0.75182   0.46394   0.00000  Uiso   1.00
H561   H     0.28783   0.75303   0.07389   0.00000  Uiso   1.00
H562   H     0.25854   0.67730   0.18669   0.00000  Uiso   1.00
H563   H     0.29525   0.96062   0.21093   0.00000  Uiso   1.00
H564   H     0.31840   0.69162   0.21871   0.00000  Uiso   1.00
H565   H     0.03809   0.70604   0.28907   0.00000  Uiso   1.00
H566   H     0.07480   0.98936   0.31332   0.00000  Uiso   1.00
H567   H     0.01494   0.97504   0.28129   0.00000  Uiso   1.00
H568   H     0.31653   0.81120   0.15216   0.00000  Uiso   1.00
H569   H     0.27214   0.76123   0.18137   0.00000  Uiso   1.00
H570   H     0.00261   0.74581   0.15136   0.00000  Uiso   1.00
H571   H     0.16951   0.72753   0.13651   0.00000  Uiso   1.00
H572   H     0.06119   0.90543   0.31863   0.00000  Uiso   1.00
H573   H     0.01680   0.85547   0.34785   0.00000  Uiso   1.00
H574   H     0.33072   0.92085   0.34864   0.00000  Uiso   1.00
H575   H     0.13846   0.70262   0.08569   0.00000  Uiso   1.00
H576   H     0.10329   0.69051   0.14000   0.00000  Uiso   1.00
H577   H     0.16382   0.93914   0.36348   0.00000  Uiso   1.00
H578   H     0.23004   0.97617   0.36000   0.00000  Uiso   1.00
H579   H     0.19487   0.96404   0.41431   0.00000  Uiso   1.00
H580   H     0.19492   0.95719   0.08700   0.00000  Uiso   1.00
N581   N     0.31678   0.81932   0.23783   0.00000  Uiso   1.00
N582   N     0.01656   0.84735   0.26217   0.00000  Uiso   1.00
O583   O     0.12975   0.91286   0.25299   0.00000  Uiso   1.00
O584   O     0.23593   0.90320   0.38062   0.00000  Uiso   1.00
O585   O     0.24178   0.89987   0.11361   0.00000  Uiso   1.00
O586   O     0.09156   0.76679   0.38639   0.00000  Uiso   1.00
O587   O     0.29453   0.91970   0.44934   0.00000  Uiso   1.00
O588   O     0.03880   0.74697   0.05065   0.00000  Uiso   1.00
O589   O     0.24425   0.67220   0.25638   0.00000  Uiso   1.00
O590   O     0.08908   0.99447   0.24362   0.00000  Uiso   1.00
O591   O     0.01266   0.78627   0.21025   0.00000  Uiso   1.00
O592   O     0.32067   0.88040   0.28975   0.00000  Uiso   1.00
O593   O     0.20358   0.75381   0.24702   0.00000  Uiso   1.00
O594   O     0.22613   0.90387   0.24518   0.00000  Uiso   1.00
O595   O     0.10720   0.76279   0.25482   0.00000  Uiso   1.00
O596   O     0.11847   0.83784   0.31998   0.00000  Uiso   1.00
O597   O     0.21486   0.82883   0.18002   0.00000  Uiso   1.00
O598   O     0.21485   0.82885   0.31218   0.00000  Uiso   1.00
O599   O     0.11848   0.83781   0.18783   0.00000  Uiso   1.00
O600   O     0.09740   0.76347   0.11937   0.00000  Uiso   1.00
Zn601  Zn    0.10231   0.83933   0.25521   0.00000  Uiso   1.00
Zn602  Zn    0.23102   0.82734   0.24479   0.00000  Uiso   1.00
C603   C     0.51484   0.93122   0.24850   0.00000  Uiso   1.00
C604   C     0.53718   0.86721   0.40543   0.00000  Uiso   1.00
C605   C     0.50012   0.83365   0.11581   0.00000  Uiso   1.00
C606   C     0.49989   0.83302   0.38418   0.00000  Uiso   1.00
C607   C     0.53884   0.86626   0.09155   0.00000  Uiso   1.00
C608   C     0.46116   0.80041   0.40845   0.00000  Uiso   1.00
C609   C     0.54123   0.86376   0.04489   0.00000  Uiso   1.00
C610   C     0.45878   0.80291   0.45511   0.00000  Uiso   1.00
C611   C     0.50003   0.83308   0.02332   0.00000  Uiso   1.00
C612   C     0.49997   0.83359   0.47668   0.00000  Uiso   1.00
C613   C     0.45888   0.80208   0.04840   0.00000  Uiso   1.00
C614   C     0.48516   0.73545   0.25150   0.00000  Uiso   1.00
C615   C     0.54112   0.86458   0.45160   0.00000  Uiso   1.00
C616   C     0.58356   0.89218   0.01977   0.00000  Uiso   1.00
C617   C     0.41644   0.77449   0.48022   0.00000  Uiso   1.00
C618   C     0.46246   0.71942   0.12010   0.00000  Uiso   1.00
C619   C     0.53753   0.94725   0.37990   0.00000  Uiso   1.00
C620   C     0.55200   0.94860   0.11628   0.00000  Uiso   1.00
C621   C     0.44801   0.71806   0.38372   0.00000  Uiso   1.00
C622   C     0.34550   0.89331   0.44805   0.00000  Uiso   1.00
C623   C     0.65452   0.77341   0.05199   0.00000  Uiso   1.00
C624   C     0.61314   0.99972   0.21622   0.00000  Uiso   1.00
C625   C     0.58484   0.89187   0.47326   0.00000  Uiso   1.00
C626   C     0.38686   0.66695   0.28378   0.00000  Uiso   1.00
C627   C     0.64907   0.77658   0.17233   0.00000  Uiso   1.00
C628   C     0.35092   0.89009   0.32767   0.00000  Uiso   1.00
C629   C     0.41516   0.77480   0.02674   0.00000  Uiso   1.00
C630   C     0.52306   0.98531   0.24961   0.00000  Uiso   1.00
C631   C     0.47694   0.68135   0.25039   0.00000  Uiso   1.00
C632   C     0.50005   0.83279   0.33635   0.00000  Uiso   1.00
C633   C     0.49995   0.83388   0.16365   0.00000  Uiso   1.00
C634   C     0.46282   0.79945   0.09457   0.00000  Uiso   1.00
H635   H     0.61616   0.91485   0.03605   0.00000  Uiso   1.00
H636   H     0.58773   0.97767   0.11691   0.00000  Uiso   1.00
H637   H     0.52334   0.95276   0.14752   0.00000  Uiso   1.00
H638   H     0.41228   0.68899   0.38309   0.00000  Uiso   1.00
H639   H     0.47176   0.70949   0.41299   0.00000  Uiso   1.00
H640   H     0.47666   0.71391   0.35247   0.00000  Uiso   1.00
H641   H     0.33975   0.85378   0.43368   0.00000  Uiso   1.00
H642   H     0.36159   0.89248   0.48186   0.00000  Uiso   1.00
H643   H     0.37882   0.91364   0.42608   0.00000  Uiso   1.00
H644   H     0.63847   0.77437   0.01817   0.00000  Uiso   1.00
H645   H     0.66030   0.81289   0.06646   0.00000  Uiso   1.00
H646   H     0.38385   0.75182   0.46394   0.00000  Uiso   1.00
H647   H     0.62117   0.75303   0.07389   0.00000  Uiso   1.00
H648   H     0.59187   0.67730   0.18669   0.00000  Uiso   1.00
H649   H     0.62858   0.96062   0.21093   0.00000  Uiso   1.00
H650   H     0.65173   0.69162   0.21871   0.00000  Uiso   1.00
H651   H     0.37142   0.70604   0.28907   0.00000  Uiso   1.00
H652   H     0.40813   0.98936   0.31332   0.00000  Uiso   1.00
H653   H     0.34827   0.97504   0.28129   0.00000  Uiso   1.00
H654   H     0.64986   0.81120   0.15216   0.00000  Uiso   1.00
H655   H     0.60547   0.76123   0.18137   0.00000  Uiso   1.00
H656   H     0.33594   0.74581   0.15136   0.00000  Uiso   1.00
H657   H     0.50284   0.72753   0.13651   0.00000  Uiso   1.00
H658   H     0.39453   0.90543   0.31863   0.00000  Uiso   1.00
H659   H     0.35014   0.85547   0.34785   0.00000  Uiso   1.00
H660   H     0.66406   0.92085   0.34864   0.00000  Uiso   1.00
H661   H     0.47179   0.70262   0.08569   0.00000  Uiso   1.00
H662   H     0.43662   0.69051   0.14000   0.00000  Uiso   1.00
H663   H     0.49715   0.93914   0.36348   0.00000  Uiso   1.00
H664   H     0.56338   0.97617   0.36000   0.00000  Uiso   1.00
H665   H     0.52820   0.96404   0.41431   0.00000  Uiso   1.00
H666   H     0.52826   0.95719   0.08700   0.00000  Uiso   1.00
N667   N     0.65011   0.81932   0.23783   0.00000  Uiso   1.00
N668   N     0.34989   0.84735   0.26217   0.00000  Uiso   1.00
O669   O     0.46308   0.91286   0.25299   0.00000  Uiso   1.00
O670   O     0.56927   0.90320   0.38062   0.00000  Uiso   1.00
O671   O     0.57511   0.89987   0.11361   0.00000  Uiso   1.00
O672   O     0.42489   0.76679   0.38639   0.00000  Uiso   1.00
O673   O     0.62787   0.91970   0.44934   0.00000  Uiso   1.00
O674   O     0.37213   0.74697   0.05065   0.00000  Uiso   1.00
O675   O     0.57759   0.67220   0.25638   0.00000  Uiso   1.00
O676   O     0.42241   0.99447   0.24362   0.00000  Uiso   1.00
O677   O     0.34600   0.78627   0.21025   0.00000  Uiso   1.00
O678   O     0.65400   0.88040   0.28975   0.00000  Uiso   1.00
O679   O     0.53692   0.75381   0.24702   0.00000  Uiso   1.00
O680   O     0.55946   0.90387   0.24518   0.00000  Uiso   1.00
O681   O     0.44054   0.76279   0.25482   0.00000  Uiso   1.00
O682   O     0.45181   0.83784   0.31998   0.00000  Uiso   1.00
O683   O     0.54819   0.82883   0.18002   0.00000  Uiso   1.00
O684   O     0.54819   0.82885   0.31218   0.00000  Uiso   1.00
O685   O     0.45181   0.83781   0.18783   0.00000  Uiso   1.00
O686   O     0.43073   0.76347   0.11937   0.00000  Uiso   1.00
Zn687  Zn    0.43565   0.83933   0.25521   0.00000  Uiso   1.00
Zn688  Zn    0.56435   0.82734   0.24479   0.00000  Uiso   1.00
C689   C     0.84818   0.93122   0.24850   0.00000  Uiso   1.00
C690   C     0.87051   0.86721   0.40543   0.00000  Uiso   1.00
C691   C     0.83345   0.83365   0.11581   0.00000  Uiso   1.00
C692   C     0.83322   0.83302   0.38418   0.00000  Uiso   1.00
C693   C     0.87217   0.86626   0.09155   0.00000  Uiso   1.00
C694   C     0.79450   0.80041   0.40845   0.00000  Uiso   1.00
C695   C     0.87456   0.86376   0.04489   0.00000  Uiso   1.00
C696   C     0.79211   0.80291   0.45511   0.00000  Uiso   1.00
C697   C     0.83337   0.83308   0.02332   0.00000  Uiso   1.00
C698   C     0.83330   0.83359   0.47668   0.00000  Uiso   1.00
C699   C     0.79221   0.80208   0.04840   0.00000  Uiso   1.00
C700   C     0.81849   0.73545   0.25150   0.00000  Uiso   1.00
C701   C     0.87446   0.86458   0.45160   0.00000  Uiso   1.00
C702   C     0.91690   0.89218   0.01977   0.00000  Uiso   1.00
C703   C     0.74977   0.77449   0.48022   0.00000  Uiso   1.00
C704   C     0.79580   0.71942   0.12010   0.00000  Uiso   1.00
C705   C     0.87087   0.94725   0.37990   0.00000  Uiso   1.00
C706   C     0.88533   0.94860   0.11628   0.00000  Uiso   1.00
C707   C     0.78134   0.71806   0.38372   0.00000  Uiso   1.00
C708   C     0.67884   0.89331   0.44805   0.00000  Uiso   1.00
C709   C     0.98785   0.77341   0.05199   0.00000  Uiso   1.00
C710   C     0.94647   0.99972   0.21622   0.00000  Uiso   1.00
C711   C     0.91818   0.89187   0.47326   0.00000  Uiso   1.00
C712   C     0.72019   0.66695   0.28378   0.00000  Uiso   1.00
C713   C     0.98241   0.77658   0.17233   0.00000  Uiso   1.00
C714   C     0.68426   0.89009   0.32767   0.00000  Uiso   1.00
C715   C     0.74849   0.77480   0.02674   0.00000  Uiso   1.00
C716   C     0.85639   0.98531   0.24961   0.00000  Uiso   1.00
C717   C     0.81027   0.68135   0.25039   0.00000  Uiso   1.00
C718   C     0.83338   0.83279   0.33635   0.00000  Uiso   1.00
C719   C     0.83328   0.83388   0.16365   0.00000  Uiso   1.00
C720   C     0.79615   0.79945   0.09457   0.00000  Uiso   1.00
H721   H     0.94949   0.91485   0.03605   0.00000  Uiso   1.00
H722   H     0.92107   0.97767   0.11691   0.00000  Uiso   1.00
H723   H     0.85668   0.95276   0.14752   0.00000  Uiso   1.00
H724   H     0.74561   0.68899   0.38309   0.00000  Uiso   1.00
H725   H     0.80509   0.70949   0.41299   0.00000  Uiso   1.00
H726   H     0.80999   0.71391   0.35247   0.00000  Uiso   1.00
H727   H     0.67309   0.85378   0.43368   0.00000  Uiso   1.00
H728   H     0.69492   0.89248   0.48186   0.00000  Uiso   1.00
H729   H     0.71215   0.91364   0.42608   0.00000  Uiso   1.00
H730   H     0.97180   0.77437   0.01817   0.00000  Uiso   1.00
H731   H     0.99363   0.81289   0.06646   0.00000  Uiso   1.00
H732   H     0.71718   0.75182   0.46394   0.00000  Uiso   1.00
H733   H     0.95450   0.75303   0.07389   0.00000  Uiso   1.00
H734   H     0.92520   0.67730   0.18669   0.00000  Uiso   1.00
H735   H     0.96192   0.96062   0.21093   0.00000  Uiso   1.00
H736   H     0.98506   0.69162   0.21871   0.00000  Uiso   1.00
H737   H     0.70475   0.70604   0.28907   0.00000  Uiso   1.00
H738   H     0.74147   0.98936   0.31332   0.00000  Uiso   1.00
H739   H     0.68160   0.97504   0.28129   0.00000  Uiso   1.00
H740   H     0.98319   0.81120   0.15216   0.00000  Uiso   1.00
H741   H     0.93881   0.76123   0.18137   0.00000  Uiso   1.00
H742   H     0.66928   0.74581   0.15136   0.00000  Uiso   1.00
H743   H     0.83618   0.72753   0.13651   0.00000  Uiso   1.00
H744   H     0.72786   0.90543   0.31863   0.00000  Uiso   1.00
H745   H     0.68347   0.85547   0.34785   0.00000  Uiso   1.00
H746   H     0.99739   0.92085   0.34864   0.00000  Uiso   1.00
H747   H     0.80513   0.70262   0.08569   0.00000  Uiso   1.00
H748   H     0.76995   0.69051   0.14000   0.00000  Uiso   1.00
H749   H     0.83049   0.93914   0.36348   0.00000  Uiso   1.00
H750   H     0.89671   0.97617   0.36000   0.00000  Uiso   1.00
H751   H     0.86153   0.96404   0.41431   0.00000  Uiso   1.00
H752   H     0.86159   0.95719   0.08700   0.00000  Uiso   1.00
N753   N     0.98344   0.81932   0.23783   0.00000  Uiso   1.00
N754   N     0.68322   0.84735   0.26217   0.00000  Uiso   1.00
O755   O     0.79642   0.91286   0.25299   0.00000  Uiso   1.00
O756   O     0.90260   0.90320   0.38062   0.00000  Uiso   1.00
O757   O     0.90845   0.89987   0.11361   0.00000  Uiso   1.00
O758   O     0.75822   0.76679   0.38639   0.00000  Uiso   1.00
O759   O     0.96120   0.91970   0.44934   0.00000  Uiso   1.00
O760   O     0.70546   0.74697   0.05065   0.00000  Uiso   1.00
O761   O     0.91092   0.67220   0.25638   0.00000  Uiso   1.00
O762   O     0.75575   0.99447   0.24362   0.00000  Uiso   1.00
O763   O     0.67933   0.78627   0.21025   0.00000  Uiso   1.00
O764   O     0.98734   0.88040   0.28975   0.00000  Uiso   1.00
O765   O     0.87025   0.75381   0.24702   0.00000  Uiso   1.00
O766   O     0.89280   0.90387   0.24518   0.00000  Uiso   1.00
O767   O     0.77387   0.76279   0.25482   0.00000  Uiso   1.00
O768   O     0.78514   0.83784   0.31998   0.00000  Uiso   1.00
O769   O     0.88153   0.82883   0.18002   0.00000  Uiso   1.00
O770   O     0.88152   0.82885   0.31218   0.00000  Uiso   1.00
O771   O     0.78515   0.83781   0.18783   0.00000  Uiso   1.00
O772   O     0.76406   0.76347   0.11937   0.00000  Uiso   1.00
Zn773  Zn    0.76898   0.83933   0.25521   0.00000  Uiso   1.00
Zn774  Zn    0.89769   0.82734   0.24479   0.00000  Uiso   1.00
C775   C     0.18151   0.26455   0.74850   0.00000  Uiso   1.00
C776   C     0.20385   0.20055   0.90543   0.00000  Uiso   1.00
C777   C     0.16678   0.16698   0.61581   0.00000  Uiso   1.00
C778   C     0.16655   0.16636   0.88418   0.00000  Uiso   1.00
C779   C     0.20551   0.19959   0.59155   0.00000  Uiso   1.00
C780   C     0.12783   0.13374   0.90845   0.00000  Uiso   1.00
C781   C     0.20790   0.19709   0.54489   0.00000  Uiso   1.00
C782   C     0.12544   0.13624   0.95511   0.00000  Uiso   1.00
C783   C     0.16670   0.16642   0.52332   0.00000  Uiso   1.00
C784   C     0.16664   0.16692   0.97668   0.00000  Uiso   1.00
C785   C     0.12554   0.13542   0.54840   0.00000  Uiso   1.00
C786   C     0.15182   0.06878   0.75150   0.00000  Uiso   1.00
C787   C     0.20779   0.19792   0.95160   0.00000  Uiso   1.00
C788   C     0.25023   0.22551   0.51977   0.00000  Uiso   1.00
C789   C     0.08311   0.10782   0.98022   0.00000  Uiso   1.00
C790   C     0.12913   0.05275   0.62010   0.00000  Uiso   1.00
C791   C     0.20420   0.28058   0.87990   0.00000  Uiso   1.00
C792   C     0.21867   0.28194   0.61628   0.00000  Uiso   1.00
C793   C     0.11468   0.05140   0.88372   0.00000  Uiso   1.00
C794   C     0.01217   0.22664   0.94805   0.00000  Uiso   1.00
C795   C     0.32119   0.10674   0.55199   0.00000  Uiso   1.00
C796   C     0.27981   0.33305   0.71622   0.00000  Uiso   1.00
C797   C     0.25151   0.22520   0.97326   0.00000  Uiso   1.00
C798   C     0.05353   0.00028   0.78378   0.00000  Uiso   1.00
C799   C     0.31574   0.10991   0.67233   0.00000  Uiso   1.00
C800   C     0.01759   0.22342   0.82767   0.00000  Uiso   1.00
C801   C     0.08183   0.10813   0.52674   0.00000  Uiso   1.00
C802   C     0.18973   0.31865   0.74961   0.00000  Uiso   1.00
C803   C     0.14360   0.01469   0.75039   0.00000  Uiso   1.00
C804   C     0.16672   0.16612   0.83635   0.00000  Uiso   1.00
C805   C     0.16662   0.16721   0.66365   0.00000  Uiso   1.00
C806   C     0.12949   0.13279   0.59457   0.00000  Uiso   1.00
H807   H     0.28282   0.24818   0.53605   0.00000  Uiso   1.00
H808   H     0.25440   0.31101   0.61691   0.00000  Uiso   1.00
H809   H     0.19001   0.28609   0.64752   0.00000  Uiso   1.00
H810   H     0.07894   0.02232   0.88309   0.00000  Uiso   1.00
H811   H     0.13843   0.04282   0.91299   0.00000  Uiso   1.00
H812   H     0.14333   0.04725   0.85247   0.00000  Uiso   1.00
H813   H     0.00642   0.18711   0.93368   0.00000  Uiso   1.00
H814   H     0.02826   0.22581   0.98186   0.00000  Uiso   1.00
H815   H     0.04549   0.24697   0.92608   0.00000  Uiso   1.00
H816   H     0.30514   0.10770   0.51817   0.00000  Uiso   1.00
H817   H     0.32696   0.14622   0.56646   0.00000  Uiso   1.00
H818   H     0.05051   0.08515   0.96394   0.00000  Uiso   1.00
H819   H     0.28783   0.08636   0.57389   0.00000  Uiso   1.00
H820   H     0.25854   0.01063   0.68669   0.00000  Uiso   1.00
H821   H     0.29525   0.29396   0.71093   0.00000  Uiso   1.00
H822   H     0.31840   0.02496   0.71871   0.00000  Uiso   1.00
H823   H     0.03809   0.03938   0.78907   0.00000  Uiso   1.00
H824   H     0.07480   0.32270   0.81332   0.00000  Uiso   1.00
H825   H     0.01494   0.30838   0.78129   0.00000  Uiso   1.00
H826   H     0.31653   0.14454   0.65216   0.00000  Uiso   1.00
H827   H     0.27214   0.09457   0.68137   0.00000  Uiso   1.00
H828   H     0.00261   0.07915   0.65136   0.00000  Uiso   1.00
H829   H     0.16951   0.06086   0.63651   0.00000  Uiso   1.00
H830   H     0.06119   0.23877   0.81863   0.00000  Uiso   1.00
H831   H     0.01680   0.18880   0.84785   0.00000  Uiso   1.00
H832   H     0.33072   0.25419   0.84864   0.00000  Uiso   1.00
H833   H     0.13846   0.03596   0.58569   0.00000  Uiso   1.00
H834   H     0.10329   0.02384   0.64000   0.00000  Uiso   1.00
H835   H     0.16382   0.27247   0.86348   0.00000  Uiso   1.00
H836   H     0.23004   0.30950   0.86000   0.00000  Uiso   1.00
H837   H     0.19487   0.29738   0.91431   0.00000  Uiso   1.00
H838   H     0.19492   0.29052   0.58700   0.00000  Uiso   1.00
N839   N     0.31678   0.15265   0.73783   0.00000  Uiso   1.00
N840   N     0.01656   0.18068   0.76217   0.00000  Uiso   1.00
O841   O     0.12975   0.24619   0.75299   0.00000  Uiso   1.00
O842   O     0.23593   0.23654   0.88062   0.00000  Uiso   1.00
O843   O     0.24178   0.23321   0.61361   0.00000  Uiso   1.00
O844   O     0.09156   0.10013   0.88639   0.00000  Uiso   1.00
O845   O     0.29453   0.25304   0.94934   0.00000  Uiso   1.00
O846   O     0.03880   0.08030   0.55065   0.00000  Uiso   1.00
O847   O     0.24425   0.00553   0.75638   0.00000  Uiso   1.00
O848   O     0.08908   0.32780   0.74362   0.00000  Uiso   1.00
O849   O     0.01266   0.11960   0.71025   0.00000  Uiso   1.00
O850   O     0.32067   0.21373   0.78975   0.00000  Uiso   1.00
O851   O     0.20358   0.08714   0.74702   0.00000  Uiso   1.00
O852   O     0.22613   0.23721   0.74518   0.00000  Uiso   1.00
O853   O     0.10720   0.09613   0.75482   0.00000  Uiso   1.00
O854   O     0.11847   0.17117   0.81998   0.00000  Uiso   1.00
O855   O     0.21486   0.16216   0.68002   0.00000  Uiso   1.00
O856   O     0.21485   0.16219   0.81218   0.00000  Uiso   1.00
O857   O     0.11848   0.17115   0.68783   0.00000  Uiso   1.00
O858   O     0.09740   0.09680   0.61937   0.00000  Uiso   1.00
Zn859  Zn    0.10231   0.17266   0.75521   0.00000  Uiso   1.00
Zn860  Zn    0.23102   0.16067   0.74479   0.00000  Uiso   1.00
C861   C     0.51484   0.26455   0.74850   0.00000  Uiso   1.00
C862   C     0.53718   0.20055   0.90543   0.00000  Uiso   1.00
C863   C     0.50012   0.16698   0.61581   0.00000  Uiso   1.00
C864   C     0.49989   0.16636   0.88418   0.00000  Uiso   1.00
C865   C     0.53884   0.19959   0.59155   0.00000  Uiso   1.00
C866   C     0.46116   0.13374   0.90845   0.00000  Uiso   1.00
C867   C     0.54123   0.19709   0.54489   0.00000  Uiso   1.00
C868   C     0.45878   0.13624   0.95511   0.00000  Uiso   1.00
C869   C     0.50003   0.16642   0.52332   0.00000  Uiso   1.00
C870   C     0.49997   0.16692   0.97668   0.00000  Uiso   1.00
C871   C     0.45888   0.13542   0.54840   0.00000  Uiso   1.00
C872   C     0.48516   0.06878   0.75150   0.00000  Uiso   1.00
C873   C     0.54112   0.19792   0.95160   0.00000  Uiso   1.00
C874   C     0.58356   0.22551   0.51977   0.00000  Uiso   1.00
C875   C     0.41644   0.10782   0.98022   0.00000  Uiso   1.00
C876   C     0.46246   0.05275   0.62010   0.00000  Uiso   1.00
C877   C     0.53753   0.28058   0.87990   0.00000  Uiso   1.00
C878   C     0.55200   0.28194   0.61628   0.00000  Uiso   1.00
C879   C     0.44801   0.05140   0.88372   0.00000  Uiso   1.00
C880   C     0.34550   0.22664   0.94805   0.00000  Uiso   1.00
C881   C     0.65452   0.10674   0.55199   0.00000  Uiso   1.00
C882   C     0.61314   0.33305   0.71622   0.00000  Uiso   1.00
C883   C     0.58484   0.22520   0.97326   0.00000  Uiso   1.00
C884   C     0.38686   0.00028   0.78378   0.00000  Uiso   1.00
C885   C     0.64907   0.10991   0.67233   0.00000  Uiso   1.00
C886   C     0.35092   0.22342   0.82767   0.00000  Uiso   1.00
C887   C     0.41516   0.10813   0.52674   0.00000  Uiso   1.00
C888   C     0.52306   0.31865   0.74961   0.00000  Uiso   1.00
C889   C     0.47694   0.01469   0.75039   0.00000  Uiso   1.00
C890   C     0.50005   0.16612   0.83635   0.00000  Uiso   1.00
C891   C     0.49995   0.16721   0.66365   0.00000  Uiso   1.00
C892   C     0.46282   0.13279   0.59457   0.00000  Uiso   1.00
H893   H     0.61616   0.24818   0.53605   0.00000  Uiso   1.00
H894   H     0.58773   0.31101   0.61691   0.00000  Uiso   1.00
H895   H     0.52334   0.28609   0.64752   0.00000  Uiso   1.00
H896   H     0.41228   0.02232   0.88309   0.00000  Uiso   1.00
H897   H     0.47176   0.04282   0.91299   0.00000  Uiso   1.00
H898   H     0.47666   0.04725   0.85247   0.00000  Uiso   1.00
H899   H     0.33975   0.18711   0.93368   0.00000  Uiso   1.00
H900   H     0.36159   0.22581   0.98186   0.00000  Uiso   1.00
H901   H     0.37882   0.24697   0.92608   0.00000  Uiso   1.00
H902   H     0.63847   0.10770   0.51817   0.00000  Uiso   1.00
H903   H     0.66030   0.14622   0.56646   0.00000  Uiso   1.00
H904   H     0.38385   0.08515   0.96394   0.00000  Uiso   1.00
H905   H     0.62117   0.08636   0.57389   0.00000  Uiso   1.00
H906   H     0.59187   0.01063   0.68669   0.00000  Uiso   1.00
H907   H     0.62858   0.29396   0.71093   0.00000  Uiso   1.00
H908   H     0.65173   0.02496   0.71871   0.00000  Uiso   1.00
H909   H     0.37142   0.03938   0.78907   0.00000  Uiso   1.00
H910   H     0.40813   0.32270   0.81332   0.00000  Uiso   1.00
H911   H     0.34827   0.30838   0.78129   0.00000  Uiso   1.00
H912   H     0.64986   0.14454   0.65216   0.00000  Uiso   1.00
H913   H     0.60547   0.09457   0.68137   0.00000  Uiso   1.00
H914   H     0.33594   0.07915   0.65136   0.00000  Uiso   1.00
H915   H     0.50284   0.06086   0.63651   0.00000  Uiso   1.00
H916   H     0.39453   0.23877   0.81863   0.00000  Uiso   1.00
H917   H     0.35014   0.18880   0.84785   0.00000  Uiso   1.00
H918   H     0.66406   0.25419   0.84864   0.00000  Uiso   1.00
H919   H     0.47179   0.03596   0.58569   0.00000  Uiso   1.00
H920   H     0.43662   0.02384   0.64000   0.00000  Uiso   1.00
H921   H     0.49715   0.27247   0.86348   0.00000  Uiso   1.00
H922   H     0.56338   0.30950   0.86000   0.00000  Uiso   1.00
H923   H     0.52820   0.29738   0.91431   0.00000  Uiso   1.00
H924   H     0.52826   0.29052   0.58700   0.00000  Uiso   1.00
N925   N     0.65011   0.15265   0.73783   0.00000  Uiso   1.00
N926   N     0.34989   0.18068   0.76217   0.00000  Uiso   1.00
O927   O     0.46308   0.24619   0.75299   0.00000  Uiso   1.00
O928   O     0.56927   0.23654   0.88062   0.00000  Uiso   1.00
O929   O     0.57511   0.23321   0.61361   0.00000  Uiso   1.00
O930   O     0.42489   0.10013   0.88639   0.00000  Uiso   1.00
O931   O     0.62787   0.25304   0.94934   0.00000  Uiso   1.00
O932   O     0.37213   0.08030   0.55065   0.00000  Uiso   1.00
O933   O     0.57759   0.00553   0.75638   0.00000  Uiso   1.00
O934   O     0.42241   0.32780   0.74362   0.00000  Uiso   1.00
O935   O     0.34600   0.11960   0.71025   0.00000  Uiso   1.00
O936   O     0.65400   0.21373   0.78975   0.00000  Uiso   1.00
O937   O     0.53692   0.08714   0.74702   0.00000  Uiso   1.00
O938   O     0.55946   0.23721   0.74518   0.00000  Uiso   1.00
O939   O     0.44054   0.09613   0.75482   0.00000  Uiso   1.00
O940   O     0.45181   0.17117   0.81998   0.00000  Uiso   1.00
O941   O     0.54819   0.16216   0.68002   0.00000  Uiso   1.00
O942   O     0.54819   0.16219   0.81218   0.00000  Uiso   1.00
O943   O     0.45181   0.17115   0.68783   0.00000  Uiso   1.00
O944   O     0.43073   0.09680   0.61937   0.00000  Uiso   1.00
Zn945  Zn    0.43565   0.17266   0.75521   0.00000  Uiso   1.00
Zn946  Zn    0.56435   0.16067   0.74479   0.00000  Uiso   1.00
C947   C     0.84818   0.26455   0.74850   0.00000  Uiso   1.00
C948   C     0.87051   0.20055   0.90543   0.00000  Uiso   1.00
C949   C     0.83345   0.16698   0.61581   0.00000  Uiso   1.00
C950   C     0.83322   0.16636   0.88418   0.00000  Uiso   1.00
C951   C     0.87217   0.19959   0.59155   0.00000  Uiso   1.00
C952   C     0.79450   0.13374   0.90845   0.00000  Uiso   1.00
C953   C     0.87456   0.19709   0.54489   0.00000  Uiso   1.00
C954   C     0.79211   0.13624   0.95511   0.00000  Uiso   1.00
C955   C     0.83337   0.16642   0.52332   0.00000  Uiso   1.00
C956   C     0.83330   0.16692   0.97668   0.00000  Uiso   1.00
C957   C     0.79221   0.13542   0.54840   0.00000  Uiso   1.00
C958   C     0.81849   0.06878   0.75150   0.00000  Uiso   1.00
C959   C     0.87446   0.19792   0.95160   0.00000  Uiso   1.00
C960   C     0.91690   0.22551   0.51977   0.00000  Uiso   1.00
C961   C     0.74977   0.10782   0.98022   0.00000  Uiso   1.00
C962   C     0.79580   0.05275   0.62010   0.00000  Uiso   1.00
C963   C     0.87087   0.28058   0.87990   0.00000  Uiso   1.00
C964   C     0.88533   0.28194   0.61628   0.00000  Uiso   1.00
C965   C     0.78134   0.05140   0.88372   0.00000  Uiso   1.00
C966   C     0.67884   0.22664   0.94805   0.00000  Uiso   1.00
C967   C     0.98785   0.10674   0.55199   0.00000  Uiso   1.00
C968   C     0.94647   0.33305   0.71622   0.00000  Uiso   1.00
C969   C     0.91818   0.22520   0.97326   0.00000  Uiso   1.00
C970   C     0.72019   0.00028   0.78378   0.00000  Uiso   1.00
C971   C     0.98241   0.10991   0.67233   0.00000  Uiso   1.00
C972   C     0.68426   0.22342   0.82767   0.00000  Uiso   1.00
C973   C     0.74849   0.10813   0.52674   0.00000  Uiso   1.00
C974   C     0.85639   0.31865   0.74961   0.00000  Uiso   1.00
C975   C     0.81027   0.01469   0.75039   0.00000  Uiso   1.00
C976   C     0.83338   0.16612   0.83635   0.00000  Uiso   1.00
C977   C     0.83328   0.16721   0.66365   0.00000  Uiso   1.00
C978   C     0.79615   0.13279   0.59457   0.00000  Uiso   1.00
H979   H     0.94949   0.24818   0.53605   0.00000  Uiso   1.00
H980   H     0.92107   0.31101   0.61691   0.00000  Uiso   1.00
H981   H     0.85668   0.28609   0.64752   0.00000  Uiso   1.00
H982   H     0.74561   0.02232   0.88309   0.00000  Uiso   1.00
H983   H     0.80509   0.04282   0.91299   0.00000  Uiso   1.00
H984   H     0.80999   0.04725   0.85247   0.00000  Uiso   1.00
H985   H     0.67309   0.18711   0.93368   0.00000  Uiso   1.00
H986   H     0.69492   0.22581   0.98186   0.00000  Uiso   1.00
H987   H     0.71215   0.24697   0.92608   0.00000  Uiso   1.00
H988   H     0.97180   0.10770   0.51817   0.00000  Uiso   1.00
H989   H     0.99363   0.14622   0.56646   0.00000  Uiso   1.00
H990   H     0.71718   0.08515   0.96394   0.00000  Uiso   1.00
H991   H     0.95450   0.08636   0.57389   0.00000  Uiso   1.00
H992   H     0.92520   0.01063   0.68669   0.00000  Uiso   1.00
H993   H     0.96192   0.29396   0.71093   0.00000  Uiso   1.00
H994   H     0.98506   0.02496   0.71871   0.00000  Uiso   1.00
H995   H     0.70475   0.03938   0.78907   0.00000  Uiso   1.00
H996   H     0.74147   0.32270   0.81332   0.00000  Uiso   1.00
H997   H     0.68160   0.30838   0.78129   0.00000  Uiso   1.00
H998   H     0.98319   0.14454   0.65216   0.00000  Uiso   1.00
H999   H     0.93881   0.09457   0.68137   0.00000  Uiso   1.00
H1000  H     0.66928   0.07915   0.65136   0.00000  Uiso   1.00
H1001  H     0.83618   0.06086   0.63651   0.00000  Uiso   1.00
H1002  H     0.72786   0.23877   0.81863   0.00000  Uiso   1.00
H1003  H     0.68347   0.18880   0.84785   0.00000  Uiso   1.00
H1004  H     0.99739   0.25419   0.84864   0.00000  Uiso   1.00
H1005  H     0.80513   0.03596   0.58569   0.00000  Uiso   1.00
H1006  H     0.76995   0.02384   0.64000   0.00000  Uiso   1.00
H1007  H     0.83049   0.27247   0.86348   0.00000  Uiso   1.00
H1008  H     0.89671   0.30950   0.86000   0.00000  Uiso   1.00
H1009  H     0.86153   0.29738   0.91431   0.00000  Uiso   1.00
H1010  H     0.86159   0.29052   0.58700   0.00000  Uiso   1.00
N1011  N     0.98344   0.15265   0.73783   0.00000  Uiso   1.00
N1012  N     0.68322   0.18068   0.76217   0.00000  Uiso   1.00
O1013  O     0.79642   0.24619   0.75299   0.00000  Uiso   1.00
O1014  O     0.90260   0.23654   0.88062   0.00000  Uiso   1.00
O1015  O     0.90845   0.23321   0.61361   0.00000  Uiso   1.00
O1016  O     0.75822   0.10013   0.88639   0.00000  Uiso   1.00
O1017  O     0.96120   0.25304   0.94934   0.00000  Uiso   1.00
O1018  O     0.70546   0.08030   0.55065   0.00000  Uiso   1.00
O1019  O     0.91092   0.00553   0.75638   0.00000  Uiso   1.00
O1020  O     0.75575   0.32780   0.74362   0.00000  Uiso   1.00
O1021  O     0.67933   0.11960   0.71025   0.00000  Uiso   1.00
O1022  O     0.98734   0.21373   0.78975   0.00000  Uiso   1.00
O1023  O     0.87025   0.08714   0.74702   0.00000  Uiso   1.00
O1024  O     0.89280   0.23721   0.74518   0.00000  Uiso   1.00
O1025  O     0.77387   0.09613   0.75482   0.00000  Uiso   1.00
O1026  O     0.78514   0.17117   0.81998   0.00000  Uiso   1.00
O1027  O     0.88153   0.16216   0.68002   0.00000  Uiso   1.00
O1028  O     0.88152   0.16219   0.81218   0.00000  Uiso   1.00
O1029  O     0.78515   0.17115   0.68783   0.00000  Uiso   1.00
O1030  O     0.76406   0.09680   0.61937   0.00000  Uiso   1.00
Zn1031 Zn    0.76898   0.17266   0.75521   0.00000  Uiso   1.00
Zn1032 Zn    0.89769   0.16067   0.74479   0.00000  Uiso   1.00
C1033  C     0.18151   0.59789   0.74850   0.00000  Uiso   1.00
C1034  C     0.20385   0.53388   0.90543   0.00000  Uiso   1.00
C1035  C     0.16678   0.50031   0.61581   0.00000  Uiso   1.00
C1036  C     0.16655   0.49969   0.88418   0.00000  Uiso   1.00
C1037  C     0.20551   0.53293   0.59155   0.00000  Uiso   1.00
C1038  C     0.12783   0.46707   0.90845   0.00000  Uiso   1.00
C1039  C     0.20790   0.53043   0.54489   0.00000  Uiso   1.00
C1040  C     0.12544   0.46957   0.95511   0.00000  Uiso   1.00
C1041  C     0.16670   0.49975   0.52332   0.00000  Uiso   1.00
C1042  C     0.16664   0.50025   0.97668   0.00000  Uiso   1.00
C1043  C     0.12554   0.46875   0.54840   0.00000  Uiso   1.00
C1044  C     0.15182   0.40212   0.75150   0.00000  Uiso   1.00
C1045  C     0.20779   0.53125   0.95160   0.00000  Uiso   1.00
C1046  C     0.25023   0.55884   0.51977   0.00000  Uiso   1.00
C1047  C     0.08311   0.44116   0.98022   0.00000  Uiso   1.00
C1048  C     0.12913   0.38609   0.62010   0.00000  Uiso   1.00
C1049  C     0.20420   0.61392   0.87990   0.00000  Uiso   1.00
C1050  C     0.21867   0.61527   0.61628   0.00000  Uiso   1.00
C1051  C     0.11468   0.38473   0.88372   0.00000  Uiso   1.00
C1052  C     0.01217   0.55997   0.94805   0.00000  Uiso   1.00
C1053  C     0.32119   0.44007   0.55199   0.00000  Uiso   1.00
C1054  C     0.27981   0.66639   0.71622   0.00000  Uiso   1.00
C1055  C     0.25151   0.55853   0.97326   0.00000  Uiso   1.00
C1056  C     0.05353   0.33361   0.78378   0.00000  Uiso   1.00
C1057  C     0.31574   0.44324   0.67233   0.00000  Uiso   1.00
C1058  C     0.01759   0.55676   0.82767   0.00000  Uiso   1.00
C1059  C     0.08183   0.44147   0.52674   0.00000  Uiso   1.00
C1060  C     0.18973   0.65198   0.74961   0.00000  Uiso   1.00
C1061  C     0.14360   0.34802   0.75039   0.00000  Uiso   1.00
C1062  C     0.16672   0.49946   0.83635   0.00000  Uiso   1.00
C1063  C     0.16662   0.50054   0.66365   0.00000  Uiso   1.00
C1064  C     0.12949   0.46612   0.59457   0.00000  Uiso   1.00
H1065  H     0.28282   0.58152   0.53605   0.00000  Uiso   1.00
H1066  H     0.25440   0.64434   0.61691   0.00000  Uiso   1.00
H1067  H     0.19001   0.61942   0.64752   0.00000  Uiso   1.00
H1068  H     0.07894   0.35566   0.88309   0.00000  Uiso   1.00
H1069  H     0.13843   0.37615   0.91299   0.00000  Uiso   1.00
H1070  H     0.14333   0.38058   0.85247   0.00000  Uiso   1.00
H1071  H     0.00642   0.52044   0.93368   0.00000  Uiso   1.00
H1072  H     0.02826   0.55915   0.98186   0.00000  Uiso   1.00
H1073  H     0.04549   0.58031   0.92608   0.00000  Uiso   1.00
H1074  H     0.30514   0.44104   0.51817   0.00000  Uiso   1.00
H1075  H     0.32696   0.47955   0.56646   0.00000  Uiso   1.00
H1076  H     0.05051   0.41849   0.96394   0.00000  Uiso   1.00
H1077  H     0.28783   0.41969   0.57389   0.00000  Uiso   1.00
H1078  H     0.25854   0.34396   0.68669   0.00000  Uiso   1.00
H1079  H     0.29525   0.62729   0.71093   0.00000  Uiso   1.00
H1080  H     0.31840   0.35829   0.71871   0.00000  Uiso   1.00
H1081  H     0.03809   0.37271   0.78907   0.00000  Uiso   1.00
H1082  H     0.07480   0.65603   0.81332   0.00000  Uiso   1.00
H1083  H     0.01494   0.64171   0.78129   0.00000  Uiso   1.00
H1084  H     0.31653   0.47787   0.65216   0.00000  Uiso   1.00
H1085  H     0.27214   0.42790   0.68137   0.00000  Uiso   1.00
H1086  H     0.00261   0.41248   0.65136   0.00000  Uiso   1.00
H1087  H     0.16951   0.39420   0.63651   0.00000  Uiso   1.00
H1088  H     0.06119   0.57210   0.81863   0.00000  Uiso   1.00
H1089  H     0.01680   0.52213   0.84785   0.00000  Uiso   1.00
H1090  H     0.33072   0.58752   0.84864   0.00000  Uiso   1.00
H1091  H     0.13846   0.36929   0.58569   0.00000  Uiso   1.00
H1092  H     0.10329   0.35717   0.64000   0.00000  Uiso   1.00
H1093  H     0.16382   0.60581   0.86348   0.00000  Uiso   1.00
H1094  H     0.23004   0.64283   0.86000   0.00000  Uiso   1.00
H1095  H     0.19487   0.63071   0.91431   0.00000  Uiso   1.00
H1096  H     0.19492   0.62385   0.58700   0.00000  Uiso   1.00
N1097  N     0.31678   0.48598   0.73783   0.00000  Uiso   1.00
N1098  N     0.01656   0.51402   0.76217   0.00000  Uiso   1.00
O1099  O     0.12975   0.57952   0.75299   0.00000  Uiso   1.00
O1100  O     0.23593   0.56987   0.88062   0.00000  Uiso   1.00
O1101  O     0.24178   0.56654   0.61361   0.00000  Uiso   1.00
O1102  O     0.09156   0.43346   0.88639   0.00000  Uiso   1.00
O1103  O     0.29453   0.58637   0.94934   0.00000  Uiso   1.00
O1104  O     0.03880   0.41363   0.55065   0.00000  Uiso   1.00
O1105  O     0.24425   0.33887   0.75638   0.00000  Uiso   1.00
O1106  O     0.08908   0.66113   0.74362   0.00000  Uiso   1.00
O1107  O     0.01266   0.45293   0.71025   0.00000  Uiso   1.00
O1108  O     0.32067   0.54707   0.78975   0.00000  Uiso   1.00
O1109  O     0.20358   0.42048   0.74702   0.00000  Uiso   1.00
O1110  O     0.22613   0.57054   0.74518   0.00000  Uiso   1.00
O1111  O     0.10720   0.42946   0.75482   0.00000  Uiso   1.00
O1112  O     0.11847   0.50450   0.81998   0.00000  Uiso   1.00
O1113  O     0.21486   0.49550   0.68002   0.00000  Uiso   1.00
O1114  O     0.21485   0.49552   0.81218   0.00000  Uiso   1.00
O1115  O     0.11848   0.50448   0.68783   0.00000  Uiso   1.00
O1116  O     0.09740   0.43013   0.61937   0.00000  Uiso   1.00
Zn1117 Zn    0.10231   0.50600   0.75521   0.00000  Uiso   1.00
Zn1118 Zn    0.23102   0.49400   0.74479   0.00000  Uiso   1.00
C1119  C     0.51484   0.59789   0.74850   0.00000  Uiso   1.00
C1120  C     0.53718   0.53388   0.90543   0.00000  Uiso   1.00
C1121  C     0.50012   0.50031   0.61581   0.00000  Uiso   1.00
C1122  C     0.49989   0.49969   0.88418   0.00000  Uiso   1.00
C1123  C     0.53884   0.53293   0.59155   0.00000  Uiso   1.00
C1124  C     0.46116   0.46707   0.90845   0.00000  Uiso   1.00
C1125  C     0.54123   0.53043   0.54489   0.00000  Uiso   1.00
C1126  C     0.45878   0.46957   0.95511   0.00000  Uiso   1.00
C1127  C     0.50003   0.49975   0.52332   0.00000  Uiso   1.00
C1128  C     0.49997   0.50025   0.97668   0.00000  Uiso   1.00
C1129  C     0.45888   0.46875   0.54840   0.00000  Uiso   1.00
C1130  C     0.48516   0.40212   0.75150   0.00000  Uiso   1.00
C1131  C     0.54112   0.53125   0.95160   0.00000  Uiso   1.00
C1132  C     0.58356   0.55884   0.51977   0.00000  Uiso   1.00
C1133  C     0.41644   0.44116   0.98022   0.00000  Uiso   1.00
C1134  C     0.46246   0.38609   0.62010   0.00000  Uiso   1.00
C1135  C     0.53753   0.61392   0.87990   0.00000  Uiso   1.00
C1136  C     0.55200   0.61527   0.61628   0.00000  Uiso   1.00
C1137  C     0.44801   0.38473   0.88372   0.00000  Uiso   1.00
C1138  C     0.34550   0.55997   0.94805   0.00000  Uiso   1.00
C1139  C     0.65452   0.44007   0.55199   0.00000  Uiso   1.00
C1140  C     0.61314   0.66639   0.71622   0.00000  Uiso   1.00
C1141  C     0.58484   0.55853   0.97326   0.00000  Uiso   1.00
C1142  C     0.38686   0.33361   0.78378   0.00000  Uiso   1.00
C1143  C     0.64907   0.44324   0.67233   0.00000  Uiso   1.00
C1144  C     0.35092   0.55676   0.82767   0.00000  Uiso   1.00
C1145  C     0.41516   0.44147   0.52674   0.00000  Uiso   1.00
C1146  C     0.52306   0.65198   0.74961   0.00000  Uiso   1.00
C1147  C     0.47694   0.34802   0.75039   0.00000  Uiso   1.00
C1148  C     0.50005   0.49946   0.83635   0.00000  Uiso   1.00
C1149  C     0.49995   0.50054   0.66365   0.00000  Uiso   1.00
C1150  C     0.46282   0.46612   0.59457   0.00000  Uiso   1.00
H1151  H     0.61616   0.58152   0.53605   0.00000  Uiso   1.00
H1152  H     0.58773   0.64434   0.61691   0.00000  Uiso   1.00
H1153  H     0.52334   0.61942   0.64752   0.00000  Uiso   1.00
H1154  H     0.41228   0.35566   0.88309   0.00000  Uiso   1.00
H1155  H     0.47176   0.37615   0.91299   0.00000  Uiso   1.00
H1156  H     0.47666   0.38058   0.85247   0.00000  Uiso   1.00
H1157  H     0.33975   0.52044   0.93368   0.00000  Uiso   1.00
H1158  H     0.36159   0.55915   0.98186   0.00000  Uiso   1.00
H1159  H     0.37882   0.58031   0.92608   0.00000  Uiso   1.00
H1160  H     0.63847   0.44104   0.51817   0.00000  Uiso   1.00
H1161  H     0.66030   0.47955   0.56646   0.00000  Uiso   1.00
H1162  H     0.38385   0.41849   0.96394   0.00000  Uiso   1.00
H1163  H     0.62117   0.41969   0.57389   0.00000  Uiso   1.00
H1164  H     0.59187   0.34396   0.68669   0.00000  Uiso   1.00
H1165  H     0.62858   0.62729   0.71093   0.00000  Uiso   1.00
H1166  H     0.65173   0.35829   0.71871   0.00000  Uiso   1.00
H1167  H     0.37142   0.37271   0.78907   0.00000  Uiso   1.00
H1168  H     0.40813   0.65603   0.81332   0.00000  Uiso   1.00
H1169  H     0.34827   0.64171   0.78129   0.00000  Uiso   1.00
H1170  H     0.64986   0.47787   0.65216   0.00000  Uiso   1.00
H1171  H     0.60547   0.42790   0.68137   0.00000  Uiso   1.00
H1172  H     0.33594   0.41248   0.65136   0.00000  Uiso   1.00
H1173  H     0.50284   0.39420   0.63651   0.00000  Uiso   1.00
H1174  H     0.39453   0.57210   0.81863   0.00000  Uiso   1.00
H1175  H     0.35014   0.52213   0.84785   0.00000  Uiso   1.00
H1176  H     0.66406   0.58752   0.84864   0.00000  Uiso   1.00
H1177  H     0.47179   0.36929   0.58569   0.00000  Uiso   1.00
H1178  H     0.43662   0.35717   0.64000   0.00000  Uiso   1.00
H1179  H     0.49715   0.60581   0.86348   0.00000  Uiso   1.00
H1180  H     0.56338   0.64283   0.86000   0.00000  Uiso   1.00
H1181  H     0.52820   0.63071   0.91431   0.00000  Uiso   1.00
H1182  H     0.52826   0.62385   0.58700   0.00000  Uiso   1.00
N1183  N     0.65011   0.48598   0.73783   0.00000  Uiso   1.00
N1184  N     0.34989   0.51402   0.76217   0.00000  Uiso   1.00
O1185  O     0.46308   0.57952   0.75299   0.00000  Uiso   1.00
O1186  O     0.56927   0.56987   0.88062   0.00000  Uiso   1.00
O1187  O     0.57511   0.56654   0.61361   0.00000  Uiso   1.00
O1188  O     0.42489   0.43346   0.88639   0.00000  Uiso   1.00
O1189  O     0.62787   0.58637   0.94934   0.00000  Uiso   1.00
O1190  O     0.37213   0.41363   0.55065   0.00000  Uiso   1.00
O1191  O     0.57759   0.33887   0.75638   0.00000  Uiso   1.00
O1192  O     0.42241   0.66113   0.74362   0.00000  Uiso   1.00
O1193  O     0.34600   0.45293   0.71025   0.00000  Uiso   1.00
O1194  O     0.65400   0.54707   0.78975   0.00000  Uiso   1.00
O1195  O     0.53692   0.42048   0.74702   0.00000  Uiso   1.00
O1196  O     0.55946   0.57054   0.74518   0.00000  Uiso   1.00
O1197  O     0.44054   0.42946   0.75482   0.00000  Uiso   1.00
O1198  O     0.45181   0.50450   0.81998   0.00000  Uiso   1.00
O1199  O     0.54819   0.49550   0.68002   0.00000  Uiso   1.00
O1200  O     0.54819   0.49552   0.81218   0.00000  Uiso   1.00
O1201  O     0.45181   0.50448   0.68783   0.00000  Uiso   1.00
O1202  O     0.43073   0.43013   0.61937   0.00000  Uiso   1.00
Zn1203 Zn    0.43565   0.50600   0.75521   0.00000  Uiso   1.00
Zn1204 Zn    0.56435   0.49400   0.74479   0.00000  Uiso   1.00
C1205  C     0.84818   0.59789   0.74850   0.00000  Uiso   1.00
C1206  C     0.87051   0.53388   0.90543   0.00000  Uiso   1.00
C1207  C     0.83345   0.50031   0.61581   0.00000  Uiso   1.00
C1208  C     0.83322   0.49969   0.88418   0.00000  Uiso   1.00
C1209  C     0.87217   0.53293   0.59155   0.00000  Uiso   1.00
C1210  C     0.79450   0.46707   0.90845   0.00000  Uiso   1.00
C1211  C     0.87456   0.53043   0.54489   0.00000  Uiso   1.00
C1212  C     0.79211   0.46957   0.95511   0.00000  Uiso   1.00
C1213  C     0.83337   0.49975   0.52332   0.00000  Uiso   1.00
C1214  C     0.83330   0.50025   0.97668   0.00000  Uiso   1.00
C1215  C     0.79221   0.46875   0.54840   0.00000  Uiso   1.00
C1216  C     0.81849   0.40212   0.75150   0.00000  Uiso   1.00
C1217  C     0.87446   0.53125   0.95160   0.00000  Uiso   1.00
C1218  C     0.91690   0.55884   0.51977   0.00000  Uiso   1.00
C1219  C     0.74977   0.44116   0.98022   0.00000  Uiso   1.00
C1220  C     0.79580   0.38609   0.62010   0.00000  Uiso   1.00
C1221  C     0.87087   0.61392   0.87990   0.00000  Uiso   1.00
C1222  C     0.88533   0.61527   0.61628   0.00000  Uiso   1.00
C1223  C     0.78134   0.38473   0.88372   0.00000  Uiso   1.00
C1224  C     0.67884   0.55997   0.94805   0.00000  Uiso   1.00
C1225  C     0.98785   0.44007   0.55199   0.00000  Uiso   1.00
C1226  C     0.94647   0.66639   0.71622   0.00000  Uiso   1.00
C1227  C     0.91818   0.55853   0.97326   0.00000  Uiso   1.00
C1228  C     0.72019   0.33361   0.78378   0.00000  Uiso   1.00
C1229  C     0.98241   0.44324   0.67233   0.00000  Uiso   1.00
C1230  C     0.68426   0.55676   0.82767   0.00000  Uiso   1.00
C1231  C     0.74849   0.44147   0.52674   0.00000  Uiso   1.00
C1232  C     0.85639   0.65198   0.74961   0.00000  Uiso   1.00
C1233  C     0.81027   0.34802   0.75039   0.00000  Uiso   1.00
C1234  C     0.83338   0.49946   0.83635   0.00000  Uiso   1.00
C1235  C     0.83328   0.50054   0.66365   0.00000  Uiso   1.00
C1236  C     0.79615   0.46612   0.59457   0.00000  Uiso   1.00
H1237  H     0.94949   0.58152   0.53605   0.00000  Uiso   1.00
H1238  H     0.92107   0.64434   0.61691   0.00000  Uiso   1.00
H1239  H     0.85668   0.61942   0.64752   0.00000  Uiso   1.00
H1240  H     0.74561   0.35566   0.88309   0.00000  Uiso   1.00
H1241  H     0.80509   0.37615   0.91299   0.00000  Uiso   1.00
H1242  H     0.80999   0.38058   0.85247   0.00000  Uiso   1.00
H1243  H     0.67309   0.52044   0.93368   0.00000  Uiso   1.00
H1244  H     0.69492   0.55915   0.98186   0.00000  Uiso   1.00
H1245  H     0.71215   0.58031   0.92608   0.00000  Uiso   1.00
H1246  H     0.97180   0.44104   0.51817   0.00000  Uiso   1.00
H1247  H     0.99363   0.47955   0.56646   0.00000  Uiso   1.00
H1248  H     0.71718   0.41849   0.96394   0.00000  Uiso   1.00
H1249  H     0.95450   0.41969   0.57389   0.00000  Uiso   1.00
H1250  H     0.92520   0.34396   0.68669   0.00000  Uiso   1.00
H1251  H     0.96192   0.62729   0.71093   0.00000  Uiso   1.00
H1252  H     0.98506   0.35829   0.71871   0.00000  Uiso   1.00
H1253  H     0.70475   0.37271   0.78907   0.00000  Uiso   1.00
H1254  H     0.74147   0.65603   0.81332   0.00000  Uiso   1.00
H1255  H     0.68160   0.64171   0.78129   0.00000  Uiso   1.00
H1256  H     0.98319   0.47787   0.65216   0.00000  Uiso   1.00
H1257  H     0.93881   0.42790   0.68137   0.00000  Uiso   1.00
H1258  H     0.66928   0.41248   0.65136   0.00000  Uiso   1.00
H1259  H     0.83618   0.39420   0.63651   0.00000  Uiso   1.00
H1260  H     0.72786   0.57210   0.81863   0.00000  Uiso   1.00
H1261  H     0.68347   0.52213   0.84785   0.00000  Uiso   1.00
H1262  H     0.99739   0.58752   0.84864   0.00000  Uiso   1.00
H1263  H     0.80513   0.36929   0.58569   0.00000  Uiso   1.00
H1264  H     0.76995   0.35717   0.64000   0.00000  Uiso   1.00
H1265  H     0.83049   0.60581   0.86348   0.00000  Uiso   1.00
H1266  H     0.89671   0.64283   0.86000   0.00000  Uiso   1.00
H1267  H     0.86153   0.63071   0.91431   0.00000  Uiso   1.00
H1268  H     0.86159   0.62385   0.58700   0.00000  Uiso   1.00
N1269  N     0.98344   0.48598   0.73783   0.00000  Uiso   1.00
N1270  N     0.68322   0.51402   0.76217   0.00000  Uiso   1.00
O1271  O     0.79642   0.57952   0.75299   0.00000  Uiso   1.00
O1272  O     0.90260   0.56987   0.88062   0.00000  Uiso   1.00
O1273  O     0.90845   0.56654   0.61361   0.00000  Uiso   1.00
O1274  O     0.75822   0.43346   0.88639   0.00000  Uiso   1.00
O1275  O     0.96120   0.58637   0.94934   0.00000  Uiso   1.00
O1276  O     0.70546   0.41363   0.55065   0.00000  Uiso   1.00
O1277  O     0.91092   0.33887   0.75638   0.00000  Uiso   1.00
O1278  O     0.75575   0.66113   0.74362   0.00000  Uiso   1.00
O1279  O     0.67933   0.45293   0.71025   0.00000  Uiso   1.00
O1280  O     0.98734   0.54707   0.78975   0.00000  Uiso   1.00
O1281  O     0.87025   0.42048   0.74702   0.00000  Uiso   1.00
O1282  O     0.89280   0.57054   0.74518   0.00000  Uiso   1.00
O1283  O     0.77387   0.42946   0.75482   0.00000  Uiso   1.00
O1284  O     0.78514   0.50450   0.81998   0.00000  Uiso   1.00
O1285  O     0.88153   0.49550   0.68002   0.00000  Uiso   1.00
O1286  O     0.88152   0.49552   0.81218   0.00000  Uiso   1.00
O1287  O     0.78515   0.50448   0.68783   0.00000  Uiso   1.00
O1288  O     0.76406   0.43013   0.61937   0.00000  Uiso   1.00
Zn1289 Zn    0.76898   0.50600   0.75521   0.00000  Uiso   1.00
Zn1290 Zn    0.89769   0.49400   0.74479   0.00000  Uiso   1.00
C1291  C     0.18151   0.93122   0.74850   0.00000  Uiso   1.00
C1292  C     0.20385   0.86721   0.90543   0.00000  Uiso   1.00
C1293  C     0.16678   0.83365   0.61581   0.00000  Uiso   1.00
C1294  C     0.16655   0.83302   0.88418   0.00000  Uiso   1.00
C1295  C     0.20551   0.86626   0.59155   0.00000  Uiso   1.00
C1296  C     0.12783   0.80041   0.90845   0.00000  Uiso   1.00
C1297  C     0.20790   0.86376   0.54489   0.00000  Uiso   1.00
C1298  C     0.12544   0.80291   0.95511   0.00000  Uiso   1.00
C1299  C     0.16670   0.83308   0.52332   0.00000  Uiso   1.00
C1300  C     0.16664   0.83359   0.97668   0.00000  Uiso   1.00
C1301  C     0.12554   0.80208   0.54840   0.00000  Uiso   1.00
C1302  C     0.15182   0.73545   0.75150   0.00000  Uiso   1.00
C1303  C     0.20779   0.86458   0.95160   0.00000  Uiso   1.00
C1304  C     0.25023   0.89218   0.51977   0.00000  Uiso   1.00
C1305  C     0.08311   0.77449   0.98022   0.00000  Uiso   1.00
C1306  C     0.12913   0.71942   0.62010   0.00000  Uiso   1.00
C1307  C     0.20420   0.94725   0.87990   0.00000  Uiso   1.00
C1308  C     0.21867   0.94860   0.61628   0.00000  Uiso   1.00
C1309  C     0.11468   0.71806   0.88372   0.00000  Uiso   1.00
C1310  C     0.01217   0.89331   0.94805   0.00000  Uiso   1.00
C1311  C     0.32119   0.77341   0.55199   0.00000  Uiso   1.00
C1312  C     0.27981   0.99972   0.71622   0.00000  Uiso   1.00
C1313  C     0.25151   0.89187   0.97326   0.00000  Uiso   1.00
C1314  C     0.05353   0.66695   0.78378   0.00000  Uiso   1.00
C1315  C     0.31574   0.77658   0.67233   0.00000  Uiso   1.00
C1316  C     0.01759   0.89009   0.82767   0.00000  Uiso   1.00
C1317  C     0.08183   0.77480   0.52674   0.00000  Uiso   1.00
C1318  C     0.18973   0.98531   0.74961   0.00000  Uiso   1.00
C1319  C     0.14360   0.68135   0.75039   0.00000  Uiso   1.00
C1320  C     0.16672   0.83279   0.83635   0.00000  Uiso   1.00
C1321  C     0.16662   0.83388   0.66365   0.00000  Uiso   1.00
C1322  C     0.12949   0.79945   0.59457   0.00000  Uiso   1.00
H1323  H     0.28282   0.91485   0.53605   0.00000  Uiso   1.00
H1324  H     0.25440   0.97767   0.61691   0.00000  Uiso   1.00
H1325  H     0.19001   0.95276   0.64752   0.00000  Uiso   1.00
H1326  H     0.07894   0.68899   0.88309   0.00000  Uiso   1.00
H1327  H     0.13843   0.70949   0.91299   0.00000  Uiso   1.00
H1328  H     0.14333   0.71391   0.85247   0.00000  Uiso   1.00
H1329  H     0.00642   0.85378   0.93368   0.00000  Uiso   1.00
H1330  H     0.02826   0.89248   0.98186   0.00000  Uiso   1.00
H1331  H     0.04549   0.91364   0.92608   0.00000  Uiso   1.00
H1332  H     0.30514   0.77437   0.51817   0.00000  Uiso   1.00
H1333  H     0.32696   0.81289   0.56646   0.00000  Uiso   1.00
H1334  H     0.05051   0.75182   0.96394   0.00000  Uiso   1.00
H1335  H     0.28783   0.75303   0.57389   0.00000  Uiso   1.00
H1336  H     0.25854   0.67730   0.68669   0.00000  Uiso   1.00
H1337  H     0.29525   0.96062   0.71093   0.00000  Uiso   1.00
H1338  H     0.31840   0.69162   0.71871   0.00000  Uiso   1.00
H1339  H     0.03809   0.70604   0.78907   0.00000  Uiso   1.00
H1340  H     0.07480   0.98936   0.81332   0.00000  Uiso   1.00
H1341  H     0.01494   0.97504   0.78129   0.00000  Uiso   1.00
H1342  H     0.31653   0.81120   0.65216   0.00000  Uiso   1.00
H1343  H     0.27214   0.76123   0.68137   0.00000  Uiso   1.00
H1344  H     0.00261   0.74581   0.65136   0.00000  Uiso   1.00
H1345  H     0.16951   0.72753   0.63651   0.00000  Uiso   1.00
H1346  H     0.06119   0.90543   0.81863   0.00000  Uiso   1.00
H1347  H     0.01680   0.85547   0.84785   0.00000  Uiso   1.00
H1348  H     0.33072   0.92085   0.84864   0.00000  Uiso   1.00
H1349  H     0.13846   0.70262   0.58569   0.00000  Uiso   1.00
H1350  H     0.10329   0.69051   0.64000   0.00000  Uiso   1.00
H1351  H     0.16382   0.93914   0.86348   0.00000  Uiso   1.00
H1352  H     0.23004   0.97617   0.86000   0.00000  Uiso   1.00
H1353  H     0.19487   0.96404   0.91431   0.00000  Uiso   1.00
H1354  H     0.19492   0.95719   0.58700   0.00000  Uiso   1.00
N1355  N     0.31678   0.81932   0.73783   0.00000  Uiso   1.00
N1356  N     0.01656   0.84735   0.76217   0.00000  Uiso   1.00
O1357  O     0.12975   0.91286   0.75299   0.00000  Uiso   1.00
O1358  O     0.23593   0.90320   0.88062   0.00000  Uiso   1.00
O1359  O     0.24178   0.89987   0.61361   0.00000  Uiso   1.00
O1360  O     0.09156   0.76679   0.88639   0.00000  Uiso   1.00
O1361  O     0.29453   0.91970   0.94934   0.00000  Uiso   1.00
O1362  O     0.03880   0.74697   0.55065   0.00000  Uiso   1.00
O1363  O     0.24425   0.67220   0.75638   0.00000  Uiso   1.00
O1364  O     0.08908   0.99447   0.74362   0.00000  Uiso   1.00
O1365  O     0.01266   0.78627   0.71025   0.00000  Uiso   1.00
O1366  O     0.32067   0.88040   0.78975   0.00000  Uiso   1.00
O1367  O     0.20358   0.75381   0.74702   0.00000  Uiso   1.00
O1368  O     0.22613   0.90387   0.74518   0.00000  Uiso   1.00
O1369  O     0.10720   0.76279   0.75482   0.00000  Uiso   1.00
O1370  O     0.11847   0.83784   0.81998   0.00000  Uiso   1.00
O1371  O     0.21486   0.82883   0.68002   0.00000  Uiso   1.00
O1372  O     0.21485   0.82885   0.81218   0.00000  Uiso   1.00
O1373  O     0.11848   0.83781   0.68783   0.00000  Uiso   1.00
O1374  O     0.09740   0.76347   0.61937   0.00000  Uiso   1.00
Zn1375 Zn    0.10231   0.83933   0.75521   0.00000  Uiso   1.00
Zn1376 Zn    0.23102   0.82734   0.74479   0.00000  Uiso   1.00
C1377  C     0.51484   0.93122   0.74850   0.00000  Uiso   1.00
C1378  C     0.53718   0.86721   0.90543   0.00000  Uiso   1.00
C1379  C     0.50012   0.83365   0.61581   0.00000  Uiso   1.00
C1380  C     0.49989   0.83302   0.88418   0.00000  Uiso   1.00
C1381  C     0.53884   0.86626   0.59155   0.00000  Uiso   1.00
C1382  C     0.46116   0.80041   0.90845   0.00000  Uiso   1.00
C1383  C     0.54123   0.86376   0.54489   0.00000  Uiso   1.00
C1384  C     0.45878   0.80291   0.95511   0.00000  Uiso   1.00
C1385  C     0.50003   0.83308   0.52332   0.00000  Uiso   1.00
C1386  C     0.49997   0.83359   0.97668   0.00000  Uiso   1.00
C1387  C     0.45888   0.80208   0.54840   0.00000  Uiso   1.00
C1388  C     0.48516   0.73545   0.75150   0.00000  Uiso   1.00
C1389  C     0.54112   0.86458   0.95160   0.00000  Uiso   1.00
C1390  C     0.58356   0.89218   0.51977   0.00000  Uiso   1.00
C1391  C     0.41644   0.77449   0.98022   0.00000  Uiso   1.00
C1392  C     0.46246   0.71942   0.62010   0.00000  Uiso   1.00
C1393  C     0.53753   0.94725   0.87990   0.00000  Uiso   1.00
C1394  C     0.55200   0.94860   0.61628   0.00000  Uiso   1.00
C1395  C     0.44801   0.71806   0.88372   0.00000  Uiso   1.00
C1396  C     0.34550   0.89331   0.94805   0.00000  Uiso   1.00
C1397  C     0.65452   0.77341   0.55199   0.00000  Uiso   1.00
C1398  C     0.61314   0.99972   0.71622   0.00000  Uiso   1.00
C1399  C     0.58484   0.89187   0.97326   0.00000  Uiso   1.00
C1400  C     0.38686   0.66695   0.78378   0.00000  Uiso   1.00
C1401  C     0.64907   0.77658   0.67233   0.00000  Uiso   1.00
C1402  C     0.35092   0.89009   0.82767   0.00000  Uiso   1.00
C1403  C     0.41516   0.77480   0.52674   0.00000  Uiso   1.00
C1404  C     0.52306   0.98531   0.74961   0.00000  Uiso   1.00
C1405  C     0.47694   0.68135   0.75039   0.00000  Uiso   1.00
C1406  C     0.50005   0.83279   0.83635   0.00000  Uiso   1.00
C1407  C     0.49995   0.83388   0.66365   0.00000  Uiso   1.00
C1408  C     0.46282   0.79945   0.59457   0.00000  Uiso   1.00
H1409  H     0.61616   0.91485   0.53605   0.00000  Uiso   1.00
H1410  H     0.58773   0.97767   0.61691   0.00000  Uiso   1.00
H1411  H     0.52334   0.95276   0.64752   0.00000  Uiso   1.00
H1412  H     0.41228   0.68899   0.88309   0.00000  Uiso   1.00
H1413  H     0.47176   0.70949   0.91299   0.00000  Uiso   1.00
H1414  H     0.47666   0.71391   0.85247   0.00000  Uiso   1.00
H1415  H     0.33975   0.85378   0.93368   0.00000  Uiso   1.00
H1416  H     0.36159   0.89248   0.98186   0.00000  Uiso   1.00
H1417  H     0.37882   0.91364   0.92608   0.00000  Uiso   1.00
H1418  H     0.63847   0.77437   0.51817   0.00000  Uiso   1.00
H1419  H     0.66030   0.81289   0.56646   0.00000  Uiso   1.00
H1420  H     0.38385   0.75182   0.96394   0.00000  Uiso   1.00
H1421  H     0.62117   0.75303   0.57389   0.00000  Uiso   1.00
H1422  H     0.59187   0.67730   0.68669   0.00000  Uiso   1.00
H1423  H     0.62858   0.96062   0.71093   0.00000  Uiso   1.00
H1424  H     0.65173   0.69162   0.71871   0.00000  Uiso   1.00
H1425  H     0.37142   0.70604   0.78907   0.00000  Uiso   1.00
H1426  H     0.40813   0.98936   0.81332   0.00000  Uiso   1.00
H1427  H     0.34827   0.97504   0.78129   0.00000  Uiso   1.00
H1428  H     0.64986   0.81120   0.65216   0.00000  Uiso   1.00
H1429  H     0.60547   0.76123   0.68137   0.00000  Uiso   1.00
H1430  H     0.33594   0.74581   0.65136   0.00000  Uiso   1.00
H1431  H     0.50284   0.72753   0.63651   0.00000  Uiso   1.00
H1432  H     0.39453   0.90543   0.81863   0.00000  Uiso   1.00
H1433  H     0.35014   0.85547   0.84785   0.00000  Uiso   1.00
H1434  H     0.66406   0.92085   0.84864   0.00000  Uiso   1.00
H1435  H     0.47179   0.70262   0.58569   0.00000  Uiso   1.00
H1436  H     0.43662   0.69051   0.64000   0.00000  Uiso   1.00
H1437  H     0.49715   0.93914   0.86348   0.00000  Uiso   1.00
H1438  H     0.56338   0.97617   0.86000   0.00000  Uiso   1.00
H1439  H     0.52820   0.96404   0.91431   0.00000  Uiso   1.00
H1440  H     0.52826   0.95719   0.58700   0.00000  Uiso   1.00
N1441  N     0.65011   0.81932   0.73783   0.00000  Uiso   1.00
N1442  N     0.34989   0.84735   0.76217   0.00000  Uiso   1.00
O1443  O     0.46308   0.91286   0.75299   0.00000  Uiso   1.00
O1444  O     0.56927   0.90320   0.88062   0.00000  Uiso   1.00
O1445  O     0.57511   0.89987   0.61361   0.00000  Uiso   1.00
O1446  O     0.42489   0.76679   0.88639   0.00000  Uiso   1.00
O1447  O     0.62787   0.91970   0.94934   0.00000  Uiso   1.00
O1448  O     0.37213   0.74697   0.55065   0.00000  Uiso   1.00
O1449  O     0.57759   0.67220   0.75638   0.00000  Uiso   1.00
O1450  O     0.42241   0.99447   0.74362   0.00000  Uiso   1.00
O1451  O     0.34600   0.78627   0.71025   0.00000  Uiso   1.00
O1452  O     0.65400   0.88040   0.78975   0.00000  Uiso   1.00
O1453  O     0.53692   0.75381   0.74702   0.00000  Uiso   1.00
O1454  O     0.55946   0.90387   0.74518   0.00000  Uiso   1.00
O1455  O     0.44054   0.76279   0.75482   0.00000  Uiso   1.00
O1456  O     0.45181   0.83784   0.81998   0.00000  Uiso   1.00
O1457  O     0.54819   0.82883   0.68002   0.00000  Uiso   1.00
O1458  O     0.54819   0.82885   0.81218   0.00000  Uiso   1.00
O1459  O     0.45181   0.83781   0.68783   0.00000  Uiso   1.00
O1460  O     0.43073   0.76347   0.61937   0.00000  Uiso   1.00
Zn1461 Zn    0.43565   0.83933   0.75521   0.00000  Uiso   1.00
Zn1462 Zn    0.56435   0.82734   0.74479   0.00000  Uiso   1.00
C1463  C     0.84818   0.93122   0.74850   0.00000  Uiso   1.00
C1464  C     0.87051   0.86721   0.90543   0.00000  Uiso   1.00
C1465  C     0.83345   0.83365   0.61581   0.00000  Uiso   1.00
C1466  C     0.83322   0.83302   0.88418   0.00000  Uiso   1.00
C1467  C     0.87217   0.86626   0.59155   0.00000  Uiso   1.00
C1468  C     0.79450   0.80041   0.90845   0.00000  Uiso   1.00
C1469  C     0.87456   0.86376   0.54489   0.00000  Uiso   1.00
C1470  C     0.79211   0.80291   0.95511   0.00000  Uiso   1.00
C1471  C     0.83337   0.83308   0.52332   0.00000  Uiso   1.00
C1472  C     0.83330   0.83359   0.97668   0.00000  Uiso   1.00
C1473  C     0.79221   0.80208   0.54840   0.00000  Uiso   1.00
C1474  C     0.81849   0.73545   0.75150   0.00000  Uiso   1.00
C1475  C     0.87446   0.86458   0.95160   0.00000  Uiso   1.00
C1476  C     0.91690   0.89218   0.51977   0.00000  Uiso   1.00
C1477  C     0.74977   0.77449   0.98022   0.00000  Uiso   1.00
C1478  C     0.79580   0.71942   0.62010   0.00000  Uiso   1.00
C1479  C     0.87087   0.94725   0.87990   0.00000  Uiso   1.00
C1480  C     0.88533   0.94860   0.61628   0.00000  Uiso   1.00
C1481  C     0.78134   0.71806   0.88372   0.00000  Uiso   1.00
C1482  C     0.67884   0.89331   0.94805   0.00000  Uiso   1.00
C1483  C     0.98785   0.77341   0.55199   0.00000  Uiso   1.00
C1484  C     0.94647   0.99972   0.71622   0.00000  Uiso   1.00
C1485  C     0.91818   0.89187   0.97326   0.00000  Uiso   1.00
C1486  C     0.72019   0.66695   0.78378   0.00000  Uiso   1.00
C1487  C     0.98241   0.77658   0.67233   0.00000  Uiso   1.00
C1488  C     0.68426   0.89009   0.82767   0.00000  Uiso   1.00
C1489  C     0.74849   0.77480   0.52674   0.00000  Uiso   1.00
C1490  C     0.85639   0.98531   0.74961   0.00000  Uiso   1.00
C1491  C     0.81027   0.68135   0.75039   0.00000  Uiso   1.00
C1492  C     0.83338   0.83279   0.83635   0.00000  Uiso   1.00
C1493  C     0.83328   0.83388   0.66365   0.00000  Uiso   1.00
C1494  C     0.79615   0.79945   0.59457   0.00000  Uiso   1.00
H1495  H     0.94949   0.91485   0.53605   0.00000  Uiso   1.00
H1496  H     0.92107   0.97767   0.61691   0.00000  Uiso   1.00
H1497  H     0.85668   0.95276   0.64752   0.00000  Uiso   1.00
H1498  H     0.74561   0.68899   0.88309   0.00000  Uiso   1.00
H1499  H     0.80509   0.70949   0.91299   0.00000  Uiso   1.00
H1500  H     0.80999   0.71391   0.85247   0.00000  Uiso   1.00
H1501  H     0.67309   0.85378   0.93368   0.00000  Uiso   1.00
H1502  H     0.69492   0.89248   0.98186   0.00000  Uiso   1.00
H1503  H     0.71215   0.91364   0.92608   0.00000  Uiso   1.00
H1504  H     0.97180   0.77437   0.51817   0.00000  Uiso   1.00
H1505  H     0.99363   0.81289   0.56646   0.00000  Uiso   1.00
H1506  H     0.71718   0.75182   0.96394   0.00000  Uiso   1.00
H1507  H     0.95450   0.75303   0.57389   0.00000  Uiso   1.00
H1508  H     0.92520   0.67730   0.68669   0.00000  Uiso   1.00
H1509  H     0.96192   0.96062   0.71093   0.00000  Uiso   1.00
H1510  H     0.98506   0.69162   0.71871   0.00000  Uiso   1.00
H1511  H     0.70475   0.70604   0.78907   0.00000  Uiso   1.00
H1512  H     0.74147   0.98936   0.81332   0.00000  Uiso   1.00
H1513  H     0.68160   0.97504   0.78129   0.00000  Uiso   1.00
H1514  H     0.98319   0.81120   0.65216   0.00000  Uiso   1.00
H1515  H     0.93881   0.76123   0.68137   0.00000  Uiso   1.00
H1516  H     0.66928   0.74581   0.65136   0.00000  Uiso   1.00
H1517  H     0.83618   0.72753   0.63651   0.00000  Uiso   1.00
H1518  H     0.72786   0.90543   0.81863   0.00000  Uiso   1.00
H1519  H     0.68347   0.85547   0.84785   0.00000  Uiso   1.00
H1520  H     0.99739   0.92085   0.84864   0.00000  Uiso   1.00
H1521  H     0.80513   0.70262   0.58569   0.00000  Uiso   1.00
H1522  H     0.76995   0.69051   0.64000   0.00000  Uiso   1.00
H1523  H     0.83049   0.93914   0.86348   0.00000  Uiso   1.00
H1524  H     0.89671   0.97617   0.86000   0.00000  Uiso   1.00
H1525  H     0.86153   0.96404   0.91431   0.00000  Uiso   1.00
H1526  H     0.86159   0.95719   0.58700   0.00000  Uiso   1.00
N1527  N     0.98344   0.81932   0.73783   0.00000  Uiso   1.00
N1528  N     0.68322   0.84735   0.76217   0.00000  Uiso   1.00
O1529  O     0.79642   0.91286   0.75299   0.00000  Uiso   1.00
O1530  O     0.90260   0.90320   0.88062   0.00000  Uiso   1.00
O1531  O     0.90845   0.89987   0.61361   0.00000  Uiso   1.00
O1532  O     0.75822   0.76679   0.88639   0.00000  Uiso   1.00
O1533  O     0.96120   0.91970   0.94934   0.00000  Uiso   1.00
O1534  O     0.70546   0.74697   0.55065   0.00000  Uiso   1.00
O1535  O     0.91092   0.67220   0.75638   0.00000  Uiso   1.00
O1536  O     0.75575   0.99447   0.74362   0.00000  Uiso   1.00
O1537  O     0.67933   0.78627   0.71025   0.00000  Uiso   1.00
O1538  O     0.98734   0.88040   0.78975   0.00000  Uiso   1.00
O1539  O     0.87025   0.75381   0.74702   0.00000  Uiso   1.00
O1540  O     0.89280   0.90387   0.74518   0.00000  Uiso   1.00
O1541  O     0.77387   0.76279   0.75482   0.00000  Uiso   1.00
O1542  O     0.78514   0.83784   0.81998   0.00000  Uiso   1.00
O1543  O     0.88153   0.82883   0.68002   0.00000  Uiso   1.00
O1544  O     0.88152   0.82885   0.81218   0.00000  Uiso   1.00
O1545  O     0.78515   0.83781   0.68783   0.00000  Uiso   1.00
O1546  O     0.76406   0.76347   0.61937   0.00000  Uiso   1.00
Zn1547 Zn    0.76898   0.83933   0.75521   0.00000  Uiso   1.00
Zn1548 Zn    0.89769   0.82734   0.74479   0.00000  Uiso   1.00
loop_
_geom_bond_atom_site_label_1
_geom_bond_atom_site_label_2
_geom_bond_distance
_geom_bond_site_symmetry_2
_ccdc_geom_bond_type
C1     C28     1.424   .     S
C1     O78     1.296   .     A
C1     O67     1.285   .     A
C2     O68     1.380   .     S
C2     C13     1.398   .     A
C2     C4      1.396   .     A
C3     C31     1.432   .     S
C3     C5      1.397   .     A
C3     C32     1.396   .     A
C4     C6      1.397   .     A
C4     C30     1.432   .     S
C5     O69     1.384   .     S
C5     C7      1.393   .     A
C6     C8      1.393   .     A
C6     O70     1.384   .     S
C7     C9      1.411   .     A
C7     C14     1.399   .     A
C8     C15     1.399   .     A
C8     C10     1.411   .     A
C9     C11     1.418   .     A
C9     C784    1.397   1_554 S
C10    C13     1.418   .     A
C10    C783    1.397   .     S
C11    C27     1.412   .     A
C11    C32     1.398   .     A
C12    C29     1.424   .     S
C12    O79     1.296   .     A
C12    O77     1.285   .     A
C13    C23     1.412   .     A
C14    H33     1.083   .     S
C14    C797    1.390   1_554 S
C15    H44     1.083   .     S
C15    C801    1.390   .     S
C16    O84     1.410   .     S
C16    H60     1.109   .     S
C16    H59     1.113   .     S
C16    H55     1.113   .     S
C17    H61     1.113   .     S
C17    H62     1.109   .     S
C17    O68     1.410   .     S
C17    H63     1.113   .     S
C18    O69     1.413   .     S
C18    H34     1.107   .     S
C18    H35     1.111   .     S
C18    H64     1.115   .     S
C19    H36     1.107   .     S
C19    H37     1.115   .     S
C19    H38     1.111   .     S
C19    O70     1.413   .     S
C20    H41     1.110   .     S
C20    H40     1.112   .     S
C20    H39     1.114   .     S
C20    O243    1.412   1_455 S
C21    H43     1.114   .     S
C21    H45     1.110   .     S
C21    H42     1.112   .     S
C21    O158    1.412   .     S
C22    H47     1.108   .     S
C22    H304    1.107   .     S
C22    H306    1.103   .     S
C22    O331    1.413   .     S
C23    O71     1.384   .     S
C23    C788    1.390   .     S
C24    H49     1.108   .     S
C24    H566    1.107   1_545 S
C24    H567    1.103   1_545 S
C24    O590    1.413   1_545 S
C25    H53     1.099   .     S
C25    H52     1.111   .     S
C25    H140    1.104   .     S
C25    O161    1.399   .     S
C26    H56     1.099   .     S
C26    H57     1.111   .     S
C26    H230    1.104   1_455 S
C26    O248    1.399   1_455 S
C27    O72     1.384   .     S
C27    C789    1.390   1_554 S
C28    C287    1.361   .     S
C28    O331    1.391   .     S
C29    C544    1.361   1_545 S
C29    O590    1.391   1_545 S
C30    O80     1.289   .     A
C30    O82     1.297   .     A
C31    O83     1.297   .     A
C31    O81     1.289   .     A
C32    O84     1.380   .     S
H46    C538    1.107   1_545 S
H48    C538    1.103   1_545 S
H50    C282    1.107   .     S
H51    C282    1.103   .     S
H54    C197    1.104   1_455 S
H58    C112    1.104   .     S
N65    Zn86    2.031   .     S
N65    N152    1.294   .     S
N65    O161    1.346   .     S
N66    Zn85    2.031   .     S
N66    N237    1.294   1_455 S
N66    O248    1.346   1_455 S
O67    Zn85    2.007   .     S
O71    C106    1.412   .     S
O72    C193    1.412   1_455 S
O73    C538    1.413   1_545 S
O73    C544    1.391   1_545 S
O74    C282    1.413   .     S
O74    C287    1.391   .     S
O75    N237    1.346   1_455 S
O75    C197    1.399   1_455 S
O76    C112    1.399   .     S
O76    N152    1.346   .     S
O77    Zn86    2.007   .     S
O78    Zn86    2.020   .     S
O79    Zn85    2.020   .     S
O80    Zn85    2.010   .     S
O81    Zn86    2.010   .     S
O82    Zn86    2.021   .     S
O83    Zn85    2.021   .     S
C87    C114    1.424   .     S
C87    O164    1.296   .     A
C87    O153    1.285   .     A
C88    O154    1.380   .     S
C88    C99     1.398   .     A
C88    C90     1.396   .     A
C89    C117    1.432   .     S
C89    C91     1.397   .     A
C89    C118    1.396   .     A
C90    C92     1.397   .     A
C90    C116    1.432   .     S
C91    O155    1.384   .     S
C91    C93     1.393   .     A
C92    C94     1.393   .     A
C92    O156    1.384   .     S
C93    C95     1.411   .     A
C93    C100    1.399   .     A
C94    C101    1.399   .     A
C94    C96     1.411   .     A
C95    C97     1.418   .     A
C95    C870    1.397   1_554 S
C96    C99     1.418   .     A
C96    C869    1.397   .     S
C97    C113    1.412   .     A
C97    C118    1.398   .     A
C98    C115    1.424   .     S
C98    O165    1.296   .     A
C98    O163    1.285   .     A
C99    C109    1.412   .     A
C100   H119    1.083   .     S
C100   C883    1.390   1_554 S
C101   H130    1.083   .     S
C101   C887    1.390   .     S
C102   O170    1.410   .     S
C102   H146    1.109   .     S
C102   H145    1.113   .     S
C102   H141    1.113   .     S
C103   H147    1.113   .     S
C103   H148    1.109   .     S
C103   O154    1.410   .     S
C103   H149    1.113   .     S
C104   O155    1.413   .     S
C104   H120    1.107   .     S
C104   H121    1.111   .     S
C104   H150    1.115   .     S
C105   H122    1.107   .     S
C105   H123    1.115   .     S
C105   H124    1.111   .     S
C105   O156    1.413   .     S
C106   H127    1.110   .     S
C106   H126    1.112   .     S
C106   H125    1.114   .     S
C107   H129    1.114   .     S
C107   H131    1.110   .     S
C107   H128    1.112   .     S
C107   O244    1.412   .     S
C108   H133    1.108   .     S
C108   H390    1.107   .     S
C108   H392    1.103   .     S
C108   O417    1.413   .     S
C109   O157    1.384   .     S
C109   C874    1.390   .     S
C110   H135    1.108   .     S
C110   H652    1.107   1_545 S
C110   H653    1.103   1_545 S
C110   O676    1.413   1_545 S
C111   H139    1.099   .     S
C111   H138    1.111   .     S
C111   H226    1.104   .     S
C111   O247    1.399   .     S
C112   H142    1.099   .     S
C112   H143    1.111   .     S
C113   O158    1.384   .     S
C113   C875    1.390   1_554 S
C114   C373    1.361   .     S
C114   O417    1.391   .     S
C115   C630    1.361   1_545 S
C115   O676    1.391   1_545 S
C116   O166    1.289   .     A
C116   O168    1.297   .     A
C117   O169    1.297   .     A
C117   O167    1.289   .     A
C118   O170    1.380   .     S
H132   C624    1.107   1_545 S
H134   C624    1.103   1_545 S
H136   C368    1.107   .     S
H137   C368    1.103   .     S
H144   C198    1.104   .     S
N151   Zn172   2.031   .     S
N151   N238    1.294   .     S
N151   O247    1.346   .     S
N152   Zn171   2.031   .     S
O153   Zn171   2.007   .     S
O157   C192    1.412   .     S
O159   C624    1.413   1_545 S
O159   C630    1.391   1_545 S
O160   C368    1.413   .     S
O160   C373    1.391   .     S
O162   C198    1.399   .     S
O162   N238    1.346   .     S
O163   Zn172   2.007   .     S
O164   Zn172   2.020   .     S
O165   Zn171   2.020   .     S
O166   Zn171   2.010   .     S
O167   Zn172   2.010   .     S
O168   Zn172   2.021   .     S
O169   Zn171   2.021   .     S
C173   C200    1.424   .     S
C173   O250    1.296   .     A
C173   O239    1.285   .     A
C174   O240    1.380   .     S
C174   C185    1.398   .     A
C174   C176    1.396   .     A
C175   C203    1.432   .     S
C175   C177    1.397   .     A
C175   C204    1.396   .     A
C176   C178    1.397   .     A
C176   C202    1.432   .     S
C177   O241    1.384   .     S
C177   C179    1.393   .     A
C178   C180    1.393   .     A
C178   O242    1.384   .     S
C179   C181    1.411   .     A
C179   C186    1.399   .     A
C180   C187    1.399   .     A
C180   C182    1.411   .     A
C181   C183    1.418   .     A
C181   C956    1.397   1_554 S
C182   C185    1.418   .     A
C182   C955    1.397   .     S
C183   C199    1.412   .     A
C183   C204    1.398   .     A
C184   C201    1.424   .     S
C184   O251    1.296   .     A
C184   O249    1.285   .     A
C185   C195    1.412   .     A
C186   H205    1.083   .     S
C186   C969    1.390   1_554 S
C187   H216    1.083   .     S
C187   C973    1.390   .     S
C188   O256    1.410   .     S
C188   H232    1.109   .     S
C188   H231    1.113   .     S
C188   H227    1.113   .     S
C189   H233    1.113   .     S
C189   H234    1.109   .     S
C189   O240    1.410   .     S
C189   H235    1.113   .     S
C190   O241    1.413   .     S
C190   H206    1.107   .     S
C190   H207    1.111   .     S
C190   H236    1.115   .     S
C191   H208    1.107   .     S
C191   H209    1.115   .     S
C191   H210    1.111   .     S
C191   O242    1.413   .     S
C192   H213    1.110   .     S
C192   H212    1.112   .     S
C192   H211    1.114   .     S
C193   H215    1.114   .     S
C193   H217    1.110   .     S
C193   H214    1.112   .     S
C193   O72     1.412   1_655 S
C194   H219    1.108   .     S
C194   H476    1.107   .     S
C194   H478    1.103   .     S
C194   O503    1.413   .     S
C195   O243    1.384   .     S
C195   C960    1.390   .     S
C196   H221    1.108   .     S
C196   H738    1.107   1_545 S
C196   H739    1.103   1_545 S
C196   O762    1.413   1_545 S
C197   H225    1.099   .     S
C197   H224    1.111   .     S
C197   H54     1.104   1_655 S
C197   O75     1.399   1_655 S
C198   H228    1.099   .     S
C198   H229    1.111   .     S
C199   O244    1.384   .     S
C199   C961    1.390   1_554 S
C200   C459    1.361   .     S
C200   O503    1.391   .     S
C201   C716    1.361   1_545 S
C201   O762    1.391   1_545 S
C202   O252    1.289   .     A
C202   O254    1.297   .     A
C203   O255    1.297   .     A
C203   O253    1.289   .     A
C204   O256    1.380   .     S
H218   C710    1.107   1_545 S
H220   C710    1.103   1_545 S
H222   C454    1.107   .     S
H223   C454    1.103   .     S
H230   C26     1.104   1_655 S
N237   Zn258   2.031   .     S
N237   N66     1.294   1_655 S
N237   O75     1.346   1_655 S
N238   Zn257   2.031   .     S
O239   Zn257   2.007   .     S
O243   C20     1.412   1_655 S
O245   C710    1.413   1_545 S
O245   C716    1.391   1_545 S
O246   C454    1.413   .     S
O246   C459    1.391   .     S
O248   C26     1.399   1_655 S
O248   N66     1.346   1_655 S
O249   Zn258   2.007   .     S
O250   Zn258   2.020   .     S
O251   Zn257   2.020   .     S
O252   Zn257   2.010   .     S
O253   Zn258   2.010   .     S
O254   Zn258   2.021   .     S
O255   Zn257   2.021   .     S
C259   C286    1.424   .     S
C259   O336    1.296   .     A
C259   O325    1.285   .     A
C260   O326    1.380   .     S
C260   C271    1.398   .     A
C260   C262    1.396   .     A
C261   C289    1.432   .     S
C261   C263    1.397   .     A
C261   C290    1.396   .     A
C262   C264    1.397   .     A
C262   C288    1.432   .     S
C263   O327    1.384   .     S
C263   C265    1.393   .     A
C264   C266    1.393   .     A
C264   O328    1.384   .     S
C265   C267    1.411   .     A
C265   C272    1.399   .     A
C266   C273    1.399   .     A
C266   C268    1.411   .     A
C267   C269    1.418   .     A
C267   C1042   1.397   1_554 S
C268   C271    1.418   .     A
C268   C1041   1.397   .     S
C269   C285    1.412   .     A
C269   C290    1.398   .     A
C270   C287    1.424   .     S
C270   O337    1.296   .     A
C270   O335    1.285   .     A
C271   C281    1.412   .     A
C272   H291    1.083   .     S
C272   C1055   1.390   1_554 S
C273   H302    1.083   .     S
C273   C1059   1.390   .     S
C274   O342    1.410   .     S
C274   H318    1.109   .     S
C274   H317    1.113   .     S
C274   H313    1.113   .     S
C275   H319    1.113   .     S
C275   H320    1.109   .     S
C275   O326    1.410   .     S
C275   H321    1.113   .     S
C276   O327    1.413   .     S
C276   H292    1.107   .     S
C276   H293    1.111   .     S
C276   H322    1.115   .     S
C277   H294    1.107   .     S
C277   H295    1.115   .     S
C277   H296    1.111   .     S
C277   O328    1.413   .     S
C278   H299    1.110   .     S
C278   H298    1.112   .     S
C278   H297    1.114   .     S
C278   O501    1.412   1_455 S
C279   H301    1.114   .     S
C279   H303    1.110   .     S
C279   H300    1.112   .     S
C279   O416    1.412   .     S
C280   H305    1.108   .     S
C280   H562    1.107   .     S
C280   H564    1.103   .     S
C280   O589    1.413   .     S
C281   O329    1.384   .     S
C281   C1046   1.390   .     S
C282   H307    1.108   .     S
C283   H311    1.099   .     S
C283   H310    1.111   .     S
C283   H398    1.104   .     S
C283   O419    1.399   .     S
C284   H314    1.099   .     S
C284   H315    1.111   .     S
C284   H488    1.104   1_455 S
C284   O506    1.399   1_455 S
C285   O330    1.384   .     S
C285   C1047   1.390   1_554 S
C286   C545    1.361   .     S
C286   O589    1.391   .     S
C288   O338    1.289   .     A
C288   O340    1.297   .     A
C289   O341    1.297   .     A
C289   O339    1.289   .     A
C290   O342    1.380   .     S
H308   C540    1.107   .     S
H309   C540    1.103   .     S
H312   C455    1.104   1_455 S
H316   C370    1.104   .     S
N323   Zn344   2.031   .     S
N323   N410    1.294   .     S
N323   O419    1.346   .     S
N324   Zn343   2.031   .     S
N324   N495    1.294   1_455 S
N324   O506    1.346   1_455 S
O325   Zn343   2.007   .     S
O329   C364    1.412   .     S
O330   C451    1.412   1_455 S
O332   C540    1.413   .     S
O332   C545    1.391   .     S
O333   N495    1.346   1_455 S
O333   C455    1.399   1_455 S
O334   C370    1.399   .     S
O334   N410    1.346   .     S
O335   Zn344   2.007   .     S
O336   Zn344   2.020   .     S
O337   Zn343   2.020   .     S
O338   Zn343   2.010   .     S
O339   Zn344   2.010   .     S
O340   Zn344   2.021   .     S
O341   Zn343   2.021   .     S
C345   C372    1.424   .     S
C345   O422    1.296   .     A
C345   O411    1.285   .     A
C346   O412    1.380   .     S
C346   C357    1.398   .     A
C346   C348    1.396   .     A
C347   C375    1.432   .     S
C347   C349    1.397   .     A
C347   C376    1.396   .     A
C348   C350    1.397   .     A
C348   C374    1.432   .     S
C349   O413    1.384   .     S
C349   C351    1.393   .     A
C350   C352    1.393   .     A
C350   O414    1.384   .     S
C351   C353    1.411   .     A
C351   C358    1.399   .     A
C352   C359    1.399   .     A
C352   C354    1.411   .     A
C353   C355    1.418   .     A
C353   C1128   1.397   1_554 S
C354   C357    1.418   .     A
C354   C1127   1.397   .     S
C355   C371    1.412   .     A
C355   C376    1.398   .     A
C356   C373    1.424   .     S
C356   O423    1.296   .     A
C356   O421    1.285   .     A
C357   C367    1.412   .     A
C358   H377    1.083   .     S
C358   C1141   1.390   1_554 S
C359   H388    1.083   .     S
C359   C1145   1.390   .     S
C360   O428    1.410   .     S
C360   H404    1.109   .     S
C360   H403    1.113   .     S
C360   H399    1.113   .     S
C361   H405    1.113   .     S
C361   H406    1.109   .     S
C361   O412    1.410   .     S
C361   H407    1.113   .     S
C362   O413    1.413   .     S
C362   H378    1.107   .     S
C362   H379    1.111   .     S
C362   H408    1.115   .     S
C363   H380    1.107   .     S
C363   H381    1.115   .     S
C363   H382    1.111   .     S
C363   O414    1.413   .     S
C364   H385    1.110   .     S
C364   H384    1.112   .     S
C364   H383    1.114   .     S
C365   H387    1.114   .     S
C365   H389    1.110   .     S
C365   H386    1.112   .     S
C365   O502    1.412   .     S
C366   H391    1.108   .     S
C366   H648    1.107   .     S
C366   H650    1.103   .     S
C366   O675    1.413   .     S
C367   O415    1.384   .     S
C367   C1132   1.390   .     S
C368   H393    1.108   .     S
C369   H397    1.099   .     S
C369   H396    1.111   .     S
C369   H484    1.104   .     S
C369   O505    1.399   .     S
C370   H400    1.099   .     S
C370   H401    1.111   .     S
C371   O416    1.384   .     S
C371   C1133   1.390   1_554 S
C372   C631    1.361   .     S
C372   O675    1.391   .     S
C374   O424    1.289   .     A
C374   O426    1.297   .     A
C375   O427    1.297   .     A
C375   O425    1.289   .     A
C376   O428    1.380   .     S
H394   C626    1.107   .     S
H395   C626    1.103   .     S
H402   C456    1.104   .     S
N409   Zn430   2.031   .     S
N409   N496    1.294   .     S
N409   O505    1.346   .     S
N410   Zn429   2.031   .     S
O411   Zn429   2.007   .     S
O415   C450    1.412   .     S
O418   C626    1.413   .     S
O418   C631    1.391   .     S
O420   C456    1.399   .     S
O420   N496    1.346   .     S
O421   Zn430   2.007   .     S
O422   Zn430   2.020   .     S
O423   Zn429   2.020   .     S
O424   Zn429   2.010   .     S
O425   Zn430   2.010   .     S
O426   Zn430   2.021   .     S
O427   Zn429   2.021   .     S
C431   C458    1.424   .     S
C431   O508    1.296   .     A
C431   O497    1.285   .     A
C432   O498    1.380   .     S
C432   C443    1.398   .     A
C432   C434    1.396   .     A
C433   C461    1.432   .     S
C433   C435    1.397   .     A
C433   C462    1.396   .     A
C434   C436    1.397   .     A
C434   C460    1.432   .     S
C435   O499    1.384   .     S
C435   C437    1.393   .     A
C436   C438    1.393   .     A
C436   O500    1.384   .     S
C437   C439    1.411   .     A
C437   C444    1.399   .     A
C438   C445    1.399   .     A
C438   C440    1.411   .     A
C439   C441    1.418   .     A
C439   C1214   1.397   1_554 S
C440   C443    1.418   .     A
C440   C1213   1.397   .     S
C441   C457    1.412   .     A
C441   C462    1.398   .     A
C442   C459    1.424   .     S
C442   O509    1.296   .     A
C442   O507    1.285   .     A
C443   C453    1.412   .     A
C444   H463    1.083   .     S
C444   C1227   1.390   1_554 S
C445   H474    1.083   .     S
C445   C1231   1.390   .     S
C446   O514    1.410   .     S
C446   H490    1.109   .     S
C446   H489    1.113   .     S
C446   H485    1.113   .     S
C447   H491    1.113   .     S
C447   H492    1.109   .     S
C447   O498    1.410   .     S
C447   H493    1.113   .     S
C448   O499    1.413   .     S
C448   H464    1.107   .     S
C448   H465    1.111   .     S
C448   H494    1.115   .     S
C449   H466    1.107   .     S
C449   H467    1.115   .     S
C449   H468    1.111   .     S
C449   O500    1.413   .     S
C450   H471    1.110   .     S
C450   H470    1.112   .     S
C450   H469    1.114   .     S
C451   H473    1.114   .     S
C451   H475    1.110   .     S
C451   H472    1.112   .     S
C451   O330    1.412   1_655 S
C452   H477    1.108   .     S
C452   H734    1.107   .     S
C452   H736    1.103   .     S
C452   O761    1.413   .     S
C453   O501    1.384   .     S
C453   C1218   1.390   .     S
C454   H479    1.108   .     S
C455   H483    1.099   .     S
C455   H482    1.111   .     S
C455   H312    1.104   1_655 S
C455   O333    1.399   1_655 S
C456   H486    1.099   .     S
C456   H487    1.111   .     S
C457   O502    1.384   .     S
C457   C1219   1.390   1_554 S
C458   C717    1.361   .     S
C458   O761    1.391   .     S
C460   O510    1.289   .     A
C460   O512    1.297   .     A
C461   O513    1.297   .     A
C461   O511    1.289   .     A
C462   O514    1.380   .     S
H480   C712    1.107   .     S
H481   C712    1.103   .     S
H488   C284    1.104   1_655 S
N495   Zn516   2.031   .     S
N495   N324    1.294   1_655 S
N495   O333    1.346   1_655 S
N496   Zn515   2.031   .     S
O497   Zn515   2.007   .     S
O501   C278    1.412   1_655 S
O504   C712    1.413   .     S
O504   C717    1.391   .     S
O506   C284    1.399   1_655 S
O506   N324    1.346   1_655 S
O507   Zn516   2.007   .     S
O508   Zn516   2.020   .     S
O509   Zn515   2.020   .     S
O510   Zn515   2.010   .     S
O511   Zn516   2.010   .     S
O512   Zn516   2.021   .     S
O513   Zn515   2.021   .     S
C517   C544    1.424   .     S
C517   O594    1.296   .     A
C517   O583    1.285   .     A
C518   O584    1.380   .     S
C518   C529    1.398   .     A
C518   C520    1.396   .     A
C519   C547    1.432   .     S
C519   C521    1.397   .     A
C519   C548    1.396   .     A
C520   C522    1.397   .     A
C520   C546    1.432   .     S
C521   O585    1.384   .     S
C521   C523    1.393   .     A
C522   C524    1.393   .     A
C522   O586    1.384   .     S
C523   C525    1.411   .     A
C523   C530    1.399   .     A
C524   C531    1.399   .     A
C524   C526    1.411   .     A
C525   C527    1.418   .     A
C525   C1300   1.397   1_554 S
C526   C529    1.418   .     A
C526   C1299   1.397   .     S
C527   C543    1.412   .     A
C527   C548    1.398   .     A
C528   C545    1.424   .     S
C528   O595    1.296   .     A
C528   O593    1.285   .     A
C529   C539    1.412   .     A
C530   H549    1.083   .     S
C530   C1313   1.390   1_554 S
C531   H560    1.083   .     S
C531   C1317   1.390   .     S
C532   O600    1.410   .     S
C532   H576    1.109   .     S
C532   H575    1.113   .     S
C532   H571    1.113   .     S
C533   H577    1.113   .     S
C533   H578    1.109   .     S
C533   O584    1.410   .     S
C533   H579    1.113   .     S
C534   O585    1.413   .     S
C534   H550    1.107   .     S
C534   H551    1.111   .     S
C534   H580    1.115   .     S
C535   H552    1.107   .     S
C535   H553    1.115   .     S
C535   H554    1.111   .     S
C535   O586    1.413   .     S
C536   H557    1.110   .     S
C536   H556    1.112   .     S
C536   H555    1.114   .     S
C536   O759    1.412   1_455 S
C537   H559    1.114   .     S
C537   H561    1.110   .     S
C537   H558    1.112   .     S
C537   O674    1.412   .     S
C538   H563    1.108   .     S
C538   H46     1.107   1_565 S
C538   H48     1.103   1_565 S
C538   O73     1.413   1_565 S
C539   O587    1.384   .     S
C539   C1304   1.390   .     S
C540   H565    1.108   .     S
C541   H569    1.099   .     S
C541   H568    1.111   .     S
C541   H656    1.104   .     S
C541   O677    1.399   .     S
C542   H572    1.099   .     S
C542   H573    1.111   .     S
C542   H746    1.104   1_455 S
C542   O764    1.399   1_455 S
C543   O588    1.384   .     S
C543   C1305   1.390   1_554 S
C544   C29     1.361   1_565 S
C544   O73     1.391   1_565 S
C546   O596    1.289   .     A
C546   O598    1.297   .     A
C547   O599    1.297   .     A
C547   O597    1.289   .     A
C548   O600    1.380   .     S
H566   C24     1.107   1_565 S
H567   C24     1.103   1_565 S
H570   C713    1.104   1_455 S
H574   C628    1.104   .     S
N581   Zn602   2.031   .     S
N581   N668    1.294   .     S
N581   O677    1.346   .     S
N582   Zn601   2.031   .     S
N582   N753    1.294   1_455 S
N582   O764    1.346   1_455 S
O583   Zn601   2.007   .     S
O587   C622    1.412   .     S
O588   C709    1.412   1_455 S
O590   C24     1.413   1_565 S
O590   C29     1.391   1_565 S
O591   N753    1.346   1_455 S
O591   C713    1.399   1_455 S
O592   C628    1.399   .     S
O592   N668    1.346   .     S
O593   Zn602   2.007   .     S
O594   Zn602   2.020   .     S
O595   Zn601   2.020   .     S
O596   Zn601   2.010   .     S
O597   Zn602   2.010   .     S
O598   Zn602   2.021   .     S
O599   Zn601   2.021   .     S
C603   C630    1.424   .     S
C603   O680    1.296   .     A
C603   O669    1.285   .     A
C604   O670    1.380   .     S
C604   C615    1.398   .     A
C604   C606    1.396   .     A
C605   C633    1.432   .     S
C605   C607    1.397   .     A
C605   C634    1.396   .     A
C606   C608    1.397   .     A
C606   C632    1.432   .     S
C607   O671    1.384   .     S
C607   C609    1.393   .     A
C608   C610    1.393   .     A
C608   O672    1.384   .     S
C609   C611    1.411   .     A
C609   C616    1.399   .     A
C610   C617    1.399   .     A
C610   C612    1.411   .     A
C611   C613    1.418   .     A
C611   C1386   1.397   1_554 S
C612   C615    1.418   .     A
C612   C1385   1.397   .     S
C613   C629    1.412   .     A
C613   C634    1.398   .     A
C614   C631    1.424   .     S
C614   O681    1.296   .     A
C614   O679    1.285   .     A
C615   C625    1.412   .     A
C616   H635    1.083   .     S
C616   C1399   1.390   1_554 S
C617   H646    1.083   .     S
C617   C1403   1.390   .     S
C618   O686    1.410   .     S
C618   H662    1.109   .     S
C618   H661    1.113   .     S
C618   H657    1.113   .     S
C619   H663    1.113   .     S
C619   H664    1.109   .     S
C619   O670    1.410   .     S
C619   H665    1.113   .     S
C620   O671    1.413   .     S
C620   H636    1.107   .     S
C620   H637    1.111   .     S
C620   H666    1.115   .     S
C621   H638    1.107   .     S
C621   H639    1.115   .     S
C621   H640    1.111   .     S
C621   O672    1.413   .     S
C622   H643    1.110   .     S
C622   H642    1.112   .     S
C622   H641    1.114   .     S
C623   H645    1.114   .     S
C623   H647    1.110   .     S
C623   H644    1.112   .     S
C623   O760    1.412   .     S
C624   H649    1.108   .     S
C624   H132    1.107   1_565 S
C624   H134    1.103   1_565 S
C624   O159    1.413   1_565 S
C625   O673    1.384   .     S
C625   C1390   1.390   .     S
C626   H651    1.108   .     S
C627   H655    1.099   .     S
C627   H654    1.111   .     S
C627   H742    1.104   .     S
C627   O763    1.399   .     S
C628   H658    1.099   .     S
C628   H659    1.111   .     S
C629   O674    1.384   .     S
C629   C1391   1.390   1_554 S
C630   C115    1.361   1_565 S
C630   O159    1.391   1_565 S
C632   O682    1.289   .     A
C632   O684    1.297   .     A
C633   O685    1.297   .     A
C633   O683    1.289   .     A
C634   O686    1.380   .     S
H652   C110    1.107   1_565 S
H653   C110    1.103   1_565 S
H660   C714    1.104   .     S
N667   Zn688   2.031   .     S
N667   N754    1.294   .     S
N667   O763    1.346   .     S
N668   Zn687   2.031   .     S
O669   Zn687   2.007   .     S
O673   C708    1.412   .     S
O676   C110    1.413   1_565 S
O676   C115    1.391   1_565 S
O678   C714    1.399   .     S
O678   N754    1.346   .     S
O679   Zn688   2.007   .     S
O680   Zn688   2.020   .     S
O681   Zn687   2.020   .     S
O682   Zn687   2.010   .     S
O683   Zn688   2.010   .     S
O684   Zn688   2.021   .     S
O685   Zn687   2.021   .     S
C689   C716    1.424   .     S
C689   O766    1.296   .     A
C689   O755    1.285   .     A
C690   O756    1.380   .     S
C690   C701    1.398   .     A
C690   C692    1.396   .     A
C691   C719    1.432   .     S
C691   C693    1.397   .     A
C691   C720    1.396   .     A
C692   C694    1.397   .     A
C692   C718    1.432   .     S
C693   O757    1.384   .     S
C693   C695    1.393   .     A
C694   C696    1.393   .     A
C694   O758    1.384   .     S
C695   C697    1.411   .     A
C695   C702    1.399   .     A
C696   C703    1.399   .     A
C696   C698    1.411   .     A
C697   C699    1.418   .     A
C697   C1472   1.397   1_554 S
C698   C701    1.418   .     A
C698   C1471   1.397   .     S
C699   C715    1.412   .     A
C699   C720    1.398   .     A
C700   C717    1.424   .     S
C700   O767    1.296   .     A
C700   O765    1.285   .     A
C701   C711    1.412   .     A
C702   H721    1.083   .     S
C702   C1485   1.390   1_554 S
C703   H732    1.083   .     S
C703   C1489   1.390   .     S
C704   O772    1.410   .     S
C704   H748    1.109   .     S
C704   H747    1.113   .     S
C704   H743    1.113   .     S
C705   H749    1.113   .     S
C705   H750    1.109   .     S
C705   O756    1.410   .     S
C705   H751    1.113   .     S
C706   O757    1.413   .     S
C706   H722    1.107   .     S
C706   H723    1.111   .     S
C706   H752    1.115   .     S
C707   H724    1.107   .     S
C707   H725    1.115   .     S
C707   H726    1.111   .     S
C707   O758    1.413   .     S
C708   H729    1.110   .     S
C708   H728    1.112   .     S
C708   H727    1.114   .     S
C709   H731    1.114   .     S
C709   H733    1.110   .     S
C709   H730    1.112   .     S
C709   O588    1.412   1_655 S
C710   H735    1.108   .     S
C710   H218    1.107   1_565 S
C710   H220    1.103   1_565 S
C710   O245    1.413   1_565 S
C711   O759    1.384   .     S
C711   C1476   1.390   .     S
C712   H737    1.108   .     S
C713   H741    1.099   .     S
C713   H740    1.111   .     S
C713   H570    1.104   1_655 S
C713   O591    1.399   1_655 S
C714   H744    1.099   .     S
C714   H745    1.111   .     S
C715   O760    1.384   .     S
C715   C1477   1.390   1_554 S
C716   C201    1.361   1_565 S
C716   O245    1.391   1_565 S
C718   O768    1.289   .     A
C718   O770    1.297   .     A
C719   O771    1.297   .     A
C719   O769    1.289   .     A
C720   O772    1.380   .     S
H738   C196    1.107   1_565 S
H739   C196    1.103   1_565 S
H746   C542    1.104   1_655 S
N753   Zn774   2.031   .     S
N753   N582    1.294   1_655 S
N753   O591    1.346   1_655 S
N754   Zn773   2.031   .     S
O755   Zn773   2.007   .     S
O759   C536    1.412   1_655 S
O762   C196    1.413   1_565 S
O762   C201    1.391   1_565 S
O764   C542    1.399   1_655 S
O764   N582    1.346   1_655 S
O765   Zn774   2.007   .     S
O766   Zn774   2.020   .     S
O767   Zn773   2.020   .     S
O768   Zn773   2.010   .     S
O769   Zn774   2.010   .     S
O770   Zn774   2.021   .     S
O771   Zn773   2.021   .     S
C775   C802    1.424   .     S
C775   O852    1.296   .     A
C775   O841    1.285   .     A
C776   O842    1.380   .     S
C776   C787    1.398   .     A
C776   C778    1.396   .     A
C777   C805    1.432   .     S
C777   C779    1.397   .     A
C777   C806    1.396   .     A
C778   C780    1.397   .     A
C778   C804    1.432   .     S
C779   O843    1.384   .     S
C779   C781    1.393   .     A
C780   C782    1.393   .     A
C780   O844    1.384   .     S
C781   C783    1.411   .     A
C781   C788    1.399   .     A
C782   C789    1.399   .     A
C782   C784    1.411   .     A
C783   C785    1.418   .     A
C784   C787    1.418   .     A
C784   C9      1.397   1_556 S
C785   C801    1.412   .     A
C785   C806    1.398   .     A
C786   C803    1.424   .     S
C786   O853    1.296   .     A
C786   O851    1.285   .     A
C787   C797    1.412   .     A
C788   H807    1.083   .     S
C789   H818    1.083   .     S
C789   C27     1.390   1_556 S
C790   O858    1.410   .     S
C790   H834    1.109   .     S
C790   H833    1.113   .     S
C790   H829    1.113   .     S
C791   H835    1.113   .     S
C791   H836    1.109   .     S
C791   O842    1.410   .     S
C791   H837    1.113   .     S
C792   O843    1.413   .     S
C792   H808    1.107   .     S
C792   H809    1.111   .     S
C792   H838    1.115   .     S
C793   H810    1.107   .     S
C793   H811    1.115   .     S
C793   H812    1.111   .     S
C793   O844    1.413   .     S
C794   H815    1.110   .     S
C794   H814    1.112   .     S
C794   H813    1.114   .     S
C794   O1017   1.412   1_455 S
C795   H817    1.114   .     S
C795   H819    1.110   .     S
C795   H816    1.112   .     S
C795   O932    1.412   .     S
C796   H821    1.108   .     S
C796   H1078   1.107   .     S
C796   H1080   1.103   .     S
C796   O1105   1.413   .     S
C797   O845    1.384   .     S
C797   C14     1.390   1_556 S
C798   H823    1.108   .     S
C798   H1340   1.107   1_545 S
C798   H1341   1.103   1_545 S
C798   O1364   1.413   1_545 S
C799   H827    1.099   .     S
C799   H826    1.111   .     S
C799   H914    1.104   .     S
C799   O935    1.399   .     S
C800   H830    1.099   .     S
C800   H831    1.111   .     S
C800   H1004   1.104   1_455 S
C800   O1022   1.399   1_455 S
C801   O846    1.384   .     S
C802   C1061   1.361   .     S
C802   O1105   1.391   .     S
C803   C1318   1.361   1_545 S
C803   O1364   1.391   1_545 S
C804   O854    1.289   .     A
C804   O856    1.297   .     A
C805   O857    1.297   .     A
C805   O855    1.289   .     A
C806   O858    1.380   .     S
H820   C1312   1.107   1_545 S
H822   C1312   1.103   1_545 S
H824   C1056   1.107   .     S
H825   C1056   1.103   .     S
H828   C971    1.104   1_455 S
H832   C886    1.104   .     S
N839   Zn860   2.031   .     S
N839   N926    1.294   .     S
N839   O935    1.346   .     S
N840   Zn859   2.031   .     S
N840   N1011   1.294   1_455 S
N840   O1022   1.346   1_455 S
O841   Zn859   2.007   .     S
O845   C880    1.412   .     S
O846   C967    1.412   1_455 S
O847   C1312   1.413   1_545 S
O847   C1318   1.391   1_545 S
O848   C1056   1.413   .     S
O848   C1061   1.391   .     S
O849   N1011   1.346   1_455 S
O849   C971    1.399   1_455 S
O850   C886    1.399   .     S
O850   N926    1.346   .     S
O851   Zn860   2.007   .     S
O852   Zn860   2.020   .     S
O853   Zn859   2.020   .     S
O854   Zn859   2.010   .     S
O855   Zn860   2.010   .     S
O856   Zn860   2.021   .     S
O857   Zn859   2.021   .     S
C861   C888    1.424   .     S
C861   O938    1.296   .     A
C861   O927    1.285   .     A
C862   O928    1.380   .     S
C862   C873    1.398   .     A
C862   C864    1.396   .     A
C863   C891    1.432   .     S
C863   C865    1.397   .     A
C863   C892    1.396   .     A
C864   C866    1.397   .     A
C864   C890    1.432   .     S
C865   O929    1.384   .     S
C865   C867    1.393   .     A
C866   C868    1.393   .     A
C866   O930    1.384   .     S
C867   C869    1.411   .     A
C867   C874    1.399   .     A
C868   C875    1.399   .     A
C868   C870    1.411   .     A
C869   C871    1.418   .     A
C870   C873    1.418   .     A
C870   C95     1.397   1_556 S
C871   C887    1.412   .     A
C871   C892    1.398   .     A
C872   C889    1.424   .     S
C872   O939    1.296   .     A
C872   O937    1.285   .     A
C873   C883    1.412   .     A
C874   H893    1.083   .     S
C875   H904    1.083   .     S
C875   C113    1.390   1_556 S
C876   O944    1.410   .     S
C876   H920    1.109   .     S
C876   H919    1.113   .     S
C876   H915    1.113   .     S
C877   H921    1.113   .     S
C877   H922    1.109   .     S
C877   O928    1.410   .     S
C877   H923    1.113   .     S
C878   O929    1.413   .     S
C878   H894    1.107   .     S
C878   H895    1.111   .     S
C878   H924    1.115   .     S
C879   H896    1.107   .     S
C879   H897    1.115   .     S
C879   H898    1.111   .     S
C879   O930    1.413   .     S
C880   H901    1.110   .     S
C880   H900    1.112   .     S
C880   H899    1.114   .     S
C881   H903    1.114   .     S
C881   H905    1.110   .     S
C881   H902    1.112   .     S
C881   O1018   1.412   .     S
C882   H907    1.108   .     S
C882   H1164   1.107   .     S
C882   H1166   1.103   .     S
C882   O1191   1.413   .     S
C883   O931    1.384   .     S
C883   C100    1.390   1_556 S
C884   H909    1.108   .     S
C884   H1426   1.107   1_545 S
C884   H1427   1.103   1_545 S
C884   O1450   1.413   1_545 S
C885   H913    1.099   .     S
C885   H912    1.111   .     S
C885   H1000   1.104   .     S
C885   O1021   1.399   .     S
C886   H916    1.099   .     S
C886   H917    1.111   .     S
C887   O932    1.384   .     S
C888   C1147   1.361   .     S
C888   O1191   1.391   .     S
C889   C1404   1.361   1_545 S
C889   O1450   1.391   1_545 S
C890   O940    1.289   .     A
C890   O942    1.297   .     A
C891   O943    1.297   .     A
C891   O941    1.289   .     A
C892   O944    1.380   .     S
H906   C1398   1.107   1_545 S
H908   C1398   1.103   1_545 S
H910   C1142   1.107   .     S
H911   C1142   1.103   .     S
H918   C972    1.104   .     S
N925   Zn946   2.031   .     S
N925   N1012   1.294   .     S
N925   O1021   1.346   .     S
N926   Zn945   2.031   .     S
O927   Zn945   2.007   .     S
O931   C966    1.412   .     S
O933   C1398   1.413   1_545 S
O933   C1404   1.391   1_545 S
O934   C1142   1.413   .     S
O934   C1147   1.391   .     S
O936   C972    1.399   .     S
O936   N1012   1.346   .     S
O937   Zn946   2.007   .     S
O938   Zn946   2.020   .     S
O939   Zn945   2.020   .     S
O940   Zn945   2.010   .     S
O941   Zn946   2.010   .     S
O942   Zn946   2.021   .     S
O943   Zn945   2.021   .     S
C947   C974    1.424   .     S
C947   O1024   1.296   .     A
C947   O1013   1.285   .     A
C948   O1014   1.380   .     S
C948   C959    1.398   .     A
C948   C950    1.396   .     A
C949   C977    1.432   .     S
C949   C951    1.397   .     A
C949   C978    1.396   .     A
C950   C952    1.397   .     A
C950   C976    1.432   .     S
C951   O1015   1.384   .     S
C951   C953    1.393   .     A
C952   C954    1.393   .     A
C952   O1016   1.384   .     S
C953   C955    1.411   .     A
C953   C960    1.399   .     A
C954   C961    1.399   .     A
C954   C956    1.411   .     A
C955   C957    1.418   .     A
C956   C959    1.418   .     A
C956   C181    1.397   1_556 S
C957   C973    1.412   .     A
C957   C978    1.398   .     A
C958   C975    1.424   .     S
C958   O1025   1.296   .     A
C958   O1023   1.285   .     A
C959   C969    1.412   .     A
C960   H979    1.083   .     S
C961   H990    1.083   .     S
C961   C199    1.390   1_556 S
C962   O1030   1.410   .     S
C962   H1006   1.109   .     S
C962   H1005   1.113   .     S
C962   H1001   1.113   .     S
C963   H1007   1.113   .     S
C963   H1008   1.109   .     S
C963   O1014   1.410   .     S
C963   H1009   1.113   .     S
C964   O1015   1.413   .     S
C964   H980    1.107   .     S
C964   H981    1.111   .     S
C964   H1010   1.115   .     S
C965   H982    1.107   .     S
C965   H983    1.115   .     S
C965   H984    1.111   .     S
C965   O1016   1.413   .     S
C966   H987    1.110   .     S
C966   H986    1.112   .     S
C966   H985    1.114   .     S
C967   H989    1.114   .     S
C967   H991    1.110   .     S
C967   H988    1.112   .     S
C967   O846    1.412   1_655 S
C968   H993    1.108   .     S
C968   H1250   1.107   .     S
C968   H1252   1.103   .     S
C968   O1277   1.413   .     S
C969   O1017   1.384   .     S
C969   C186    1.390   1_556 S
C970   H995    1.108   .     S
C970   H1512   1.107   1_545 S
C970   H1513   1.103   1_545 S
C970   O1536   1.413   1_545 S
C971   H999    1.099   .     S
C971   H998    1.111   .     S
C971   H828    1.104   1_655 S
C971   O849    1.399   1_655 S
C972   H1002   1.099   .     S
C972   H1003   1.111   .     S
C973   O1018   1.384   .     S
C974   C1233   1.361   .     S
C974   O1277   1.391   .     S
C975   C1490   1.361   1_545 S
C975   O1536   1.391   1_545 S
C976   O1026   1.289   .     A
C976   O1028   1.297   .     A
C977   O1029   1.297   .     A
C977   O1027   1.289   .     A
C978   O1030   1.380   .     S
H992   C1484   1.107   1_545 S
H994   C1484   1.103   1_545 S
H996   C1228   1.107   .     S
H997   C1228   1.103   .     S
H1004  C800    1.104   1_655 S
N1011  Zn1032  2.031   .     S
N1011  N840    1.294   1_655 S
N1011  O849    1.346   1_655 S
N1012  Zn1031  2.031   .     S
O1013  Zn1031  2.007   .     S
O1017  C794    1.412   1_655 S
O1019  C1484   1.413   1_545 S
O1019  C1490   1.391   1_545 S
O1020  C1228   1.413   .     S
O1020  C1233   1.391   .     S
O1022  C800    1.399   1_655 S
O1022  N840    1.346   1_655 S
O1023  Zn1032  2.007   .     S
O1024  Zn1032  2.020   .     S
O1025  Zn1031  2.020   .     S
O1026  Zn1031  2.010   .     S
O1027  Zn1032  2.010   .     S
O1028  Zn1032  2.021   .     S
O1029  Zn1031  2.021   .     S
C1033  C1060   1.424   .     S
C1033  O1110   1.296   .     A
C1033  O1099   1.285   .     A
C1034  O1100   1.380   .     S
C1034  C1045   1.398   .     A
C1034  C1036   1.396   .     A
C1035  C1063   1.432   .     S
C1035  C1037   1.397   .     A
C1035  C1064   1.396   .     A
C1036  C1038   1.397   .     A
C1036  C1062   1.432   .     S
C1037  O1101   1.384   .     S
C1037  C1039   1.393   .     A
C1038  C1040   1.393   .     A
C1038  O1102   1.384   .     S
C1039  C1041   1.411   .     A
C1039  C1046   1.399   .     A
C1040  C1047   1.399   .     A
C1040  C1042   1.411   .     A
C1041  C1043   1.418   .     A
C1042  C1045   1.418   .     A
C1042  C267    1.397   1_556 S
C1043  C1059   1.412   .     A
C1043  C1064   1.398   .     A
C1044  C1061   1.424   .     S
C1044  O1111   1.296   .     A
C1044  O1109   1.285   .     A
C1045  C1055   1.412   .     A
C1046  H1065   1.083   .     S
C1047  H1076   1.083   .     S
C1047  C285    1.390   1_556 S
C1048  O1116   1.410   .     S
C1048  H1092   1.109   .     S
C1048  H1091   1.113   .     S
C1048  H1087   1.113   .     S
C1049  H1093   1.113   .     S
C1049  H1094   1.109   .     S
C1049  O1100   1.410   .     S
C1049  H1095   1.113   .     S
C1050  O1101   1.413   .     S
C1050  H1066   1.107   .     S
C1050  H1067   1.111   .     S
C1050  H1096   1.115   .     S
C1051  H1068   1.107   .     S
C1051  H1069   1.115   .     S
C1051  H1070   1.111   .     S
C1051  O1102   1.413   .     S
C1052  H1073   1.110   .     S
C1052  H1072   1.112   .     S
C1052  H1071   1.114   .     S
C1052  O1275   1.412   1_455 S
C1053  H1075   1.114   .     S
C1053  H1077   1.110   .     S
C1053  H1074   1.112   .     S
C1053  O1190   1.412   .     S
C1054  H1079   1.108   .     S
C1054  H1336   1.107   .     S
C1054  H1338   1.103   .     S
C1054  O1363   1.413   .     S
C1055  O1103   1.384   .     S
C1055  C272    1.390   1_556 S
C1056  H1081   1.108   .     S
C1057  H1085   1.099   .     S
C1057  H1084   1.111   .     S
C1057  H1172   1.104   .     S
C1057  O1193   1.399   .     S
C1058  H1088   1.099   .     S
C1058  H1089   1.111   .     S
C1058  H1262   1.104   1_455 S
C1058  O1280   1.399   1_455 S
C1059  O1104   1.384   .     S
C1060  C1319   1.361   .     S
C1060  O1363   1.391   .     S
C1062  O1112   1.289   .     A
C1062  O1114   1.297   .     A
C1063  O1115   1.297   .     A
C1063  O1113   1.289   .     A
C1064  O1116   1.380   .     S
H1082  C1314   1.107   .     S
H1083  C1314   1.103   .     S
H1086  C1229   1.104   1_455 S
H1090  C1144   1.104   .     S
N1097  Zn1118  2.031   .     S
N1097  N1184   1.294   .     S
N1097  O1193   1.346   .     S
N1098  Zn1117  2.031   .     S
N1098  N1269   1.294   1_455 S
N1098  O1280   1.346   1_455 S
O1099  Zn1117  2.007   .     S
O1103  C1138   1.412   .     S
O1104  C1225   1.412   1_455 S
O1106  C1314   1.413   .     S
O1106  C1319   1.391   .     S
O1107  N1269   1.346   1_455 S
O1107  C1229   1.399   1_455 S
O1108  C1144   1.399   .     S
O1108  N1184   1.346   .     S
O1109  Zn1118  2.007   .     S
O1110  Zn1118  2.020   .     S
O1111  Zn1117  2.020   .     S
O1112  Zn1117  2.010   .     S
O1113  Zn1118  2.010   .     S
O1114  Zn1118  2.021   .     S
O1115  Zn1117  2.021   .     S
C1119  C1146   1.424   .     S
C1119  O1196   1.296   .     A
C1119  O1185   1.285   .     A
C1120  O1186   1.380   .     S
C1120  C1131   1.398   .     A
C1120  C1122   1.396   .     A
C1121  C1149   1.432   .     S
C1121  C1123   1.397   .     A
C1121  C1150   1.396   .     A
C1122  C1124   1.397   .     A
C1122  C1148   1.432   .     S
C1123  O1187   1.384   .     S
C1123  C1125   1.393   .     A
C1124  C1126   1.393   .     A
C1124  O1188   1.384   .     S
C1125  C1127   1.411   .     A
C1125  C1132   1.399   .     A
C1126  C1133   1.399   .     A
C1126  C1128   1.411   .     A
C1127  C1129   1.418   .     A
C1128  C1131   1.418   .     A
C1128  C353    1.397   1_556 S
C1129  C1145   1.412   .     A
C1129  C1150   1.398   .     A
C1130  C1147   1.424   .     S
C1130  O1197   1.296   .     A
C1130  O1195   1.285   .     A
C1131  C1141   1.412   .     A
C1132  H1151   1.083   .     S
C1133  H1162   1.083   .     S
C1133  C371    1.390   1_556 S
C1134  O1202   1.410   .     S
C1134  H1178   1.109   .     S
C1134  H1177   1.113   .     S
C1134  H1173   1.113   .     S
C1135  H1179   1.113   .     S
C1135  H1180   1.109   .     S
C1135  O1186   1.410   .     S
C1135  H1181   1.113   .     S
C1136  O1187   1.413   .     S
C1136  H1152   1.107   .     S
C1136  H1153   1.111   .     S
C1136  H1182   1.115   .     S
C1137  H1154   1.107   .     S
C1137  H1155   1.115   .     S
C1137  H1156   1.111   .     S
C1137  O1188   1.413   .     S
C1138  H1159   1.110   .     S
C1138  H1158   1.112   .     S
C1138  H1157   1.114   .     S
C1139  H1161   1.114   .     S
C1139  H1163   1.110   .     S
C1139  H1160   1.112   .     S
C1139  O1276   1.412   .     S
C1140  H1165   1.108   .     S
C1140  H1422   1.107   .     S
C1140  H1424   1.103   .     S
C1140  O1449   1.413   .     S
C1141  O1189   1.384   .     S
C1141  C358    1.390   1_556 S
C1142  H1167   1.108   .     S
C1143  H1171   1.099   .     S
C1143  H1170   1.111   .     S
C1143  H1258   1.104   .     S
C1143  O1279   1.399   .     S
C1144  H1174   1.099   .     S
C1144  H1175   1.111   .     S
C1145  O1190   1.384   .     S
C1146  C1405   1.361   .     S
C1146  O1449   1.391   .     S
C1148  O1198   1.289   .     A
C1148  O1200   1.297   .     A
C1149  O1201   1.297   .     A
C1149  O1199   1.289   .     A
C1150  O1202   1.380   .     S
H1168  C1400   1.107   .     S
H1169  C1400   1.103   .     S
H1176  C1230   1.104   .     S
N1183  Zn1204  2.031   .     S
N1183  N1270   1.294   .     S
N1183  O1279   1.346   .     S
N1184  Zn1203  2.031   .     S
O1185  Zn1203  2.007   .     S
O1189  C1224   1.412   .     S
O1192  C1400   1.413   .     S
O1192  C1405   1.391   .     S
O1194  C1230   1.399   .     S
O1194  N1270   1.346   .     S
O1195  Zn1204  2.007   .     S
O1196  Zn1204  2.020   .     S
O1197  Zn1203  2.020   .     S
O1198  Zn1203  2.010   .     S
O1199  Zn1204  2.010   .     S
O1200  Zn1204  2.021   .     S
O1201  Zn1203  2.021   .     S
C1205  C1232   1.424   .     S
C1205  O1282   1.296   .     A
C1205  O1271   1.285   .     A
C1206  O1272   1.380   .     S
C1206  C1217   1.398   .     A
C1206  C1208   1.396   .     A
C1207  C1235   1.432   .     S
C1207  C1209   1.397   .     A
C1207  C1236   1.396   .     A
C1208  C1210   1.397   .     A
C1208  C1234   1.432   .     S
C1209  O1273   1.384   .     S
C1209  C1211   1.393   .     A
C1210  C1212   1.393   .     A
C1210  O1274   1.384   .     S
C1211  C1213   1.411   .     A
C1211  C1218   1.399   .     A
C1212  C1219   1.399   .     A
C1212  C1214   1.411   .     A
C1213  C1215   1.418   .     A
C1214  C1217   1.418   .     A
C1214  C439    1.397   1_556 S
C1215  C1231   1.412   .     A
C1215  C1236   1.398   .     A
C1216  C1233   1.424   .     S
C1216  O1283   1.296   .     A
C1216  O1281   1.285   .     A
C1217  C1227   1.412   .     A
C1218  H1237   1.083   .     S
C1219  H1248   1.083   .     S
C1219  C457    1.390   1_556 S
C1220  O1288   1.410   .     S
C1220  H1264   1.109   .     S
C1220  H1263   1.113   .     S
C1220  H1259   1.113   .     S
C1221  H1265   1.113   .     S
C1221  H1266   1.109   .     S
C1221  O1272   1.410   .     S
C1221  H1267   1.113   .     S
C1222  O1273   1.413   .     S
C1222  H1238   1.107   .     S
C1222  H1239   1.111   .     S
C1222  H1268   1.115   .     S
C1223  H1240   1.107   .     S
C1223  H1241   1.115   .     S
C1223  H1242   1.111   .     S
C1223  O1274   1.413   .     S
C1224  H1245   1.110   .     S
C1224  H1244   1.112   .     S
C1224  H1243   1.114   .     S
C1225  H1247   1.114   .     S
C1225  H1249   1.110   .     S
C1225  H1246   1.112   .     S
C1225  O1104   1.412   1_655 S
C1226  H1251   1.108   .     S
C1226  H1508   1.107   .     S
C1226  H1510   1.103   .     S
C1226  O1535   1.413   .     S
C1227  O1275   1.384   .     S
C1227  C444    1.390   1_556 S
C1228  H1253   1.108   .     S
C1229  H1257   1.099   .     S
C1229  H1256   1.111   .     S
C1229  H1086   1.104   1_655 S
C1229  O1107   1.399   1_655 S
C1230  H1260   1.099   .     S
C1230  H1261   1.111   .     S
C1231  O1276   1.384   .     S
C1232  C1491   1.361   .     S
C1232  O1535   1.391   .     S
C1234  O1284   1.289   .     A
C1234  O1286   1.297   .     A
C1235  O1287   1.297   .     A
C1235  O1285   1.289   .     A
C1236  O1288   1.380   .     S
H1254  C1486   1.107   .     S
H1255  C1486   1.103   .     S
H1262  C1058   1.104   1_655 S
N1269  Zn1290  2.031   .     S
N1269  N1098   1.294   1_655 S
N1269  O1107   1.346   1_655 S
N1270  Zn1289  2.031   .     S
O1271  Zn1289  2.007   .     S
O1275  C1052   1.412   1_655 S
O1278  C1486   1.413   .     S
O1278  C1491   1.391   .     S
O1280  C1058   1.399   1_655 S
O1280  N1098   1.346   1_655 S
O1281  Zn1290  2.007   .     S
O1282  Zn1290  2.020   .     S
O1283  Zn1289  2.020   .     S
O1284  Zn1289  2.010   .     S
O1285  Zn1290  2.010   .     S
O1286  Zn1290  2.021   .     S
O1287  Zn1289  2.021   .     S
C1291  C1318   1.424   .     S
C1291  O1368   1.296   .     A
C1291  O1357   1.285   .     A
C1292  O1358   1.380   .     S
C1292  C1303   1.398   .     A
C1292  C1294   1.396   .     A
C1293  C1321   1.432   .     S
C1293  C1295   1.397   .     A
C1293  C1322   1.396   .     A
C1294  C1296   1.397   .     A
C1294  C1320   1.432   .     S
C1295  O1359   1.384   .     S
C1295  C1297   1.393   .     A
C1296  C1298   1.393   .     A
C1296  O1360   1.384   .     S
C1297  C1299   1.411   .     A
C1297  C1304   1.399   .     A
C1298  C1305   1.399   .     A
C1298  C1300   1.411   .     A
C1299  C1301   1.418   .     A
C1300  C1303   1.418   .     A
C1300  C525    1.397   1_556 S
C1301  C1317   1.412   .     A
C1301  C1322   1.398   .     A
C1302  C1319   1.424   .     S
C1302  O1369   1.296   .     A
C1302  O1367   1.285   .     A
C1303  C1313   1.412   .     A
C1304  H1323   1.083   .     S
C1305  H1334   1.083   .     S
C1305  C543    1.390   1_556 S
C1306  O1374   1.410   .     S
C1306  H1350   1.109   .     S
C1306  H1349   1.113   .     S
C1306  H1345   1.113   .     S
C1307  H1351   1.113   .     S
C1307  H1352   1.109   .     S
C1307  O1358   1.410   .     S
C1307  H1353   1.113   .     S
C1308  O1359   1.413   .     S
C1308  H1324   1.107   .     S
C1308  H1325   1.111   .     S
C1308  H1354   1.115   .     S
C1309  H1326   1.107   .     S
C1309  H1327   1.115   .     S
C1309  H1328   1.111   .     S
C1309  O1360   1.413   .     S
C1310  H1331   1.110   .     S
C1310  H1330   1.112   .     S
C1310  H1329   1.114   .     S
C1310  O1533   1.412   1_455 S
C1311  H1333   1.114   .     S
C1311  H1335   1.110   .     S
C1311  H1332   1.112   .     S
C1311  O1448   1.412   .     S
C1312  H1337   1.108   .     S
C1312  H820    1.107   1_565 S
C1312  H822    1.103   1_565 S
C1312  O847    1.413   1_565 S
C1313  O1361   1.384   .     S
C1313  C530    1.390   1_556 S
C1314  H1339   1.108   .     S
C1315  H1343   1.099   .     S
C1315  H1342   1.111   .     S
C1315  H1430   1.104   .     S
C1315  O1451   1.399   .     S
C1316  H1346   1.099   .     S
C1316  H1347   1.111   .     S
C1316  H1520   1.104   1_455 S
C1316  O1538   1.399   1_455 S
C1317  O1362   1.384   .     S
C1318  C803    1.361   1_565 S
C1318  O847    1.391   1_565 S
C1320  O1370   1.289   .     A
C1320  O1372   1.297   .     A
C1321  O1373   1.297   .     A
C1321  O1371   1.289   .     A
C1322  O1374   1.380   .     S
H1340  C798    1.107   1_565 S
H1341  C798    1.103   1_565 S
H1344  C1487   1.104   1_455 S
H1348  C1402   1.104   .     S
N1355  Zn1376  2.031   .     S
N1355  N1442   1.294   .     S
N1355  O1451   1.346   .     S
N1356  Zn1375  2.031   .     S
N1356  N1527   1.294   1_455 S
N1356  O1538   1.346   1_455 S
O1357  Zn1375  2.007   .     S
O1361  C1396   1.412   .     S
O1362  C1483   1.412   1_455 S
O1364  C798    1.413   1_565 S
O1364  C803    1.391   1_565 S
O1365  N1527   1.346   1_455 S
O1365  C1487   1.399   1_455 S
O1366  C1402   1.399   .     S
O1366  N1442   1.346   .     S
O1367  Zn1376  2.007   .     S
O1368  Zn1376  2.020   .     S
O1369  Zn1375  2.020   .     S
O1370  Zn1375  2.010   .     S
O1371  Zn1376  2.010   .     S
O1372  Zn1376  2.021   .     S
O1373  Zn1375  2.021   .     S
C1377  C1404   1.424   .     S
C1377  O1454   1.296   .     A
C1377  O1443   1.285   .     A
C1378  O1444   1.380   .     S
C1378  C1389   1.398   .     A
C1378  C1380   1.396   .     A
C1379  C1407   1.432   .     S
C1379  C1381   1.397   .     A
C1379  C1408   1.396   .     A
C1380  C1382   1.397   .     A
C1380  C1406   1.432   .     S
C1381  O1445   1.384   .     S
C1381  C1383   1.393   .     A
C1382  C1384   1.393   .     A
C1382  O1446   1.384   .     S
C1383  C1385   1.411   .     A
C1383  C1390   1.399   .     A
C1384  C1391   1.399   .     A
C1384  C1386   1.411   .     A
C1385  C1387   1.418   .     A
C1386  C1389   1.418   .     A
C1386  C611    1.397   1_556 S
C1387  C1403   1.412   .     A
C1387  C1408   1.398   .     A
C1388  C1405   1.424   .     S
C1388  O1455   1.296   .     A
C1388  O1453   1.285   .     A
C1389  C1399   1.412   .     A
C1390  H1409   1.083   .     S
C1391  H1420   1.083   .     S
C1391  C629    1.390   1_556 S
C1392  O1460   1.410   .     S
C1392  H1436   1.109   .     S
C1392  H1435   1.113   .     S
C1392  H1431   1.113   .     S
C1393  H1437   1.113   .     S
C1393  H1438   1.109   .     S
C1393  O1444   1.410   .     S
C1393  H1439   1.113   .     S
C1394  O1445   1.413   .     S
C1394  H1410   1.107   .     S
C1394  H1411   1.111   .     S
C1394  H1440   1.115   .     S
C1395  H1412   1.107   .     S
C1395  H1413   1.115   .     S
C1395  H1414   1.111   .     S
C1395  O1446   1.413   .     S
C1396  H1417   1.110   .     S
C1396  H1416   1.112   .     S
C1396  H1415   1.114   .     S
C1397  H1419   1.114   .     S
C1397  H1421   1.110   .     S
C1397  H1418   1.112   .     S
C1397  O1534   1.412   .     S
C1398  H1423   1.108   .     S
C1398  H906    1.107   1_565 S
C1398  H908    1.103   1_565 S
C1398  O933    1.413   1_565 S
C1399  O1447   1.384   .     S
C1399  C616    1.390   1_556 S
C1400  H1425   1.108   .     S
C1401  H1429   1.099   .     S
C1401  H1428   1.111   .     S
C1401  H1516   1.104   .     S
C1401  O1537   1.399   .     S
C1402  H1432   1.099   .     S
C1402  H1433   1.111   .     S
C1403  O1448   1.384   .     S
C1404  C889    1.361   1_565 S
C1404  O933    1.391   1_565 S
C1406  O1456   1.289   .     A
C1406  O1458   1.297   .     A
C1407  O1459   1.297   .     A
C1407  O1457   1.289   .     A
C1408  O1460   1.380   .     S
H1426  C884    1.107   1_565 S
H1427  C884    1.103   1_565 S
H1434  C1488   1.104   .     S
N1441  Zn1462  2.031   .     S
N1441  N1528   1.294   .     S
N1441  O1537   1.346   .     S
N1442  Zn1461  2.031   .     S
O1443  Zn1461  2.007   .     S
O1447  C1482   1.412   .     S
O1450  C884    1.413   1_565 S
O1450  C889    1.391   1_565 S
O1452  C1488   1.399   .     S
O1452  N1528   1.346   .     S
O1453  Zn1462  2.007   .     S
O1454  Zn1462  2.020   .     S
O1455  Zn1461  2.020   .     S
O1456  Zn1461  2.010   .     S
O1457  Zn1462  2.010   .     S
O1458  Zn1462  2.021   .     S
O1459  Zn1461  2.021   .     S
C1463  C1490   1.424   .     S
C1463  O1540   1.296   .     A
C1463  O1529   1.285   .     A
C1464  O1530   1.380   .     S
C1464  C1475   1.398   .     A
C1464  C1466   1.396   .     A
C1465  C1493   1.432   .     S
C1465  C1467   1.397   .     A
C1465  C1494   1.396   .     A
C1466  C1468   1.397   .     A
C1466  C1492   1.432   .     S
C1467  O1531   1.384   .     S
C1467  C1469   1.393   .     A
C1468  C1470   1.393   .     A
C1468  O1532   1.384   .     S
C1469  C1471   1.411   .     A
C1469  C1476   1.399   .     A
C1470  C1477   1.399   .     A
C1470  C1472   1.411   .     A
C1471  C1473   1.418   .     A
C1472  C1475   1.418   .     A
C1472  C697    1.397   1_556 S
C1473  C1489   1.412   .     A
C1473  C1494   1.398   .     A
C1474  C1491   1.424   .     S
C1474  O1541   1.296   .     A
C1474  O1539   1.285   .     A
C1475  C1485   1.412   .     A
C1476  H1495   1.083   .     S
C1477  H1506   1.083   .     S
C1477  C715    1.390   1_556 S
C1478  O1546   1.410   .     S
C1478  H1522   1.109   .     S
C1478  H1521   1.113   .     S
C1478  H1517   1.113   .     S
C1479  H1523   1.113   .     S
C1479  H1524   1.109   .     S
C1479  O1530   1.410   .     S
C1479  H1525   1.113   .     S
C1480  O1531   1.413   .     S
C1480  H1496   1.107   .     S
C1480  H1497   1.111   .     S
C1480  H1526   1.115   .     S
C1481  H1498   1.107   .     S
C1481  H1499   1.115   .     S
C1481  H1500   1.111   .     S
C1481  O1532   1.413   .     S
C1482  H1503   1.110   .     S
C1482  H1502   1.112   .     S
C1482  H1501   1.114   .     S
C1483  H1505   1.114   .     S
C1483  H1507   1.110   .     S
C1483  H1504   1.112   .     S
C1483  O1362   1.412   1_655 S
C1484  H1509   1.108   .     S
C1484  H992    1.107   1_565 S
C1484  H994    1.103   1_565 S
C1484  O1019   1.413   1_565 S
C1485  O1533   1.384   .     S
C1485  C702    1.390   1_556 S
C1486  H1511   1.108   .     S
C1487  H1515   1.099   .     S
C1487  H1514   1.111   .     S
C1487  H1344   1.104   1_655 S
C1487  O1365   1.399   1_655 S
C1488  H1518   1.099   .     S
C1488  H1519   1.111   .     S
C1489  O1534   1.384   .     S
C1490  C975    1.361   1_565 S
C1490  O1019   1.391   1_565 S
C1492  O1542   1.289   .     A
C1492  O1544   1.297   .     A
C1493  O1545   1.297   .     A
C1493  O1543   1.289   .     A
C1494  O1546   1.380   .     S
H1512  C970    1.107   1_565 S
H1513  C970    1.103   1_565 S
H1520  C1316   1.104   1_655 S
N1527  Zn1548  2.031   .     S
N1527  N1356   1.294   1_655 S
N1527  O1365   1.346   1_655 S
N1528  Zn1547  2.031   .     S
O1529  Zn1547  2.007   .     S
O1533  C1310   1.412   1_655 S
O1536  C970    1.413   1_565 S
O1536  C975    1.391   1_565 S
O1538  C1316   1.399   1_655 S
O1538  N1356   1.346   1_655 S
O1539  Zn1548  2.007   .     S
O1540  Zn1548  2.020   .     S
O1541  Zn1547  2.020   .     S
O1542  Zn1547  2.010   .     S
O1543  Zn1548  2.010   .     S
O1544  Zn1548  2.021   .     S
O1545  Zn1547  2.021   .     S
