data_str_m3_o1_o18_pcu_sym.149
_audit_creation_date              2020-01-03
_audit_creation_method            'Materials Studio'
_symmetry_space_group_name_H-M    'P1'
_symmetry_Int_Tables_number       1
_symmetry_cell_setting            triclinic
loop_
_symmetry_equiv_pos_as_xyz
  x,y,z
_cell_length_a                    29.5640
_cell_length_b                    31.9710
_cell_length_c                    30.5782
_cell_angle_alpha                 90.4506
_cell_angle_beta                  68.1178
_cell_angle_gamma                 90.0416
loop_
_atom_site_label
_atom_site_type_symbol
_atom_site_fract_x
_atom_site_fract_y
_atom_site_fract_z
_atom_site_U_iso_or_equiv
_atom_site_adp_type
_atom_site_occupancy
C1     C     0.16591   0.24654   0.25210   0.00000  Uiso   1.00
C2     C     0.16727   0.08673   0.24814   0.00000  Uiso   1.00
C3     C     0.09942   0.14833   0.05891   0.00000  Uiso   1.00
C4     C     0.20453   0.10608   0.45881   0.00000  Uiso   1.00
C5     C     0.06704   0.15878   0.03741   0.00000  Uiso   1.00
C6     C     0.23961   0.10244   0.47898   0.00000  Uiso   1.00
C7     C     0.17778   0.31344   0.28647   0.00000  Uiso   1.00
C8     C     0.15343   0.01966   0.21534   0.00000  Uiso   1.00
C9     C     0.17902   0.02315   0.28304   0.00000  Uiso   1.00
C10    C     0.15281   0.31003   0.21844   0.00000  Uiso   1.00
C11    C     0.16703   0.04252   0.24806   0.00000  Uiso   1.00
C12    C     0.16535   0.29068   0.25299   0.00000  Uiso   1.00
C13    C     0.32137   0.19065   0.21886   0.00000  Uiso   1.00
C14    C     0.01198   0.14263   0.28108   0.00000  Uiso   1.00
C15    C     0.03595   0.19068   0.21890   0.00000  Uiso   1.00
C16    C     0.29740   0.14260   0.28106   0.00000  Uiso   1.00
C17    C     0.13624   0.16637   0.33830   0.00000  Uiso   1.00
C18    C     0.19707   0.16634   0.16159   0.00000  Uiso   1.00
C19    C     0.11665   0.16376   0.38961   0.00000  Uiso   1.00
C20    C     0.21502   0.15802   0.11084   0.00000  Uiso   1.00
C21    C     0.05168   0.17548   0.46544   0.00000  Uiso   1.00
C22    C     0.26831   0.11850   0.04271   0.00000  Uiso   1.00
C23    C     0.06861   0.17531   0.41632   0.00000  Uiso   1.00
C24    C     0.25891   0.13671   0.08742   0.00000  Uiso   1.00
C25    C     0.14698   0.14960   0.41183   0.00000  Uiso   1.00
C26    C     0.18185   0.16287   0.08891   0.00000  Uiso   1.00
C27    C     0.12981   0.14482   0.46063   0.00000  Uiso   1.00
C28    C     0.18712   0.14059   0.04799   0.00000  Uiso   1.00
C29    C     0.08239   0.16009   0.48821   0.00000  Uiso   1.00
C30    C     0.23225   0.12078   0.02279   0.00000  Uiso   1.00
C31    C     0.16097   0.12947   0.48269   0.00000  Uiso   1.00
C32    C     0.14902   0.13945   0.03061   0.00000  Uiso   1.00
H33    H     0.02987   0.16565   0.06007   0.00000  Uiso   1.00
H34    H     0.27265   0.08500   0.46005   0.00000  Uiso   1.00
H35    H     0.15016   0.18246   0.10574   0.00000  Uiso   1.00
H36    H     0.18480   0.14348   0.39060   0.00000  Uiso   1.00
H37    H     0.28433   0.13219   0.10491   0.00000  Uiso   1.00
H38    H     0.04501   0.18669   0.39910   0.00000  Uiso   1.00
H39    H     0.18796   0.04187   0.30847   0.00000  Uiso   1.00
H40    H     0.14401   0.29134   0.19290   0.00000  Uiso   1.00
H41    H     0.31285   0.20982   0.19395   0.00000  Uiso   1.00
H42    H     0.02053   0.12341   0.30595   0.00000  Uiso   1.00
H43    H     0.06366   0.20991   0.19400   0.00000  Uiso   1.00
H44    H     0.26970   0.12332   0.30591   0.00000  Uiso   1.00
N45    N     0.04759   0.16668   0.25001   0.00000  Uiso   1.00
N46    N     0.28574   0.16666   0.24999   0.00000  Uiso   1.00
O47    O     0.12846   0.22775   0.25000   0.00000  Uiso   1.00
O48    O     0.20488   0.10558   0.24999   0.00000  Uiso   1.00
O49    O     0.20490   0.22774   0.25000   0.00000  Uiso   1.00
O50    O     0.12843   0.10559   0.25000   0.00000  Uiso   1.00
O51    O     0.10661   0.16667   0.31612   0.00000  Uiso   1.00
O52    O     0.22672   0.16666   0.18387   0.00000  Uiso   1.00
O53    O     0.18305   0.16666   0.31612   0.00000  Uiso   1.00
O54    O     0.15028   0.16667   0.18388   0.00000  Uiso   1.00
Zn55   Zn    0.11562   0.16667   0.25000   0.00000  Uiso   1.00
Zn56   Zn    0.21771   0.16666   0.25000   0.00000  Uiso   1.00
O57    O     0.00570   0.19173   0.48918   0.00000  Uiso   1.00
H58    H     0.00493   0.20551   0.01849   0.00000  Uiso   1.00
O59    O     0.31091   0.09662   0.01929   0.00000  Uiso   1.00
H60    H     0.33066   0.09596   0.03930   0.00000  Uiso   1.00
O61    O     0.08020   0.14383   0.10724   0.00000  Uiso   1.00
H62    H     0.09992   0.12271   0.11585   0.00000  Uiso   1.00
O63    O     0.21226   0.08316   0.41824   0.00000  Uiso   1.00
H64    H     0.18006   0.07519   0.41769   0.00000  Uiso   1.00
C65    C     0.18728   0.29332   0.32704   0.00000  Uiso   1.00
C66    C     0.13999   0.27784   0.36467   0.00000  Uiso   1.00
H67    H     0.11505   0.30463   0.38002   0.00000  Uiso   1.00
H68    H     0.12137   0.25507   0.34958   0.00000  Uiso   1.00
H69    H     0.14814   0.26229   0.39325   0.00000  Uiso   1.00
H70    H     0.21381   0.26726   0.31444   0.00000  Uiso   1.00
H71    H     0.20405   0.31620   0.34405   0.00000  Uiso   1.00
C72    C     0.14325   0.03926   0.17493   0.00000  Uiso   1.00
C73    C     0.19073   0.05019   0.13487   0.00000  Uiso   1.00
H74    H     0.21252   0.07191   0.14756   0.00000  Uiso   1.00
H75    H     0.21245   0.02142   0.12067   0.00000  Uiso   1.00
H76    H     0.18250   0.06525   0.10611   0.00000  Uiso   1.00
H77    H     0.12283   0.01712   0.16090   0.00000  Uiso   1.00
H78    H     0.11971   0.06732   0.18635   0.00000  Uiso   1.00
C79    C     0.49924   0.24654   0.25210   0.00000  Uiso   1.00
C80    C     0.50060   0.08673   0.24814   0.00000  Uiso   1.00
C81    C     0.43276   0.14833   0.05891   0.00000  Uiso   1.00
C82    C     0.53786   0.10608   0.45881   0.00000  Uiso   1.00
C83    C     0.40037   0.15878   0.03741   0.00000  Uiso   1.00
C84    C     0.57295   0.10244   0.47898   0.00000  Uiso   1.00
C85    C     0.51111   0.31344   0.28647   0.00000  Uiso   1.00
C86    C     0.48676   0.01966   0.21534   0.00000  Uiso   1.00
C87    C     0.51235   0.02315   0.28304   0.00000  Uiso   1.00
C88    C     0.48615   0.31003   0.21844   0.00000  Uiso   1.00
C89    C     0.50036   0.04252   0.24806   0.00000  Uiso   1.00
C90    C     0.49868   0.29068   0.25299   0.00000  Uiso   1.00
C91    C     0.65471   0.19065   0.21886   0.00000  Uiso   1.00
C92    C     0.34532   0.14263   0.28108   0.00000  Uiso   1.00
C93    C     0.36929   0.19068   0.21890   0.00000  Uiso   1.00
C94    C     0.63073   0.14260   0.28106   0.00000  Uiso   1.00
C95    C     0.46957   0.16637   0.33830   0.00000  Uiso   1.00
C96    C     0.53041   0.16634   0.16159   0.00000  Uiso   1.00
C97    C     0.44998   0.16376   0.38961   0.00000  Uiso   1.00
C98    C     0.54835   0.15802   0.11084   0.00000  Uiso   1.00
C99    C     0.38501   0.17548   0.46544   0.00000  Uiso   1.00
C100   C     0.60165   0.11850   0.04271   0.00000  Uiso   1.00
C101   C     0.40195   0.17531   0.41632   0.00000  Uiso   1.00
C102   C     0.59225   0.13671   0.08742   0.00000  Uiso   1.00
C103   C     0.48031   0.14960   0.41183   0.00000  Uiso   1.00
C104   C     0.51518   0.16287   0.08891   0.00000  Uiso   1.00
C105   C     0.46314   0.14482   0.46063   0.00000  Uiso   1.00
C106   C     0.52045   0.14059   0.04799   0.00000  Uiso   1.00
C107   C     0.41573   0.16009   0.48821   0.00000  Uiso   1.00
C108   C     0.56558   0.12078   0.02279   0.00000  Uiso   1.00
C109   C     0.49430   0.12947   0.48269   0.00000  Uiso   1.00
C110   C     0.48235   0.13945   0.03061   0.00000  Uiso   1.00
H111   H     0.36321   0.16565   0.06007   0.00000  Uiso   1.00
H112   H     0.60599   0.08500   0.46005   0.00000  Uiso   1.00
H113   H     0.48350   0.18246   0.10574   0.00000  Uiso   1.00
H114   H     0.51813   0.14348   0.39060   0.00000  Uiso   1.00
H115   H     0.61766   0.13219   0.10491   0.00000  Uiso   1.00
H116   H     0.37834   0.18669   0.39910   0.00000  Uiso   1.00
H117   H     0.52130   0.04187   0.30847   0.00000  Uiso   1.00
H118   H     0.47734   0.29134   0.19290   0.00000  Uiso   1.00
H119   H     0.64618   0.20982   0.19395   0.00000  Uiso   1.00
H120   H     0.35387   0.12341   0.30595   0.00000  Uiso   1.00
H121   H     0.39700   0.20991   0.19400   0.00000  Uiso   1.00
H122   H     0.60304   0.12332   0.30591   0.00000  Uiso   1.00
N123   N     0.38093   0.16668   0.25001   0.00000  Uiso   1.00
N124   N     0.61907   0.16666   0.24999   0.00000  Uiso   1.00
O125   O     0.46179   0.22775   0.25000   0.00000  Uiso   1.00
O126   O     0.53821   0.10558   0.24999   0.00000  Uiso   1.00
O127   O     0.53823   0.22774   0.25000   0.00000  Uiso   1.00
O128   O     0.46177   0.10559   0.25000   0.00000  Uiso   1.00
O129   O     0.43994   0.16667   0.31612   0.00000  Uiso   1.00
O130   O     0.56006   0.16666   0.18387   0.00000  Uiso   1.00
O131   O     0.51639   0.16666   0.31612   0.00000  Uiso   1.00
O132   O     0.48361   0.16667   0.18388   0.00000  Uiso   1.00
Zn133  Zn    0.44896   0.16667   0.25000   0.00000  Uiso   1.00
Zn134  Zn    0.55104   0.16666   0.25000   0.00000  Uiso   1.00
O135   O     0.33903   0.19173   0.48918   0.00000  Uiso   1.00
H136   H     0.33827   0.20551   0.01849   0.00000  Uiso   1.00
O137   O     0.64424   0.09662   0.01929   0.00000  Uiso   1.00
H138   H     0.66399   0.09596   0.03930   0.00000  Uiso   1.00
O139   O     0.41353   0.14383   0.10724   0.00000  Uiso   1.00
H140   H     0.43325   0.12271   0.11585   0.00000  Uiso   1.00
O141   O     0.54560   0.08316   0.41824   0.00000  Uiso   1.00
H142   H     0.51339   0.07519   0.41769   0.00000  Uiso   1.00
C143   C     0.52061   0.29332   0.32704   0.00000  Uiso   1.00
C144   C     0.47332   0.27784   0.36467   0.00000  Uiso   1.00
H145   H     0.44838   0.30463   0.38002   0.00000  Uiso   1.00
H146   H     0.45470   0.25507   0.34958   0.00000  Uiso   1.00
H147   H     0.48148   0.26229   0.39325   0.00000  Uiso   1.00
H148   H     0.54715   0.26726   0.31444   0.00000  Uiso   1.00
H149   H     0.53738   0.31620   0.34405   0.00000  Uiso   1.00
C150   C     0.47658   0.03926   0.17493   0.00000  Uiso   1.00
C151   C     0.52406   0.05019   0.13487   0.00000  Uiso   1.00
H152   H     0.54585   0.07191   0.14756   0.00000  Uiso   1.00
H153   H     0.54578   0.02142   0.12067   0.00000  Uiso   1.00
H154   H     0.51583   0.06525   0.10611   0.00000  Uiso   1.00
H155   H     0.45616   0.01712   0.16090   0.00000  Uiso   1.00
H156   H     0.45304   0.06732   0.18635   0.00000  Uiso   1.00
C157   C     0.83257   0.24654   0.25210   0.00000  Uiso   1.00
C158   C     0.83394   0.08673   0.24814   0.00000  Uiso   1.00
C159   C     0.76609   0.14833   0.05891   0.00000  Uiso   1.00
C160   C     0.87119   0.10608   0.45881   0.00000  Uiso   1.00
C161   C     0.73371   0.15878   0.03741   0.00000  Uiso   1.00
C162   C     0.90628   0.10244   0.47898   0.00000  Uiso   1.00
C163   C     0.84444   0.31344   0.28647   0.00000  Uiso   1.00
C164   C     0.82010   0.01966   0.21534   0.00000  Uiso   1.00
C165   C     0.84568   0.02315   0.28304   0.00000  Uiso   1.00
C166   C     0.81948   0.31003   0.21844   0.00000  Uiso   1.00
C167   C     0.83370   0.04252   0.24806   0.00000  Uiso   1.00
C168   C     0.83201   0.29068   0.25299   0.00000  Uiso   1.00
C169   C     0.98804   0.19065   0.21886   0.00000  Uiso   1.00
C170   C     0.67865   0.14263   0.28108   0.00000  Uiso   1.00
C171   C     0.70262   0.19068   0.21890   0.00000  Uiso   1.00
C172   C     0.96406   0.14260   0.28106   0.00000  Uiso   1.00
C173   C     0.80290   0.16637   0.33830   0.00000  Uiso   1.00
C174   C     0.86374   0.16634   0.16159   0.00000  Uiso   1.00
C175   C     0.78331   0.16376   0.38961   0.00000  Uiso   1.00
C176   C     0.88169   0.15802   0.11084   0.00000  Uiso   1.00
C177   C     0.71834   0.17548   0.46544   0.00000  Uiso   1.00
C178   C     0.93498   0.11850   0.04271   0.00000  Uiso   1.00
C179   C     0.73528   0.17531   0.41632   0.00000  Uiso   1.00
C180   C     0.92558   0.13671   0.08742   0.00000  Uiso   1.00
C181   C     0.81365   0.14960   0.41183   0.00000  Uiso   1.00
C182   C     0.84851   0.16287   0.08891   0.00000  Uiso   1.00
C183   C     0.79648   0.14482   0.46063   0.00000  Uiso   1.00
C184   C     0.85378   0.14059   0.04799   0.00000  Uiso   1.00
C185   C     0.74906   0.16009   0.48821   0.00000  Uiso   1.00
C186   C     0.89892   0.12078   0.02279   0.00000  Uiso   1.00
C187   C     0.82763   0.12947   0.48269   0.00000  Uiso   1.00
C188   C     0.81568   0.13945   0.03061   0.00000  Uiso   1.00
H189   H     0.69654   0.16565   0.06007   0.00000  Uiso   1.00
H190   H     0.93932   0.08500   0.46005   0.00000  Uiso   1.00
H191   H     0.81683   0.18246   0.10574   0.00000  Uiso   1.00
H192   H     0.85146   0.14348   0.39060   0.00000  Uiso   1.00
H193   H     0.95100   0.13219   0.10491   0.00000  Uiso   1.00
H194   H     0.71167   0.18669   0.39910   0.00000  Uiso   1.00
H195   H     0.85463   0.04187   0.30847   0.00000  Uiso   1.00
H196   H     0.81067   0.29134   0.19290   0.00000  Uiso   1.00
H197   H     0.97951   0.20982   0.19395   0.00000  Uiso   1.00
H198   H     0.68720   0.12341   0.30595   0.00000  Uiso   1.00
H199   H     0.73033   0.20991   0.19400   0.00000  Uiso   1.00
H200   H     0.93637   0.12332   0.30591   0.00000  Uiso   1.00
N201   N     0.71426   0.16668   0.25001   0.00000  Uiso   1.00
N202   N     0.95241   0.16666   0.24999   0.00000  Uiso   1.00
O203   O     0.79512   0.22775   0.25000   0.00000  Uiso   1.00
O204   O     0.87154   0.10558   0.24999   0.00000  Uiso   1.00
O205   O     0.87157   0.22774   0.25000   0.00000  Uiso   1.00
O206   O     0.79510   0.10559   0.25000   0.00000  Uiso   1.00
O207   O     0.77328   0.16667   0.31612   0.00000  Uiso   1.00
O208   O     0.89339   0.16666   0.18387   0.00000  Uiso   1.00
O209   O     0.84972   0.16666   0.31612   0.00000  Uiso   1.00
O210   O     0.81695   0.16667   0.18388   0.00000  Uiso   1.00
Zn211  Zn    0.78229   0.16667   0.25000   0.00000  Uiso   1.00
Zn212  Zn    0.88438   0.16666   0.25000   0.00000  Uiso   1.00
O213   O     0.67237   0.19173   0.48918   0.00000  Uiso   1.00
H214   H     0.67160   0.20551   0.01849   0.00000  Uiso   1.00
O215   O     0.97758   0.09662   0.01929   0.00000  Uiso   1.00
H216   H     0.99733   0.09596   0.03930   0.00000  Uiso   1.00
O217   O     0.74687   0.14383   0.10724   0.00000  Uiso   1.00
H218   H     0.76659   0.12271   0.11585   0.00000  Uiso   1.00
O219   O     0.87893   0.08316   0.41824   0.00000  Uiso   1.00
H220   H     0.84673   0.07519   0.41769   0.00000  Uiso   1.00
C221   C     0.85394   0.29332   0.32704   0.00000  Uiso   1.00
C222   C     0.80665   0.27784   0.36467   0.00000  Uiso   1.00
H223   H     0.78172   0.30463   0.38002   0.00000  Uiso   1.00
H224   H     0.78804   0.25507   0.34958   0.00000  Uiso   1.00
H225   H     0.81481   0.26229   0.39325   0.00000  Uiso   1.00
H226   H     0.88048   0.26726   0.31444   0.00000  Uiso   1.00
H227   H     0.87071   0.31620   0.34405   0.00000  Uiso   1.00
C228   C     0.80991   0.03926   0.17493   0.00000  Uiso   1.00
C229   C     0.85739   0.05019   0.13487   0.00000  Uiso   1.00
H230   H     0.87919   0.07191   0.14756   0.00000  Uiso   1.00
H231   H     0.87911   0.02142   0.12067   0.00000  Uiso   1.00
H232   H     0.84917   0.06525   0.10611   0.00000  Uiso   1.00
H233   H     0.78949   0.01712   0.16090   0.00000  Uiso   1.00
H234   H     0.78638   0.06732   0.18635   0.00000  Uiso   1.00
C235   C     0.16591   0.57988   0.25210   0.00000  Uiso   1.00
C236   C     0.16727   0.42006   0.24814   0.00000  Uiso   1.00
C237   C     0.09942   0.48166   0.05891   0.00000  Uiso   1.00
C238   C     0.20453   0.43941   0.45881   0.00000  Uiso   1.00
C239   C     0.06704   0.49212   0.03741   0.00000  Uiso   1.00
C240   C     0.23961   0.43577   0.47898   0.00000  Uiso   1.00
C241   C     0.17778   0.64677   0.28647   0.00000  Uiso   1.00
C242   C     0.15343   0.35299   0.21534   0.00000  Uiso   1.00
C243   C     0.17902   0.35648   0.28304   0.00000  Uiso   1.00
C244   C     0.15281   0.64336   0.21844   0.00000  Uiso   1.00
C245   C     0.16703   0.37586   0.24806   0.00000  Uiso   1.00
C246   C     0.16535   0.62401   0.25299   0.00000  Uiso   1.00
C247   C     0.32137   0.52398   0.21886   0.00000  Uiso   1.00
C248   C     0.01198   0.47596   0.28108   0.00000  Uiso   1.00
C249   C     0.03595   0.52402   0.21890   0.00000  Uiso   1.00
C250   C     0.29740   0.47594   0.28106   0.00000  Uiso   1.00
C251   C     0.13624   0.49970   0.33830   0.00000  Uiso   1.00
C252   C     0.19707   0.49967   0.16159   0.00000  Uiso   1.00
C253   C     0.11665   0.49709   0.38961   0.00000  Uiso   1.00
C254   C     0.21502   0.49136   0.11084   0.00000  Uiso   1.00
C255   C     0.05168   0.50882   0.46544   0.00000  Uiso   1.00
C256   C     0.26831   0.45183   0.04271   0.00000  Uiso   1.00
C257   C     0.06861   0.50864   0.41632   0.00000  Uiso   1.00
C258   C     0.25891   0.47005   0.08742   0.00000  Uiso   1.00
C259   C     0.14698   0.48293   0.41183   0.00000  Uiso   1.00
C260   C     0.18185   0.49620   0.08891   0.00000  Uiso   1.00
C261   C     0.12981   0.47816   0.46063   0.00000  Uiso   1.00
C262   C     0.18712   0.47392   0.04799   0.00000  Uiso   1.00
C263   C     0.08239   0.49342   0.48821   0.00000  Uiso   1.00
C264   C     0.23225   0.45411   0.02279   0.00000  Uiso   1.00
C265   C     0.16097   0.46281   0.48269   0.00000  Uiso   1.00
C266   C     0.14902   0.47279   0.03061   0.00000  Uiso   1.00
H267   H     0.02987   0.49898   0.06007   0.00000  Uiso   1.00
H268   H     0.27265   0.41833   0.46005   0.00000  Uiso   1.00
H269   H     0.15016   0.51579   0.10574   0.00000  Uiso   1.00
H270   H     0.18480   0.47682   0.39060   0.00000  Uiso   1.00
H271   H     0.28433   0.46552   0.10491   0.00000  Uiso   1.00
H272   H     0.04501   0.52003   0.39910   0.00000  Uiso   1.00
H273   H     0.18796   0.37520   0.30847   0.00000  Uiso   1.00
H274   H     0.14401   0.62467   0.19290   0.00000  Uiso   1.00
H275   H     0.31285   0.54316   0.19395   0.00000  Uiso   1.00
H276   H     0.02053   0.45674   0.30595   0.00000  Uiso   1.00
H277   H     0.06366   0.54325   0.19400   0.00000  Uiso   1.00
H278   H     0.26970   0.45666   0.30591   0.00000  Uiso   1.00
N279   N     0.04759   0.50001   0.25001   0.00000  Uiso   1.00
N280   N     0.28574   0.49999   0.24999   0.00000  Uiso   1.00
O281   O     0.12846   0.56108   0.25000   0.00000  Uiso   1.00
O282   O     0.20488   0.43892   0.24999   0.00000  Uiso   1.00
O283   O     0.20490   0.56107   0.25000   0.00000  Uiso   1.00
O284   O     0.12843   0.43893   0.25000   0.00000  Uiso   1.00
O285   O     0.10661   0.50001   0.31612   0.00000  Uiso   1.00
O286   O     0.22672   0.49999   0.18387   0.00000  Uiso   1.00
O287   O     0.18305   0.50000   0.31612   0.00000  Uiso   1.00
O288   O     0.15028   0.50000   0.18388   0.00000  Uiso   1.00
Zn289  Zn    0.11562   0.50001   0.25000   0.00000  Uiso   1.00
Zn290  Zn    0.21771   0.49999   0.25000   0.00000  Uiso   1.00
O291   O     0.00570   0.52507   0.48918   0.00000  Uiso   1.00
H292   H     0.00493   0.53884   0.01849   0.00000  Uiso   1.00
O293   O     0.31091   0.42996   0.01929   0.00000  Uiso   1.00
H294   H     0.33066   0.42929   0.03930   0.00000  Uiso   1.00
O295   O     0.08020   0.47717   0.10724   0.00000  Uiso   1.00
H296   H     0.09992   0.45604   0.11585   0.00000  Uiso   1.00
O297   O     0.21226   0.41649   0.41824   0.00000  Uiso   1.00
H298   H     0.18006   0.40853   0.41769   0.00000  Uiso   1.00
C299   C     0.18728   0.62665   0.32704   0.00000  Uiso   1.00
C300   C     0.13999   0.61118   0.36467   0.00000  Uiso   1.00
H301   H     0.11505   0.63796   0.38002   0.00000  Uiso   1.00
H302   H     0.12137   0.58840   0.34958   0.00000  Uiso   1.00
H303   H     0.14814   0.59562   0.39325   0.00000  Uiso   1.00
H304   H     0.21381   0.60060   0.31444   0.00000  Uiso   1.00
H305   H     0.20405   0.64953   0.34405   0.00000  Uiso   1.00
C306   C     0.14325   0.37259   0.17493   0.00000  Uiso   1.00
C307   C     0.19073   0.38352   0.13487   0.00000  Uiso   1.00
H308   H     0.21252   0.40524   0.14756   0.00000  Uiso   1.00
H309   H     0.21245   0.35475   0.12067   0.00000  Uiso   1.00
H310   H     0.18250   0.39858   0.10611   0.00000  Uiso   1.00
H311   H     0.12283   0.35046   0.16090   0.00000  Uiso   1.00
H312   H     0.11971   0.40065   0.18635   0.00000  Uiso   1.00
C313   C     0.49924   0.57988   0.25210   0.00000  Uiso   1.00
C314   C     0.50060   0.42006   0.24814   0.00000  Uiso   1.00
C315   C     0.43276   0.48166   0.05891   0.00000  Uiso   1.00
C316   C     0.53786   0.43941   0.45881   0.00000  Uiso   1.00
C317   C     0.40037   0.49212   0.03741   0.00000  Uiso   1.00
C318   C     0.57295   0.43577   0.47898   0.00000  Uiso   1.00
C319   C     0.51111   0.64677   0.28647   0.00000  Uiso   1.00
C320   C     0.48676   0.35299   0.21534   0.00000  Uiso   1.00
C321   C     0.51235   0.35648   0.28304   0.00000  Uiso   1.00
C322   C     0.48615   0.64336   0.21844   0.00000  Uiso   1.00
C323   C     0.50036   0.37586   0.24806   0.00000  Uiso   1.00
C324   C     0.49868   0.62401   0.25299   0.00000  Uiso   1.00
C325   C     0.65471   0.52398   0.21886   0.00000  Uiso   1.00
C326   C     0.34532   0.47596   0.28108   0.00000  Uiso   1.00
C327   C     0.36929   0.52402   0.21890   0.00000  Uiso   1.00
C328   C     0.63073   0.47594   0.28106   0.00000  Uiso   1.00
C329   C     0.46957   0.49970   0.33830   0.00000  Uiso   1.00
C330   C     0.53041   0.49967   0.16159   0.00000  Uiso   1.00
C331   C     0.44998   0.49709   0.38961   0.00000  Uiso   1.00
C332   C     0.54835   0.49136   0.11084   0.00000  Uiso   1.00
C333   C     0.38501   0.50882   0.46544   0.00000  Uiso   1.00
C334   C     0.60165   0.45183   0.04271   0.00000  Uiso   1.00
C335   C     0.40195   0.50864   0.41632   0.00000  Uiso   1.00
C336   C     0.59225   0.47005   0.08742   0.00000  Uiso   1.00
C337   C     0.48031   0.48293   0.41183   0.00000  Uiso   1.00
C338   C     0.51518   0.49620   0.08891   0.00000  Uiso   1.00
C339   C     0.46314   0.47816   0.46063   0.00000  Uiso   1.00
C340   C     0.52045   0.47392   0.04799   0.00000  Uiso   1.00
C341   C     0.41573   0.49342   0.48821   0.00000  Uiso   1.00
C342   C     0.56558   0.45411   0.02279   0.00000  Uiso   1.00
C343   C     0.49430   0.46281   0.48269   0.00000  Uiso   1.00
C344   C     0.48235   0.47279   0.03061   0.00000  Uiso   1.00
H345   H     0.36321   0.49898   0.06007   0.00000  Uiso   1.00
H346   H     0.60599   0.41833   0.46005   0.00000  Uiso   1.00
H347   H     0.48350   0.51579   0.10574   0.00000  Uiso   1.00
H348   H     0.51813   0.47682   0.39060   0.00000  Uiso   1.00
H349   H     0.61766   0.46552   0.10491   0.00000  Uiso   1.00
H350   H     0.37834   0.52003   0.39910   0.00000  Uiso   1.00
H351   H     0.52130   0.37520   0.30847   0.00000  Uiso   1.00
H352   H     0.47734   0.62467   0.19290   0.00000  Uiso   1.00
H353   H     0.64618   0.54316   0.19395   0.00000  Uiso   1.00
H354   H     0.35387   0.45674   0.30595   0.00000  Uiso   1.00
H355   H     0.39700   0.54325   0.19400   0.00000  Uiso   1.00
H356   H     0.60304   0.45666   0.30591   0.00000  Uiso   1.00
N357   N     0.38093   0.50001   0.25001   0.00000  Uiso   1.00
N358   N     0.61907   0.49999   0.24999   0.00000  Uiso   1.00
O359   O     0.46179   0.56108   0.25000   0.00000  Uiso   1.00
O360   O     0.53821   0.43892   0.24999   0.00000  Uiso   1.00
O361   O     0.53823   0.56107   0.25000   0.00000  Uiso   1.00
O362   O     0.46177   0.43893   0.25000   0.00000  Uiso   1.00
O363   O     0.43994   0.50001   0.31612   0.00000  Uiso   1.00
O364   O     0.56006   0.49999   0.18387   0.00000  Uiso   1.00
O365   O     0.51639   0.50000   0.31612   0.00000  Uiso   1.00
O366   O     0.48361   0.50000   0.18388   0.00000  Uiso   1.00
Zn367  Zn    0.44896   0.50001   0.25000   0.00000  Uiso   1.00
Zn368  Zn    0.55104   0.49999   0.25000   0.00000  Uiso   1.00
O369   O     0.33903   0.52507   0.48918   0.00000  Uiso   1.00
H370   H     0.33827   0.53884   0.01849   0.00000  Uiso   1.00
O371   O     0.64424   0.42996   0.01929   0.00000  Uiso   1.00
H372   H     0.66399   0.42929   0.03930   0.00000  Uiso   1.00
O373   O     0.41353   0.47717   0.10724   0.00000  Uiso   1.00
H374   H     0.43325   0.45604   0.11585   0.00000  Uiso   1.00
O375   O     0.54560   0.41649   0.41824   0.00000  Uiso   1.00
H376   H     0.51339   0.40853   0.41769   0.00000  Uiso   1.00
C377   C     0.52061   0.62665   0.32704   0.00000  Uiso   1.00
C378   C     0.47332   0.61118   0.36467   0.00000  Uiso   1.00
H379   H     0.44838   0.63796   0.38002   0.00000  Uiso   1.00
H380   H     0.45470   0.58840   0.34958   0.00000  Uiso   1.00
H381   H     0.48148   0.59562   0.39325   0.00000  Uiso   1.00
H382   H     0.54715   0.60060   0.31444   0.00000  Uiso   1.00
H383   H     0.53738   0.64953   0.34405   0.00000  Uiso   1.00
C384   C     0.47658   0.37259   0.17493   0.00000  Uiso   1.00
C385   C     0.52406   0.38352   0.13487   0.00000  Uiso   1.00
H386   H     0.54585   0.40524   0.14756   0.00000  Uiso   1.00
H387   H     0.54578   0.35475   0.12067   0.00000  Uiso   1.00
H388   H     0.51583   0.39858   0.10611   0.00000  Uiso   1.00
H389   H     0.45616   0.35046   0.16090   0.00000  Uiso   1.00
H390   H     0.45304   0.40065   0.18635   0.00000  Uiso   1.00
C391   C     0.83257   0.57988   0.25210   0.00000  Uiso   1.00
C392   C     0.83394   0.42006   0.24814   0.00000  Uiso   1.00
C393   C     0.76609   0.48166   0.05891   0.00000  Uiso   1.00
C394   C     0.87119   0.43941   0.45881   0.00000  Uiso   1.00
C395   C     0.73371   0.49212   0.03741   0.00000  Uiso   1.00
C396   C     0.90628   0.43577   0.47898   0.00000  Uiso   1.00
C397   C     0.84444   0.64677   0.28647   0.00000  Uiso   1.00
C398   C     0.82010   0.35299   0.21534   0.00000  Uiso   1.00
C399   C     0.84568   0.35648   0.28304   0.00000  Uiso   1.00
C400   C     0.81948   0.64336   0.21844   0.00000  Uiso   1.00
C401   C     0.83370   0.37586   0.24806   0.00000  Uiso   1.00
C402   C     0.83201   0.62401   0.25299   0.00000  Uiso   1.00
C403   C     0.98804   0.52398   0.21886   0.00000  Uiso   1.00
C404   C     0.67865   0.47596   0.28108   0.00000  Uiso   1.00
C405   C     0.70262   0.52402   0.21890   0.00000  Uiso   1.00
C406   C     0.96406   0.47594   0.28106   0.00000  Uiso   1.00
C407   C     0.80290   0.49970   0.33830   0.00000  Uiso   1.00
C408   C     0.86374   0.49967   0.16159   0.00000  Uiso   1.00
C409   C     0.78331   0.49709   0.38961   0.00000  Uiso   1.00
C410   C     0.88169   0.49136   0.11084   0.00000  Uiso   1.00
C411   C     0.71834   0.50882   0.46544   0.00000  Uiso   1.00
C412   C     0.93498   0.45183   0.04271   0.00000  Uiso   1.00
C413   C     0.73528   0.50864   0.41632   0.00000  Uiso   1.00
C414   C     0.92558   0.47005   0.08742   0.00000  Uiso   1.00
C415   C     0.81365   0.48293   0.41183   0.00000  Uiso   1.00
C416   C     0.84851   0.49620   0.08891   0.00000  Uiso   1.00
C417   C     0.79648   0.47816   0.46063   0.00000  Uiso   1.00
C418   C     0.85378   0.47392   0.04799   0.00000  Uiso   1.00
C419   C     0.74906   0.49342   0.48821   0.00000  Uiso   1.00
C420   C     0.89892   0.45411   0.02279   0.00000  Uiso   1.00
C421   C     0.82763   0.46281   0.48269   0.00000  Uiso   1.00
C422   C     0.81568   0.47279   0.03061   0.00000  Uiso   1.00
H423   H     0.69654   0.49898   0.06007   0.00000  Uiso   1.00
H424   H     0.93932   0.41833   0.46005   0.00000  Uiso   1.00
H425   H     0.81683   0.51579   0.10574   0.00000  Uiso   1.00
H426   H     0.85146   0.47682   0.39060   0.00000  Uiso   1.00
H427   H     0.95100   0.46552   0.10491   0.00000  Uiso   1.00
H428   H     0.71167   0.52003   0.39910   0.00000  Uiso   1.00
H429   H     0.85463   0.37520   0.30847   0.00000  Uiso   1.00
H430   H     0.81067   0.62467   0.19290   0.00000  Uiso   1.00
H431   H     0.97951   0.54316   0.19395   0.00000  Uiso   1.00
H432   H     0.68720   0.45674   0.30595   0.00000  Uiso   1.00
H433   H     0.73033   0.54325   0.19400   0.00000  Uiso   1.00
H434   H     0.93637   0.45666   0.30591   0.00000  Uiso   1.00
N435   N     0.71426   0.50001   0.25001   0.00000  Uiso   1.00
N436   N     0.95241   0.49999   0.24999   0.00000  Uiso   1.00
O437   O     0.79512   0.56108   0.25000   0.00000  Uiso   1.00
O438   O     0.87154   0.43892   0.24999   0.00000  Uiso   1.00
O439   O     0.87157   0.56107   0.25000   0.00000  Uiso   1.00
O440   O     0.79510   0.43893   0.25000   0.00000  Uiso   1.00
O441   O     0.77328   0.50001   0.31612   0.00000  Uiso   1.00
O442   O     0.89339   0.49999   0.18387   0.00000  Uiso   1.00
O443   O     0.84972   0.50000   0.31612   0.00000  Uiso   1.00
O444   O     0.81695   0.50000   0.18388   0.00000  Uiso   1.00
Zn445  Zn    0.78229   0.50001   0.25000   0.00000  Uiso   1.00
Zn446  Zn    0.88438   0.49999   0.25000   0.00000  Uiso   1.00
O447   O     0.67237   0.52507   0.48918   0.00000  Uiso   1.00
H448   H     0.67160   0.53884   0.01849   0.00000  Uiso   1.00
O449   O     0.97758   0.42996   0.01929   0.00000  Uiso   1.00
H450   H     0.99733   0.42929   0.03930   0.00000  Uiso   1.00
O451   O     0.74687   0.47717   0.10724   0.00000  Uiso   1.00
H452   H     0.76659   0.45604   0.11585   0.00000  Uiso   1.00
O453   O     0.87893   0.41649   0.41824   0.00000  Uiso   1.00
H454   H     0.84673   0.40853   0.41769   0.00000  Uiso   1.00
C455   C     0.85394   0.62665   0.32704   0.00000  Uiso   1.00
C456   C     0.80665   0.61118   0.36467   0.00000  Uiso   1.00
H457   H     0.78172   0.63796   0.38002   0.00000  Uiso   1.00
H458   H     0.78804   0.58840   0.34958   0.00000  Uiso   1.00
H459   H     0.81481   0.59562   0.39325   0.00000  Uiso   1.00
H460   H     0.88048   0.60060   0.31444   0.00000  Uiso   1.00
H461   H     0.87071   0.64953   0.34405   0.00000  Uiso   1.00
C462   C     0.80991   0.37259   0.17493   0.00000  Uiso   1.00
C463   C     0.85739   0.38352   0.13487   0.00000  Uiso   1.00
H464   H     0.87919   0.40524   0.14756   0.00000  Uiso   1.00
H465   H     0.87911   0.35475   0.12067   0.00000  Uiso   1.00
H466   H     0.84917   0.39858   0.10611   0.00000  Uiso   1.00
H467   H     0.78949   0.35046   0.16090   0.00000  Uiso   1.00
H468   H     0.78638   0.40065   0.18635   0.00000  Uiso   1.00
C469   C     0.16591   0.91321   0.25210   0.00000  Uiso   1.00
C470   C     0.16727   0.75339   0.24814   0.00000  Uiso   1.00
C471   C     0.09942   0.81500   0.05891   0.00000  Uiso   1.00
C472   C     0.20453   0.77274   0.45881   0.00000  Uiso   1.00
C473   C     0.06704   0.82545   0.03741   0.00000  Uiso   1.00
C474   C     0.23961   0.76910   0.47898   0.00000  Uiso   1.00
C475   C     0.17778   0.98011   0.28647   0.00000  Uiso   1.00
C476   C     0.15343   0.68633   0.21534   0.00000  Uiso   1.00
C477   C     0.17902   0.68982   0.28304   0.00000  Uiso   1.00
C478   C     0.15281   0.97670   0.21844   0.00000  Uiso   1.00
C479   C     0.16703   0.70919   0.24806   0.00000  Uiso   1.00
C480   C     0.16535   0.95734   0.25299   0.00000  Uiso   1.00
C481   C     0.32137   0.85732   0.21886   0.00000  Uiso   1.00
C482   C     0.01198   0.80930   0.28108   0.00000  Uiso   1.00
C483   C     0.03595   0.85735   0.21890   0.00000  Uiso   1.00
C484   C     0.29740   0.80927   0.28106   0.00000  Uiso   1.00
C485   C     0.13624   0.83304   0.33830   0.00000  Uiso   1.00
C486   C     0.19707   0.83300   0.16159   0.00000  Uiso   1.00
C487   C     0.11665   0.83042   0.38961   0.00000  Uiso   1.00
C488   C     0.21502   0.82469   0.11084   0.00000  Uiso   1.00
C489   C     0.05168   0.84215   0.46544   0.00000  Uiso   1.00
C490   C     0.26831   0.78516   0.04271   0.00000  Uiso   1.00
C491   C     0.06861   0.84197   0.41632   0.00000  Uiso   1.00
C492   C     0.25891   0.80338   0.08742   0.00000  Uiso   1.00
C493   C     0.14698   0.81627   0.41183   0.00000  Uiso   1.00
C494   C     0.18185   0.82953   0.08891   0.00000  Uiso   1.00
C495   C     0.12981   0.81149   0.46063   0.00000  Uiso   1.00
C496   C     0.18712   0.80726   0.04799   0.00000  Uiso   1.00
C497   C     0.08239   0.82675   0.48821   0.00000  Uiso   1.00
C498   C     0.23225   0.78745   0.02279   0.00000  Uiso   1.00
C499   C     0.16097   0.79614   0.48269   0.00000  Uiso   1.00
C500   C     0.14902   0.80612   0.03061   0.00000  Uiso   1.00
H501   H     0.02987   0.83232   0.06007   0.00000  Uiso   1.00
H502   H     0.27265   0.75166   0.46005   0.00000  Uiso   1.00
H503   H     0.15016   0.84913   0.10574   0.00000  Uiso   1.00
H504   H     0.18480   0.81015   0.39060   0.00000  Uiso   1.00
H505   H     0.28433   0.79885   0.10491   0.00000  Uiso   1.00
H506   H     0.04501   0.85336   0.39910   0.00000  Uiso   1.00
H507   H     0.18796   0.70853   0.30847   0.00000  Uiso   1.00
H508   H     0.14401   0.95800   0.19290   0.00000  Uiso   1.00
H509   H     0.31285   0.87649   0.19395   0.00000  Uiso   1.00
H510   H     0.02053   0.79007   0.30595   0.00000  Uiso   1.00
H511   H     0.06366   0.87658   0.19400   0.00000  Uiso   1.00
H512   H     0.26970   0.78999   0.30591   0.00000  Uiso   1.00
N513   N     0.04759   0.83334   0.25001   0.00000  Uiso   1.00
N514   N     0.28574   0.83332   0.24999   0.00000  Uiso   1.00
O515   O     0.12846   0.89442   0.25000   0.00000  Uiso   1.00
O516   O     0.20488   0.77225   0.24999   0.00000  Uiso   1.00
O517   O     0.20490   0.89441   0.25000   0.00000  Uiso   1.00
O518   O     0.12843   0.77226   0.25000   0.00000  Uiso   1.00
O519   O     0.10661   0.83334   0.31612   0.00000  Uiso   1.00
O520   O     0.22672   0.83333   0.18387   0.00000  Uiso   1.00
O521   O     0.18305   0.83333   0.31612   0.00000  Uiso   1.00
O522   O     0.15028   0.83334   0.18388   0.00000  Uiso   1.00
Zn523  Zn    0.11562   0.83334   0.25000   0.00000  Uiso   1.00
Zn524  Zn    0.21771   0.83333   0.25000   0.00000  Uiso   1.00
O525   O     0.00570   0.85840   0.48918   0.00000  Uiso   1.00
H526   H     0.00493   0.87217   0.01849   0.00000  Uiso   1.00
O527   O     0.31091   0.76329   0.01929   0.00000  Uiso   1.00
H528   H     0.33066   0.76263   0.03930   0.00000  Uiso   1.00
O529   O     0.08020   0.81050   0.10724   0.00000  Uiso   1.00
H530   H     0.09992   0.78938   0.11585   0.00000  Uiso   1.00
O531   O     0.21226   0.74982   0.41824   0.00000  Uiso   1.00
H532   H     0.18006   0.74186   0.41769   0.00000  Uiso   1.00
C533   C     0.18728   0.95998   0.32704   0.00000  Uiso   1.00
C534   C     0.13999   0.94451   0.36467   0.00000  Uiso   1.00
H535   H     0.11505   0.97130   0.38002   0.00000  Uiso   1.00
H536   H     0.12137   0.92173   0.34958   0.00000  Uiso   1.00
H537   H     0.14814   0.92896   0.39325   0.00000  Uiso   1.00
H538   H     0.21381   0.93393   0.31444   0.00000  Uiso   1.00
H539   H     0.20405   0.98287   0.34405   0.00000  Uiso   1.00
C540   C     0.14325   0.70592   0.17493   0.00000  Uiso   1.00
C541   C     0.19073   0.71686   0.13487   0.00000  Uiso   1.00
H542   H     0.21252   0.73858   0.14756   0.00000  Uiso   1.00
H543   H     0.21245   0.68808   0.12067   0.00000  Uiso   1.00
H544   H     0.18250   0.73191   0.10611   0.00000  Uiso   1.00
H545   H     0.12283   0.68379   0.16090   0.00000  Uiso   1.00
H546   H     0.11971   0.73399   0.18635   0.00000  Uiso   1.00
C547   C     0.49924   0.91321   0.25210   0.00000  Uiso   1.00
C548   C     0.50060   0.75339   0.24814   0.00000  Uiso   1.00
C549   C     0.43276   0.81500   0.05891   0.00000  Uiso   1.00
C550   C     0.53786   0.77274   0.45881   0.00000  Uiso   1.00
C551   C     0.40037   0.82545   0.03741   0.00000  Uiso   1.00
C552   C     0.57295   0.76910   0.47898   0.00000  Uiso   1.00
C553   C     0.51111   0.98011   0.28647   0.00000  Uiso   1.00
C554   C     0.48676   0.68633   0.21534   0.00000  Uiso   1.00
C555   C     0.51235   0.68982   0.28304   0.00000  Uiso   1.00
C556   C     0.48615   0.97670   0.21844   0.00000  Uiso   1.00
C557   C     0.50036   0.70919   0.24806   0.00000  Uiso   1.00
C558   C     0.49868   0.95734   0.25299   0.00000  Uiso   1.00
C559   C     0.65471   0.85732   0.21886   0.00000  Uiso   1.00
C560   C     0.34532   0.80930   0.28108   0.00000  Uiso   1.00
C561   C     0.36929   0.85735   0.21890   0.00000  Uiso   1.00
C562   C     0.63073   0.80927   0.28106   0.00000  Uiso   1.00
C563   C     0.46957   0.83304   0.33830   0.00000  Uiso   1.00
C564   C     0.53041   0.83300   0.16159   0.00000  Uiso   1.00
C565   C     0.44998   0.83042   0.38961   0.00000  Uiso   1.00
C566   C     0.54835   0.82469   0.11084   0.00000  Uiso   1.00
C567   C     0.38501   0.84215   0.46544   0.00000  Uiso   1.00
C568   C     0.60165   0.78516   0.04271   0.00000  Uiso   1.00
C569   C     0.40195   0.84197   0.41632   0.00000  Uiso   1.00
C570   C     0.59225   0.80338   0.08742   0.00000  Uiso   1.00
C571   C     0.48031   0.81627   0.41183   0.00000  Uiso   1.00
C572   C     0.51518   0.82953   0.08891   0.00000  Uiso   1.00
C573   C     0.46314   0.81149   0.46063   0.00000  Uiso   1.00
C574   C     0.52045   0.80726   0.04799   0.00000  Uiso   1.00
C575   C     0.41573   0.82675   0.48821   0.00000  Uiso   1.00
C576   C     0.56558   0.78745   0.02279   0.00000  Uiso   1.00
C577   C     0.49430   0.79614   0.48269   0.00000  Uiso   1.00
C578   C     0.48235   0.80612   0.03061   0.00000  Uiso   1.00
H579   H     0.36321   0.83232   0.06007   0.00000  Uiso   1.00
H580   H     0.60599   0.75166   0.46005   0.00000  Uiso   1.00
H581   H     0.48350   0.84913   0.10574   0.00000  Uiso   1.00
H582   H     0.51813   0.81015   0.39060   0.00000  Uiso   1.00
H583   H     0.61766   0.79885   0.10491   0.00000  Uiso   1.00
H584   H     0.37834   0.85336   0.39910   0.00000  Uiso   1.00
H585   H     0.52130   0.70853   0.30847   0.00000  Uiso   1.00
H586   H     0.47734   0.95800   0.19290   0.00000  Uiso   1.00
H587   H     0.64618   0.87649   0.19395   0.00000  Uiso   1.00
H588   H     0.35387   0.79007   0.30595   0.00000  Uiso   1.00
H589   H     0.39700   0.87658   0.19400   0.00000  Uiso   1.00
H590   H     0.60304   0.78999   0.30591   0.00000  Uiso   1.00
N591   N     0.38093   0.83334   0.25001   0.00000  Uiso   1.00
N592   N     0.61907   0.83332   0.24999   0.00000  Uiso   1.00
O593   O     0.46179   0.89442   0.25000   0.00000  Uiso   1.00
O594   O     0.53821   0.77225   0.24999   0.00000  Uiso   1.00
O595   O     0.53823   0.89441   0.25000   0.00000  Uiso   1.00
O596   O     0.46177   0.77226   0.25000   0.00000  Uiso   1.00
O597   O     0.43994   0.83334   0.31612   0.00000  Uiso   1.00
O598   O     0.56006   0.83333   0.18387   0.00000  Uiso   1.00
O599   O     0.51639   0.83333   0.31612   0.00000  Uiso   1.00
O600   O     0.48361   0.83334   0.18388   0.00000  Uiso   1.00
Zn601  Zn    0.44896   0.83334   0.25000   0.00000  Uiso   1.00
Zn602  Zn    0.55104   0.83333   0.25000   0.00000  Uiso   1.00
O603   O     0.33903   0.85840   0.48918   0.00000  Uiso   1.00
H604   H     0.33827   0.87217   0.01849   0.00000  Uiso   1.00
O605   O     0.64424   0.76329   0.01929   0.00000  Uiso   1.00
H606   H     0.66399   0.76263   0.03930   0.00000  Uiso   1.00
O607   O     0.41353   0.81050   0.10724   0.00000  Uiso   1.00
H608   H     0.43325   0.78938   0.11585   0.00000  Uiso   1.00
O609   O     0.54560   0.74982   0.41824   0.00000  Uiso   1.00
H610   H     0.51339   0.74186   0.41769   0.00000  Uiso   1.00
C611   C     0.52061   0.95998   0.32704   0.00000  Uiso   1.00
C612   C     0.47332   0.94451   0.36467   0.00000  Uiso   1.00
H613   H     0.44838   0.97130   0.38002   0.00000  Uiso   1.00
H614   H     0.45470   0.92173   0.34958   0.00000  Uiso   1.00
H615   H     0.48148   0.92896   0.39325   0.00000  Uiso   1.00
H616   H     0.54715   0.93393   0.31444   0.00000  Uiso   1.00
H617   H     0.53738   0.98287   0.34405   0.00000  Uiso   1.00
C618   C     0.47658   0.70592   0.17493   0.00000  Uiso   1.00
C619   C     0.52406   0.71686   0.13487   0.00000  Uiso   1.00
H620   H     0.54585   0.73858   0.14756   0.00000  Uiso   1.00
H621   H     0.54578   0.68808   0.12067   0.00000  Uiso   1.00
H622   H     0.51583   0.73191   0.10611   0.00000  Uiso   1.00
H623   H     0.45616   0.68379   0.16090   0.00000  Uiso   1.00
H624   H     0.45304   0.73399   0.18635   0.00000  Uiso   1.00
C625   C     0.83257   0.91321   0.25210   0.00000  Uiso   1.00
C626   C     0.83394   0.75339   0.24814   0.00000  Uiso   1.00
C627   C     0.76609   0.81500   0.05891   0.00000  Uiso   1.00
C628   C     0.87119   0.77274   0.45881   0.00000  Uiso   1.00
C629   C     0.73371   0.82545   0.03741   0.00000  Uiso   1.00
C630   C     0.90628   0.76910   0.47898   0.00000  Uiso   1.00
C631   C     0.84444   0.98011   0.28647   0.00000  Uiso   1.00
C632   C     0.82010   0.68633   0.21534   0.00000  Uiso   1.00
C633   C     0.84568   0.68982   0.28304   0.00000  Uiso   1.00
C634   C     0.81948   0.97670   0.21844   0.00000  Uiso   1.00
C635   C     0.83370   0.70919   0.24806   0.00000  Uiso   1.00
C636   C     0.83201   0.95734   0.25299   0.00000  Uiso   1.00
C637   C     0.98804   0.85732   0.21886   0.00000  Uiso   1.00
C638   C     0.67865   0.80930   0.28108   0.00000  Uiso   1.00
C639   C     0.70262   0.85735   0.21890   0.00000  Uiso   1.00
C640   C     0.96406   0.80927   0.28106   0.00000  Uiso   1.00
C641   C     0.80290   0.83304   0.33830   0.00000  Uiso   1.00
C642   C     0.86374   0.83300   0.16159   0.00000  Uiso   1.00
C643   C     0.78331   0.83042   0.38961   0.00000  Uiso   1.00
C644   C     0.88169   0.82469   0.11084   0.00000  Uiso   1.00
C645   C     0.71834   0.84215   0.46544   0.00000  Uiso   1.00
C646   C     0.93498   0.78516   0.04271   0.00000  Uiso   1.00
C647   C     0.73528   0.84197   0.41632   0.00000  Uiso   1.00
C648   C     0.92558   0.80338   0.08742   0.00000  Uiso   1.00
C649   C     0.81365   0.81627   0.41183   0.00000  Uiso   1.00
C650   C     0.84851   0.82953   0.08891   0.00000  Uiso   1.00
C651   C     0.79648   0.81149   0.46063   0.00000  Uiso   1.00
C652   C     0.85378   0.80726   0.04799   0.00000  Uiso   1.00
C653   C     0.74906   0.82675   0.48821   0.00000  Uiso   1.00
C654   C     0.89892   0.78745   0.02279   0.00000  Uiso   1.00
C655   C     0.82763   0.79614   0.48269   0.00000  Uiso   1.00
C656   C     0.81568   0.80612   0.03061   0.00000  Uiso   1.00
H657   H     0.69654   0.83232   0.06007   0.00000  Uiso   1.00
H658   H     0.93932   0.75166   0.46005   0.00000  Uiso   1.00
H659   H     0.81683   0.84913   0.10574   0.00000  Uiso   1.00
H660   H     0.85146   0.81015   0.39060   0.00000  Uiso   1.00
H661   H     0.95100   0.79885   0.10491   0.00000  Uiso   1.00
H662   H     0.71167   0.85336   0.39910   0.00000  Uiso   1.00
H663   H     0.85463   0.70853   0.30847   0.00000  Uiso   1.00
H664   H     0.81067   0.95800   0.19290   0.00000  Uiso   1.00
H665   H     0.97951   0.87649   0.19395   0.00000  Uiso   1.00
H666   H     0.68720   0.79007   0.30595   0.00000  Uiso   1.00
H667   H     0.73033   0.87658   0.19400   0.00000  Uiso   1.00
H668   H     0.93637   0.78999   0.30591   0.00000  Uiso   1.00
N669   N     0.71426   0.83334   0.25001   0.00000  Uiso   1.00
N670   N     0.95241   0.83332   0.24999   0.00000  Uiso   1.00
O671   O     0.79512   0.89442   0.25000   0.00000  Uiso   1.00
O672   O     0.87154   0.77225   0.24999   0.00000  Uiso   1.00
O673   O     0.87157   0.89441   0.25000   0.00000  Uiso   1.00
O674   O     0.79510   0.77226   0.25000   0.00000  Uiso   1.00
O675   O     0.77328   0.83334   0.31612   0.00000  Uiso   1.00
O676   O     0.89339   0.83333   0.18387   0.00000  Uiso   1.00
O677   O     0.84972   0.83333   0.31612   0.00000  Uiso   1.00
O678   O     0.81695   0.83334   0.18388   0.00000  Uiso   1.00
Zn679  Zn    0.78229   0.83334   0.25000   0.00000  Uiso   1.00
Zn680  Zn    0.88438   0.83333   0.25000   0.00000  Uiso   1.00
O681   O     0.67237   0.85840   0.48918   0.00000  Uiso   1.00
H682   H     0.67160   0.87217   0.01849   0.00000  Uiso   1.00
O683   O     0.97758   0.76329   0.01929   0.00000  Uiso   1.00
H684   H     0.99733   0.76263   0.03930   0.00000  Uiso   1.00
O685   O     0.74687   0.81050   0.10724   0.00000  Uiso   1.00
H686   H     0.76659   0.78938   0.11585   0.00000  Uiso   1.00
O687   O     0.87893   0.74982   0.41824   0.00000  Uiso   1.00
H688   H     0.84673   0.74186   0.41769   0.00000  Uiso   1.00
C689   C     0.85394   0.95998   0.32704   0.00000  Uiso   1.00
C690   C     0.80665   0.94451   0.36467   0.00000  Uiso   1.00
H691   H     0.78172   0.97130   0.38002   0.00000  Uiso   1.00
H692   H     0.78804   0.92173   0.34958   0.00000  Uiso   1.00
H693   H     0.81481   0.92896   0.39325   0.00000  Uiso   1.00
H694   H     0.88048   0.93393   0.31444   0.00000  Uiso   1.00
H695   H     0.87071   0.98287   0.34405   0.00000  Uiso   1.00
C696   C     0.80991   0.70592   0.17493   0.00000  Uiso   1.00
C697   C     0.85739   0.71686   0.13487   0.00000  Uiso   1.00
H698   H     0.87919   0.73858   0.14756   0.00000  Uiso   1.00
H699   H     0.87911   0.68808   0.12067   0.00000  Uiso   1.00
H700   H     0.84917   0.73191   0.10611   0.00000  Uiso   1.00
H701   H     0.78949   0.68379   0.16090   0.00000  Uiso   1.00
H702   H     0.78638   0.73399   0.18635   0.00000  Uiso   1.00
C703   C     0.16591   0.24654   0.75210   0.00000  Uiso   1.00
C704   C     0.16727   0.08673   0.74814   0.00000  Uiso   1.00
C705   C     0.09942   0.14833   0.55891   0.00000  Uiso   1.00
C706   C     0.20453   0.10608   0.95881   0.00000  Uiso   1.00
C707   C     0.06704   0.15878   0.53741   0.00000  Uiso   1.00
C708   C     0.23961   0.10244   0.97898   0.00000  Uiso   1.00
C709   C     0.17778   0.31344   0.78647   0.00000  Uiso   1.00
C710   C     0.15343   0.01966   0.71534   0.00000  Uiso   1.00
C711   C     0.17902   0.02315   0.78304   0.00000  Uiso   1.00
C712   C     0.15281   0.31003   0.71844   0.00000  Uiso   1.00
C713   C     0.16703   0.04252   0.74806   0.00000  Uiso   1.00
C714   C     0.16535   0.29068   0.75299   0.00000  Uiso   1.00
C715   C     0.32137   0.19065   0.71886   0.00000  Uiso   1.00
C716   C     0.01198   0.14263   0.78108   0.00000  Uiso   1.00
C717   C     0.03595   0.19068   0.71890   0.00000  Uiso   1.00
C718   C     0.29740   0.14260   0.78106   0.00000  Uiso   1.00
C719   C     0.13624   0.16637   0.83830   0.00000  Uiso   1.00
C720   C     0.19707   0.16634   0.66159   0.00000  Uiso   1.00
C721   C     0.11665   0.16376   0.88961   0.00000  Uiso   1.00
C722   C     0.21502   0.15802   0.61084   0.00000  Uiso   1.00
C723   C     0.05168   0.17548   0.96544   0.00000  Uiso   1.00
C724   C     0.26831   0.11850   0.54271   0.00000  Uiso   1.00
C725   C     0.06861   0.17531   0.91632   0.00000  Uiso   1.00
C726   C     0.25891   0.13671   0.58742   0.00000  Uiso   1.00
C727   C     0.14698   0.14960   0.91183   0.00000  Uiso   1.00
C728   C     0.18185   0.16287   0.58891   0.00000  Uiso   1.00
C729   C     0.12981   0.14482   0.96063   0.00000  Uiso   1.00
C730   C     0.18712   0.14059   0.54799   0.00000  Uiso   1.00
C731   C     0.08239   0.16009   0.98821   0.00000  Uiso   1.00
C732   C     0.23225   0.12078   0.52279   0.00000  Uiso   1.00
C733   C     0.16097   0.12947   0.98269   0.00000  Uiso   1.00
C734   C     0.14902   0.13945   0.53061   0.00000  Uiso   1.00
H735   H     0.02987   0.16565   0.56007   0.00000  Uiso   1.00
H736   H     0.27265   0.08500   0.96005   0.00000  Uiso   1.00
H737   H     0.15016   0.18246   0.60574   0.00000  Uiso   1.00
H738   H     0.18480   0.14348   0.89060   0.00000  Uiso   1.00
H739   H     0.28433   0.13219   0.60491   0.00000  Uiso   1.00
H740   H     0.04501   0.18669   0.89910   0.00000  Uiso   1.00
H741   H     0.18796   0.04187   0.80847   0.00000  Uiso   1.00
H742   H     0.14401   0.29134   0.69290   0.00000  Uiso   1.00
H743   H     0.31285   0.20982   0.69395   0.00000  Uiso   1.00
H744   H     0.02053   0.12341   0.80595   0.00000  Uiso   1.00
H745   H     0.06366   0.20991   0.69400   0.00000  Uiso   1.00
H746   H     0.26970   0.12332   0.80591   0.00000  Uiso   1.00
N747   N     0.04759   0.16668   0.75001   0.00000  Uiso   1.00
N748   N     0.28574   0.16666   0.74999   0.00000  Uiso   1.00
O749   O     0.12846   0.22775   0.75000   0.00000  Uiso   1.00
O750   O     0.20488   0.10558   0.74999   0.00000  Uiso   1.00
O751   O     0.20490   0.22774   0.75000   0.00000  Uiso   1.00
O752   O     0.12843   0.10559   0.75000   0.00000  Uiso   1.00
O753   O     0.10661   0.16667   0.81612   0.00000  Uiso   1.00
O754   O     0.22672   0.16666   0.68387   0.00000  Uiso   1.00
O755   O     0.18305   0.16666   0.81612   0.00000  Uiso   1.00
O756   O     0.15028   0.16667   0.68388   0.00000  Uiso   1.00
Zn757  Zn    0.11562   0.16667   0.75000   0.00000  Uiso   1.00
Zn758  Zn    0.21771   0.16666   0.75000   0.00000  Uiso   1.00
O759   O     0.00570   0.19173   0.98918   0.00000  Uiso   1.00
H760   H     0.00493   0.20551   0.51849   0.00000  Uiso   1.00
O761   O     0.31091   0.09662   0.51929   0.00000  Uiso   1.00
H762   H     0.33066   0.09596   0.53930   0.00000  Uiso   1.00
O763   O     0.08020   0.14383   0.60724   0.00000  Uiso   1.00
H764   H     0.09992   0.12271   0.61585   0.00000  Uiso   1.00
O765   O     0.21226   0.08316   0.91824   0.00000  Uiso   1.00
H766   H     0.18006   0.07519   0.91769   0.00000  Uiso   1.00
C767   C     0.18728   0.29332   0.82704   0.00000  Uiso   1.00
C768   C     0.13999   0.27784   0.86467   0.00000  Uiso   1.00
H769   H     0.11505   0.30463   0.88002   0.00000  Uiso   1.00
H770   H     0.12137   0.25507   0.84958   0.00000  Uiso   1.00
H771   H     0.14814   0.26229   0.89325   0.00000  Uiso   1.00
H772   H     0.21381   0.26726   0.81444   0.00000  Uiso   1.00
H773   H     0.20405   0.31620   0.84405   0.00000  Uiso   1.00
C774   C     0.14325   0.03926   0.67493   0.00000  Uiso   1.00
C775   C     0.19073   0.05019   0.63487   0.00000  Uiso   1.00
H776   H     0.21252   0.07191   0.64756   0.00000  Uiso   1.00
H777   H     0.21245   0.02142   0.62067   0.00000  Uiso   1.00
H778   H     0.18250   0.06525   0.60611   0.00000  Uiso   1.00
H779   H     0.12283   0.01712   0.66090   0.00000  Uiso   1.00
H780   H     0.11971   0.06732   0.68635   0.00000  Uiso   1.00
C781   C     0.49924   0.24654   0.75210   0.00000  Uiso   1.00
C782   C     0.50060   0.08673   0.74814   0.00000  Uiso   1.00
C783   C     0.43276   0.14833   0.55891   0.00000  Uiso   1.00
C784   C     0.53786   0.10608   0.95881   0.00000  Uiso   1.00
C785   C     0.40037   0.15878   0.53741   0.00000  Uiso   1.00
C786   C     0.57295   0.10244   0.97898   0.00000  Uiso   1.00
C787   C     0.51111   0.31344   0.78647   0.00000  Uiso   1.00
C788   C     0.48676   0.01966   0.71534   0.00000  Uiso   1.00
C789   C     0.51235   0.02315   0.78304   0.00000  Uiso   1.00
C790   C     0.48615   0.31003   0.71844   0.00000  Uiso   1.00
C791   C     0.50036   0.04252   0.74806   0.00000  Uiso   1.00
C792   C     0.49868   0.29068   0.75299   0.00000  Uiso   1.00
C793   C     0.65471   0.19065   0.71886   0.00000  Uiso   1.00
C794   C     0.34532   0.14263   0.78108   0.00000  Uiso   1.00
C795   C     0.36929   0.19068   0.71890   0.00000  Uiso   1.00
C796   C     0.63073   0.14260   0.78106   0.00000  Uiso   1.00
C797   C     0.46957   0.16637   0.83830   0.00000  Uiso   1.00
C798   C     0.53041   0.16634   0.66159   0.00000  Uiso   1.00
C799   C     0.44998   0.16376   0.88961   0.00000  Uiso   1.00
C800   C     0.54835   0.15802   0.61084   0.00000  Uiso   1.00
C801   C     0.38501   0.17548   0.96544   0.00000  Uiso   1.00
C802   C     0.60165   0.11850   0.54271   0.00000  Uiso   1.00
C803   C     0.40195   0.17531   0.91632   0.00000  Uiso   1.00
C804   C     0.59225   0.13671   0.58742   0.00000  Uiso   1.00
C805   C     0.48031   0.14960   0.91183   0.00000  Uiso   1.00
C806   C     0.51518   0.16287   0.58891   0.00000  Uiso   1.00
C807   C     0.46314   0.14482   0.96063   0.00000  Uiso   1.00
C808   C     0.52045   0.14059   0.54799   0.00000  Uiso   1.00
C809   C     0.41573   0.16009   0.98821   0.00000  Uiso   1.00
C810   C     0.56558   0.12078   0.52279   0.00000  Uiso   1.00
C811   C     0.49430   0.12947   0.98269   0.00000  Uiso   1.00
C812   C     0.48235   0.13945   0.53061   0.00000  Uiso   1.00
H813   H     0.36321   0.16565   0.56007   0.00000  Uiso   1.00
H814   H     0.60599   0.08500   0.96005   0.00000  Uiso   1.00
H815   H     0.48350   0.18246   0.60574   0.00000  Uiso   1.00
H816   H     0.51813   0.14348   0.89060   0.00000  Uiso   1.00
H817   H     0.61766   0.13219   0.60491   0.00000  Uiso   1.00
H818   H     0.37834   0.18669   0.89910   0.00000  Uiso   1.00
H819   H     0.52130   0.04187   0.80847   0.00000  Uiso   1.00
H820   H     0.47734   0.29134   0.69290   0.00000  Uiso   1.00
H821   H     0.64618   0.20982   0.69395   0.00000  Uiso   1.00
H822   H     0.35387   0.12341   0.80595   0.00000  Uiso   1.00
H823   H     0.39700   0.20991   0.69400   0.00000  Uiso   1.00
H824   H     0.60304   0.12332   0.80591   0.00000  Uiso   1.00
N825   N     0.38093   0.16668   0.75001   0.00000  Uiso   1.00
N826   N     0.61907   0.16666   0.74999   0.00000  Uiso   1.00
O827   O     0.46179   0.22775   0.75000   0.00000  Uiso   1.00
O828   O     0.53821   0.10558   0.74999   0.00000  Uiso   1.00
O829   O     0.53823   0.22774   0.75000   0.00000  Uiso   1.00
O830   O     0.46177   0.10559   0.75000   0.00000  Uiso   1.00
O831   O     0.43994   0.16667   0.81612   0.00000  Uiso   1.00
O832   O     0.56006   0.16666   0.68387   0.00000  Uiso   1.00
O833   O     0.51639   0.16666   0.81612   0.00000  Uiso   1.00
O834   O     0.48361   0.16667   0.68388   0.00000  Uiso   1.00
Zn835  Zn    0.44896   0.16667   0.75000   0.00000  Uiso   1.00
Zn836  Zn    0.55104   0.16666   0.75000   0.00000  Uiso   1.00
O837   O     0.33903   0.19173   0.98918   0.00000  Uiso   1.00
H838   H     0.33827   0.20551   0.51849   0.00000  Uiso   1.00
O839   O     0.64424   0.09662   0.51929   0.00000  Uiso   1.00
H840   H     0.66399   0.09596   0.53930   0.00000  Uiso   1.00
O841   O     0.41353   0.14383   0.60724   0.00000  Uiso   1.00
H842   H     0.43325   0.12271   0.61585   0.00000  Uiso   1.00
O843   O     0.54560   0.08316   0.91824   0.00000  Uiso   1.00
H844   H     0.51339   0.07519   0.91769   0.00000  Uiso   1.00
C845   C     0.52061   0.29332   0.82704   0.00000  Uiso   1.00
C846   C     0.47332   0.27784   0.86467   0.00000  Uiso   1.00
H847   H     0.44838   0.30463   0.88002   0.00000  Uiso   1.00
H848   H     0.45470   0.25507   0.84958   0.00000  Uiso   1.00
H849   H     0.48148   0.26229   0.89325   0.00000  Uiso   1.00
H850   H     0.54715   0.26726   0.81444   0.00000  Uiso   1.00
H851   H     0.53738   0.31620   0.84405   0.00000  Uiso   1.00
C852   C     0.47658   0.03926   0.67493   0.00000  Uiso   1.00
C853   C     0.52406   0.05019   0.63487   0.00000  Uiso   1.00
H854   H     0.54585   0.07191   0.64756   0.00000  Uiso   1.00
H855   H     0.54578   0.02142   0.62067   0.00000  Uiso   1.00
H856   H     0.51583   0.06525   0.60611   0.00000  Uiso   1.00
H857   H     0.45616   0.01712   0.66090   0.00000  Uiso   1.00
H858   H     0.45304   0.06732   0.68635   0.00000  Uiso   1.00
C859   C     0.83257   0.24654   0.75210   0.00000  Uiso   1.00
C860   C     0.83394   0.08673   0.74814   0.00000  Uiso   1.00
C861   C     0.76609   0.14833   0.55891   0.00000  Uiso   1.00
C862   C     0.87119   0.10608   0.95881   0.00000  Uiso   1.00
C863   C     0.73371   0.15878   0.53741   0.00000  Uiso   1.00
C864   C     0.90628   0.10244   0.97898   0.00000  Uiso   1.00
C865   C     0.84444   0.31344   0.78647   0.00000  Uiso   1.00
C866   C     0.82010   0.01966   0.71534   0.00000  Uiso   1.00
C867   C     0.84568   0.02315   0.78304   0.00000  Uiso   1.00
C868   C     0.81948   0.31003   0.71844   0.00000  Uiso   1.00
C869   C     0.83370   0.04252   0.74806   0.00000  Uiso   1.00
C870   C     0.83201   0.29068   0.75299   0.00000  Uiso   1.00
C871   C     0.98804   0.19065   0.71886   0.00000  Uiso   1.00
C872   C     0.67865   0.14263   0.78108   0.00000  Uiso   1.00
C873   C     0.70262   0.19068   0.71890   0.00000  Uiso   1.00
C874   C     0.96406   0.14260   0.78106   0.00000  Uiso   1.00
C875   C     0.80290   0.16637   0.83830   0.00000  Uiso   1.00
C876   C     0.86374   0.16634   0.66159   0.00000  Uiso   1.00
C877   C     0.78331   0.16376   0.88961   0.00000  Uiso   1.00
C878   C     0.88169   0.15802   0.61084   0.00000  Uiso   1.00
C879   C     0.71834   0.17548   0.96544   0.00000  Uiso   1.00
C880   C     0.93498   0.11850   0.54271   0.00000  Uiso   1.00
C881   C     0.73528   0.17531   0.91632   0.00000  Uiso   1.00
C882   C     0.92558   0.13671   0.58742   0.00000  Uiso   1.00
C883   C     0.81365   0.14960   0.91183   0.00000  Uiso   1.00
C884   C     0.84851   0.16287   0.58891   0.00000  Uiso   1.00
C885   C     0.79648   0.14482   0.96063   0.00000  Uiso   1.00
C886   C     0.85378   0.14059   0.54799   0.00000  Uiso   1.00
C887   C     0.74906   0.16009   0.98821   0.00000  Uiso   1.00
C888   C     0.89892   0.12078   0.52279   0.00000  Uiso   1.00
C889   C     0.82763   0.12947   0.98269   0.00000  Uiso   1.00
C890   C     0.81568   0.13945   0.53061   0.00000  Uiso   1.00
H891   H     0.69654   0.16565   0.56007   0.00000  Uiso   1.00
H892   H     0.93932   0.08500   0.96005   0.00000  Uiso   1.00
H893   H     0.81683   0.18246   0.60574   0.00000  Uiso   1.00
H894   H     0.85146   0.14348   0.89060   0.00000  Uiso   1.00
H895   H     0.95100   0.13219   0.60491   0.00000  Uiso   1.00
H896   H     0.71167   0.18669   0.89910   0.00000  Uiso   1.00
H897   H     0.85463   0.04187   0.80847   0.00000  Uiso   1.00
H898   H     0.81067   0.29134   0.69290   0.00000  Uiso   1.00
H899   H     0.97951   0.20982   0.69395   0.00000  Uiso   1.00
H900   H     0.68720   0.12341   0.80595   0.00000  Uiso   1.00
H901   H     0.73033   0.20991   0.69400   0.00000  Uiso   1.00
H902   H     0.93637   0.12332   0.80591   0.00000  Uiso   1.00
N903   N     0.71426   0.16668   0.75001   0.00000  Uiso   1.00
N904   N     0.95241   0.16666   0.74999   0.00000  Uiso   1.00
O905   O     0.79512   0.22775   0.75000   0.00000  Uiso   1.00
O906   O     0.87154   0.10558   0.74999   0.00000  Uiso   1.00
O907   O     0.87157   0.22774   0.75000   0.00000  Uiso   1.00
O908   O     0.79510   0.10559   0.75000   0.00000  Uiso   1.00
O909   O     0.77328   0.16667   0.81612   0.00000  Uiso   1.00
O910   O     0.89339   0.16666   0.68387   0.00000  Uiso   1.00
O911   O     0.84972   0.16666   0.81612   0.00000  Uiso   1.00
O912   O     0.81695   0.16667   0.68388   0.00000  Uiso   1.00
Zn913  Zn    0.78229   0.16667   0.75000   0.00000  Uiso   1.00
Zn914  Zn    0.88438   0.16666   0.75000   0.00000  Uiso   1.00
O915   O     0.67237   0.19173   0.98918   0.00000  Uiso   1.00
H916   H     0.67160   0.20551   0.51849   0.00000  Uiso   1.00
O917   O     0.97758   0.09662   0.51929   0.00000  Uiso   1.00
H918   H     0.99733   0.09596   0.53930   0.00000  Uiso   1.00
O919   O     0.74687   0.14383   0.60724   0.00000  Uiso   1.00
H920   H     0.76659   0.12271   0.61585   0.00000  Uiso   1.00
O921   O     0.87893   0.08316   0.91824   0.00000  Uiso   1.00
H922   H     0.84673   0.07519   0.91769   0.00000  Uiso   1.00
C923   C     0.85394   0.29332   0.82704   0.00000  Uiso   1.00
C924   C     0.80665   0.27784   0.86467   0.00000  Uiso   1.00
H925   H     0.78172   0.30463   0.88002   0.00000  Uiso   1.00
H926   H     0.78804   0.25507   0.84958   0.00000  Uiso   1.00
H927   H     0.81481   0.26229   0.89325   0.00000  Uiso   1.00
H928   H     0.88048   0.26726   0.81444   0.00000  Uiso   1.00
H929   H     0.87071   0.31620   0.84405   0.00000  Uiso   1.00
C930   C     0.80991   0.03926   0.67493   0.00000  Uiso   1.00
C931   C     0.85739   0.05019   0.63487   0.00000  Uiso   1.00
H932   H     0.87919   0.07191   0.64756   0.00000  Uiso   1.00
H933   H     0.87911   0.02142   0.62067   0.00000  Uiso   1.00
H934   H     0.84917   0.06525   0.60611   0.00000  Uiso   1.00
H935   H     0.78949   0.01712   0.66090   0.00000  Uiso   1.00
H936   H     0.78638   0.06732   0.68635   0.00000  Uiso   1.00
C937   C     0.16591   0.57988   0.75210   0.00000  Uiso   1.00
C938   C     0.16727   0.42006   0.74814   0.00000  Uiso   1.00
C939   C     0.09942   0.48166   0.55891   0.00000  Uiso   1.00
C940   C     0.20453   0.43941   0.95881   0.00000  Uiso   1.00
C941   C     0.06704   0.49212   0.53741   0.00000  Uiso   1.00
C942   C     0.23961   0.43577   0.97898   0.00000  Uiso   1.00
C943   C     0.17778   0.64677   0.78647   0.00000  Uiso   1.00
C944   C     0.15343   0.35299   0.71534   0.00000  Uiso   1.00
C945   C     0.17902   0.35648   0.78304   0.00000  Uiso   1.00
C946   C     0.15281   0.64336   0.71844   0.00000  Uiso   1.00
C947   C     0.16703   0.37586   0.74806   0.00000  Uiso   1.00
C948   C     0.16535   0.62401   0.75299   0.00000  Uiso   1.00
C949   C     0.32137   0.52398   0.71886   0.00000  Uiso   1.00
C950   C     0.01198   0.47596   0.78108   0.00000  Uiso   1.00
C951   C     0.03595   0.52402   0.71890   0.00000  Uiso   1.00
C952   C     0.29740   0.47594   0.78106   0.00000  Uiso   1.00
C953   C     0.13624   0.49970   0.83830   0.00000  Uiso   1.00
C954   C     0.19707   0.49967   0.66159   0.00000  Uiso   1.00
C955   C     0.11665   0.49709   0.88961   0.00000  Uiso   1.00
C956   C     0.21502   0.49136   0.61084   0.00000  Uiso   1.00
C957   C     0.05168   0.50882   0.96544   0.00000  Uiso   1.00
C958   C     0.26831   0.45183   0.54271   0.00000  Uiso   1.00
C959   C     0.06861   0.50864   0.91632   0.00000  Uiso   1.00
C960   C     0.25891   0.47005   0.58742   0.00000  Uiso   1.00
C961   C     0.14698   0.48293   0.91183   0.00000  Uiso   1.00
C962   C     0.18185   0.49620   0.58891   0.00000  Uiso   1.00
C963   C     0.12981   0.47816   0.96063   0.00000  Uiso   1.00
C964   C     0.18712   0.47392   0.54799   0.00000  Uiso   1.00
C965   C     0.08239   0.49342   0.98821   0.00000  Uiso   1.00
C966   C     0.23225   0.45411   0.52279   0.00000  Uiso   1.00
C967   C     0.16097   0.46281   0.98269   0.00000  Uiso   1.00
C968   C     0.14902   0.47279   0.53061   0.00000  Uiso   1.00
H969   H     0.02987   0.49898   0.56007   0.00000  Uiso   1.00
H970   H     0.27265   0.41833   0.96005   0.00000  Uiso   1.00
H971   H     0.15016   0.51579   0.60574   0.00000  Uiso   1.00
H972   H     0.18480   0.47682   0.89060   0.00000  Uiso   1.00
H973   H     0.28433   0.46552   0.60491   0.00000  Uiso   1.00
H974   H     0.04501   0.52003   0.89910   0.00000  Uiso   1.00
H975   H     0.18796   0.37520   0.80847   0.00000  Uiso   1.00
H976   H     0.14401   0.62467   0.69290   0.00000  Uiso   1.00
H977   H     0.31285   0.54316   0.69395   0.00000  Uiso   1.00
H978   H     0.02053   0.45674   0.80595   0.00000  Uiso   1.00
H979   H     0.06366   0.54325   0.69400   0.00000  Uiso   1.00
H980   H     0.26970   0.45666   0.80591   0.00000  Uiso   1.00
N981   N     0.04759   0.50001   0.75001   0.00000  Uiso   1.00
N982   N     0.28574   0.49999   0.74999   0.00000  Uiso   1.00
O983   O     0.12846   0.56108   0.75000   0.00000  Uiso   1.00
O984   O     0.20488   0.43892   0.74999   0.00000  Uiso   1.00
O985   O     0.20490   0.56107   0.75000   0.00000  Uiso   1.00
O986   O     0.12843   0.43893   0.75000   0.00000  Uiso   1.00
O987   O     0.10661   0.50001   0.81612   0.00000  Uiso   1.00
O988   O     0.22672   0.49999   0.68387   0.00000  Uiso   1.00
O989   O     0.18305   0.50000   0.81612   0.00000  Uiso   1.00
O990   O     0.15028   0.50000   0.68388   0.00000  Uiso   1.00
Zn991  Zn    0.11562   0.50001   0.75000   0.00000  Uiso   1.00
Zn992  Zn    0.21771   0.49999   0.75000   0.00000  Uiso   1.00
O993   O     0.00570   0.52507   0.98918   0.00000  Uiso   1.00
H994   H     0.00493   0.53884   0.51849   0.00000  Uiso   1.00
O995   O     0.31091   0.42996   0.51929   0.00000  Uiso   1.00
H996   H     0.33066   0.42929   0.53930   0.00000  Uiso   1.00
O997   O     0.08020   0.47717   0.60724   0.00000  Uiso   1.00
H998   H     0.09992   0.45604   0.61585   0.00000  Uiso   1.00
O999   O     0.21226   0.41649   0.91824   0.00000  Uiso   1.00
H1000  H     0.18006   0.40853   0.91769   0.00000  Uiso   1.00
C1001  C     0.18728   0.62665   0.82704   0.00000  Uiso   1.00
C1002  C     0.13999   0.61118   0.86467   0.00000  Uiso   1.00
H1003  H     0.11505   0.63796   0.88002   0.00000  Uiso   1.00
H1004  H     0.12137   0.58840   0.84958   0.00000  Uiso   1.00
H1005  H     0.14814   0.59562   0.89325   0.00000  Uiso   1.00
H1006  H     0.21381   0.60060   0.81444   0.00000  Uiso   1.00
H1007  H     0.20405   0.64953   0.84405   0.00000  Uiso   1.00
C1008  C     0.14325   0.37259   0.67493   0.00000  Uiso   1.00
C1009  C     0.19073   0.38352   0.63487   0.00000  Uiso   1.00
H1010  H     0.21252   0.40524   0.64756   0.00000  Uiso   1.00
H1011  H     0.21245   0.35475   0.62067   0.00000  Uiso   1.00
H1012  H     0.18250   0.39858   0.60611   0.00000  Uiso   1.00
H1013  H     0.12283   0.35046   0.66090   0.00000  Uiso   1.00
H1014  H     0.11971   0.40065   0.68635   0.00000  Uiso   1.00
C1015  C     0.49924   0.57988   0.75210   0.00000  Uiso   1.00
C1016  C     0.50060   0.42006   0.74814   0.00000  Uiso   1.00
C1017  C     0.43276   0.48166   0.55891   0.00000  Uiso   1.00
C1018  C     0.53786   0.43941   0.95881   0.00000  Uiso   1.00
C1019  C     0.40037   0.49212   0.53741   0.00000  Uiso   1.00
C1020  C     0.57295   0.43577   0.97898   0.00000  Uiso   1.00
C1021  C     0.51111   0.64677   0.78647   0.00000  Uiso   1.00
C1022  C     0.48676   0.35299   0.71534   0.00000  Uiso   1.00
C1023  C     0.51235   0.35648   0.78304   0.00000  Uiso   1.00
C1024  C     0.48615   0.64336   0.71844   0.00000  Uiso   1.00
C1025  C     0.50036   0.37586   0.74806   0.00000  Uiso   1.00
C1026  C     0.49868   0.62401   0.75299   0.00000  Uiso   1.00
C1027  C     0.65471   0.52398   0.71886   0.00000  Uiso   1.00
C1028  C     0.34532   0.47596   0.78108   0.00000  Uiso   1.00
C1029  C     0.36929   0.52402   0.71890   0.00000  Uiso   1.00
C1030  C     0.63073   0.47594   0.78106   0.00000  Uiso   1.00
C1031  C     0.46957   0.49970   0.83830   0.00000  Uiso   1.00
C1032  C     0.53041   0.49967   0.66159   0.00000  Uiso   1.00
C1033  C     0.44998   0.49709   0.88961   0.00000  Uiso   1.00
C1034  C     0.54835   0.49136   0.61084   0.00000  Uiso   1.00
C1035  C     0.38501   0.50882   0.96544   0.00000  Uiso   1.00
C1036  C     0.60165   0.45183   0.54271   0.00000  Uiso   1.00
C1037  C     0.40195   0.50864   0.91632   0.00000  Uiso   1.00
C1038  C     0.59225   0.47005   0.58742   0.00000  Uiso   1.00
C1039  C     0.48031   0.48293   0.91183   0.00000  Uiso   1.00
C1040  C     0.51518   0.49620   0.58891   0.00000  Uiso   1.00
C1041  C     0.46314   0.47816   0.96063   0.00000  Uiso   1.00
C1042  C     0.52045   0.47392   0.54799   0.00000  Uiso   1.00
C1043  C     0.41573   0.49342   0.98821   0.00000  Uiso   1.00
C1044  C     0.56558   0.45411   0.52279   0.00000  Uiso   1.00
C1045  C     0.49430   0.46281   0.98269   0.00000  Uiso   1.00
C1046  C     0.48235   0.47279   0.53061   0.00000  Uiso   1.00
H1047  H     0.36321   0.49898   0.56007   0.00000  Uiso   1.00
H1048  H     0.60599   0.41833   0.96005   0.00000  Uiso   1.00
H1049  H     0.48350   0.51579   0.60574   0.00000  Uiso   1.00
H1050  H     0.51813   0.47682   0.89060   0.00000  Uiso   1.00
H1051  H     0.61766   0.46552   0.60491   0.00000  Uiso   1.00
H1052  H     0.37834   0.52003   0.89910   0.00000  Uiso   1.00
H1053  H     0.52130   0.37520   0.80847   0.00000  Uiso   1.00
H1054  H     0.47734   0.62467   0.69290   0.00000  Uiso   1.00
H1055  H     0.64618   0.54316   0.69395   0.00000  Uiso   1.00
H1056  H     0.35387   0.45674   0.80595   0.00000  Uiso   1.00
H1057  H     0.39700   0.54325   0.69400   0.00000  Uiso   1.00
H1058  H     0.60304   0.45666   0.80591   0.00000  Uiso   1.00
N1059  N     0.38093   0.50001   0.75001   0.00000  Uiso   1.00
N1060  N     0.61907   0.49999   0.74999   0.00000  Uiso   1.00
O1061  O     0.46179   0.56108   0.75000   0.00000  Uiso   1.00
O1062  O     0.53821   0.43892   0.74999   0.00000  Uiso   1.00
O1063  O     0.53823   0.56107   0.75000   0.00000  Uiso   1.00
O1064  O     0.46177   0.43893   0.75000   0.00000  Uiso   1.00
O1065  O     0.43994   0.50001   0.81612   0.00000  Uiso   1.00
O1066  O     0.56006   0.49999   0.68387   0.00000  Uiso   1.00
O1067  O     0.51639   0.50000   0.81612   0.00000  Uiso   1.00
O1068  O     0.48361   0.50000   0.68388   0.00000  Uiso   1.00
Zn1069 Zn    0.44896   0.50001   0.75000   0.00000  Uiso   1.00
Zn1070 Zn    0.55104   0.49999   0.75000   0.00000  Uiso   1.00
O1071  O     0.33903   0.52507   0.98918   0.00000  Uiso   1.00
H1072  H     0.33827   0.53884   0.51849   0.00000  Uiso   1.00
O1073  O     0.64424   0.42996   0.51929   0.00000  Uiso   1.00
H1074  H     0.66399   0.42929   0.53930   0.00000  Uiso   1.00
O1075  O     0.41353   0.47717   0.60724   0.00000  Uiso   1.00
H1076  H     0.43325   0.45604   0.61585   0.00000  Uiso   1.00
O1077  O     0.54560   0.41649   0.91824   0.00000  Uiso   1.00
H1078  H     0.51339   0.40853   0.91769   0.00000  Uiso   1.00
C1079  C     0.52061   0.62665   0.82704   0.00000  Uiso   1.00
C1080  C     0.47332   0.61118   0.86467   0.00000  Uiso   1.00
H1081  H     0.44838   0.63796   0.88002   0.00000  Uiso   1.00
H1082  H     0.45470   0.58840   0.84958   0.00000  Uiso   1.00
H1083  H     0.48148   0.59562   0.89325   0.00000  Uiso   1.00
H1084  H     0.54715   0.60060   0.81444   0.00000  Uiso   1.00
H1085  H     0.53738   0.64953   0.84405   0.00000  Uiso   1.00
C1086  C     0.47658   0.37259   0.67493   0.00000  Uiso   1.00
C1087  C     0.52406   0.38352   0.63487   0.00000  Uiso   1.00
H1088  H     0.54585   0.40524   0.64756   0.00000  Uiso   1.00
H1089  H     0.54578   0.35475   0.62067   0.00000  Uiso   1.00
H1090  H     0.51583   0.39858   0.60611   0.00000  Uiso   1.00
H1091  H     0.45616   0.35046   0.66090   0.00000  Uiso   1.00
H1092  H     0.45304   0.40065   0.68635   0.00000  Uiso   1.00
C1093  C     0.83257   0.57988   0.75210   0.00000  Uiso   1.00
C1094  C     0.83394   0.42006   0.74814   0.00000  Uiso   1.00
C1095  C     0.76609   0.48166   0.55891   0.00000  Uiso   1.00
C1096  C     0.87119   0.43941   0.95881   0.00000  Uiso   1.00
C1097  C     0.73371   0.49212   0.53741   0.00000  Uiso   1.00
C1098  C     0.90628   0.43577   0.97898   0.00000  Uiso   1.00
C1099  C     0.84444   0.64677   0.78647   0.00000  Uiso   1.00
C1100  C     0.82010   0.35299   0.71534   0.00000  Uiso   1.00
C1101  C     0.84568   0.35648   0.78304   0.00000  Uiso   1.00
C1102  C     0.81948   0.64336   0.71844   0.00000  Uiso   1.00
C1103  C     0.83370   0.37586   0.74806   0.00000  Uiso   1.00
C1104  C     0.83201   0.62401   0.75299   0.00000  Uiso   1.00
C1105  C     0.98804   0.52398   0.71886   0.00000  Uiso   1.00
C1106  C     0.67865   0.47596   0.78108   0.00000  Uiso   1.00
C1107  C     0.70262   0.52402   0.71890   0.00000  Uiso   1.00
C1108  C     0.96406   0.47594   0.78106   0.00000  Uiso   1.00
C1109  C     0.80290   0.49970   0.83830   0.00000  Uiso   1.00
C1110  C     0.86374   0.49967   0.66159   0.00000  Uiso   1.00
C1111  C     0.78331   0.49709   0.88961   0.00000  Uiso   1.00
C1112  C     0.88169   0.49136   0.61084   0.00000  Uiso   1.00
C1113  C     0.71834   0.50882   0.96544   0.00000  Uiso   1.00
C1114  C     0.93498   0.45183   0.54271   0.00000  Uiso   1.00
C1115  C     0.73528   0.50864   0.91632   0.00000  Uiso   1.00
C1116  C     0.92558   0.47005   0.58742   0.00000  Uiso   1.00
C1117  C     0.81365   0.48293   0.91183   0.00000  Uiso   1.00
C1118  C     0.84851   0.49620   0.58891   0.00000  Uiso   1.00
C1119  C     0.79648   0.47816   0.96063   0.00000  Uiso   1.00
C1120  C     0.85378   0.47392   0.54799   0.00000  Uiso   1.00
C1121  C     0.74906   0.49342   0.98821   0.00000  Uiso   1.00
C1122  C     0.89892   0.45411   0.52279   0.00000  Uiso   1.00
C1123  C     0.82763   0.46281   0.98269   0.00000  Uiso   1.00
C1124  C     0.81568   0.47279   0.53061   0.00000  Uiso   1.00
H1125  H     0.69654   0.49898   0.56007   0.00000  Uiso   1.00
H1126  H     0.93932   0.41833   0.96005   0.00000  Uiso   1.00
H1127  H     0.81683   0.51579   0.60574   0.00000  Uiso   1.00
H1128  H     0.85146   0.47682   0.89060   0.00000  Uiso   1.00
H1129  H     0.95100   0.46552   0.60491   0.00000  Uiso   1.00
H1130  H     0.71167   0.52003   0.89910   0.00000  Uiso   1.00
H1131  H     0.85463   0.37520   0.80847   0.00000  Uiso   1.00
H1132  H     0.81067   0.62467   0.69290   0.00000  Uiso   1.00
H1133  H     0.97951   0.54316   0.69395   0.00000  Uiso   1.00
H1134  H     0.68720   0.45674   0.80595   0.00000  Uiso   1.00
H1135  H     0.73033   0.54325   0.69400   0.00000  Uiso   1.00
H1136  H     0.93637   0.45666   0.80591   0.00000  Uiso   1.00
N1137  N     0.71426   0.50001   0.75001   0.00000  Uiso   1.00
N1138  N     0.95241   0.49999   0.74999   0.00000  Uiso   1.00
O1139  O     0.79512   0.56108   0.75000   0.00000  Uiso   1.00
O1140  O     0.87154   0.43892   0.74999   0.00000  Uiso   1.00
O1141  O     0.87157   0.56107   0.75000   0.00000  Uiso   1.00
O1142  O     0.79510   0.43893   0.75000   0.00000  Uiso   1.00
O1143  O     0.77328   0.50001   0.81612   0.00000  Uiso   1.00
O1144  O     0.89339   0.49999   0.68387   0.00000  Uiso   1.00
O1145  O     0.84972   0.50000   0.81612   0.00000  Uiso   1.00
O1146  O     0.81695   0.50000   0.68388   0.00000  Uiso   1.00
Zn1147 Zn    0.78229   0.50001   0.75000   0.00000  Uiso   1.00
Zn1148 Zn    0.88438   0.49999   0.75000   0.00000  Uiso   1.00
O1149  O     0.67237   0.52507   0.98918   0.00000  Uiso   1.00
H1150  H     0.67160   0.53884   0.51849   0.00000  Uiso   1.00
O1151  O     0.97758   0.42996   0.51929   0.00000  Uiso   1.00
H1152  H     0.99733   0.42929   0.53930   0.00000  Uiso   1.00
O1153  O     0.74687   0.47717   0.60724   0.00000  Uiso   1.00
H1154  H     0.76659   0.45604   0.61585   0.00000  Uiso   1.00
O1155  O     0.87893   0.41649   0.91824   0.00000  Uiso   1.00
H1156  H     0.84673   0.40853   0.91769   0.00000  Uiso   1.00
C1157  C     0.85394   0.62665   0.82704   0.00000  Uiso   1.00
C1158  C     0.80665   0.61118   0.86467   0.00000  Uiso   1.00
H1159  H     0.78172   0.63796   0.88002   0.00000  Uiso   1.00
H1160  H     0.78804   0.58840   0.84958   0.00000  Uiso   1.00
H1161  H     0.81481   0.59562   0.89325   0.00000  Uiso   1.00
H1162  H     0.88048   0.60060   0.81444   0.00000  Uiso   1.00
H1163  H     0.87071   0.64953   0.84405   0.00000  Uiso   1.00
C1164  C     0.80991   0.37259   0.67493   0.00000  Uiso   1.00
C1165  C     0.85739   0.38352   0.63487   0.00000  Uiso   1.00
H1166  H     0.87919   0.40524   0.64756   0.00000  Uiso   1.00
H1167  H     0.87911   0.35475   0.62067   0.00000  Uiso   1.00
H1168  H     0.84917   0.39858   0.60611   0.00000  Uiso   1.00
H1169  H     0.78949   0.35046   0.66090   0.00000  Uiso   1.00
H1170  H     0.78638   0.40065   0.68635   0.00000  Uiso   1.00
C1171  C     0.16591   0.91321   0.75210   0.00000  Uiso   1.00
C1172  C     0.16727   0.75339   0.74814   0.00000  Uiso   1.00
C1173  C     0.09942   0.81500   0.55891   0.00000  Uiso   1.00
C1174  C     0.20453   0.77274   0.95881   0.00000  Uiso   1.00
C1175  C     0.06704   0.82545   0.53741   0.00000  Uiso   1.00
C1176  C     0.23961   0.76910   0.97898   0.00000  Uiso   1.00
C1177  C     0.17778   0.98011   0.78647   0.00000  Uiso   1.00
C1178  C     0.15343   0.68633   0.71534   0.00000  Uiso   1.00
C1179  C     0.17902   0.68982   0.78304   0.00000  Uiso   1.00
C1180  C     0.15281   0.97670   0.71844   0.00000  Uiso   1.00
C1181  C     0.16703   0.70919   0.74806   0.00000  Uiso   1.00
C1182  C     0.16535   0.95734   0.75299   0.00000  Uiso   1.00
C1183  C     0.32137   0.85732   0.71886   0.00000  Uiso   1.00
C1184  C     0.01198   0.80930   0.78108   0.00000  Uiso   1.00
C1185  C     0.03595   0.85735   0.71890   0.00000  Uiso   1.00
C1186  C     0.29740   0.80927   0.78106   0.00000  Uiso   1.00
C1187  C     0.13624   0.83304   0.83830   0.00000  Uiso   1.00
C1188  C     0.19707   0.83300   0.66159   0.00000  Uiso   1.00
C1189  C     0.11665   0.83042   0.88961   0.00000  Uiso   1.00
C1190  C     0.21502   0.82469   0.61084   0.00000  Uiso   1.00
C1191  C     0.05168   0.84215   0.96544   0.00000  Uiso   1.00
C1192  C     0.26831   0.78516   0.54271   0.00000  Uiso   1.00
C1193  C     0.06861   0.84197   0.91632   0.00000  Uiso   1.00
C1194  C     0.25891   0.80338   0.58742   0.00000  Uiso   1.00
C1195  C     0.14698   0.81627   0.91183   0.00000  Uiso   1.00
C1196  C     0.18185   0.82953   0.58891   0.00000  Uiso   1.00
C1197  C     0.12981   0.81149   0.96063   0.00000  Uiso   1.00
C1198  C     0.18712   0.80726   0.54799   0.00000  Uiso   1.00
C1199  C     0.08239   0.82675   0.98821   0.00000  Uiso   1.00
C1200  C     0.23225   0.78745   0.52279   0.00000  Uiso   1.00
C1201  C     0.16097   0.79614   0.98269   0.00000  Uiso   1.00
C1202  C     0.14902   0.80612   0.53061   0.00000  Uiso   1.00
H1203  H     0.02987   0.83232   0.56007   0.00000  Uiso   1.00
H1204  H     0.27265   0.75166   0.96005   0.00000  Uiso   1.00
H1205  H     0.15016   0.84913   0.60574   0.00000  Uiso   1.00
H1206  H     0.18480   0.81015   0.89060   0.00000  Uiso   1.00
H1207  H     0.28433   0.79885   0.60491   0.00000  Uiso   1.00
H1208  H     0.04501   0.85336   0.89910   0.00000  Uiso   1.00
H1209  H     0.18796   0.70853   0.80847   0.00000  Uiso   1.00
H1210  H     0.14401   0.95800   0.69290   0.00000  Uiso   1.00
H1211  H     0.31285   0.87649   0.69395   0.00000  Uiso   1.00
H1212  H     0.02053   0.79007   0.80595   0.00000  Uiso   1.00
H1213  H     0.06366   0.87658   0.69400   0.00000  Uiso   1.00
H1214  H     0.26970   0.78999   0.80591   0.00000  Uiso   1.00
N1215  N     0.04759   0.83334   0.75001   0.00000  Uiso   1.00
N1216  N     0.28574   0.83332   0.74999   0.00000  Uiso   1.00
O1217  O     0.12846   0.89442   0.75000   0.00000  Uiso   1.00
O1218  O     0.20488   0.77225   0.74999   0.00000  Uiso   1.00
O1219  O     0.20490   0.89441   0.75000   0.00000  Uiso   1.00
O1220  O     0.12843   0.77226   0.75000   0.00000  Uiso   1.00
O1221  O     0.10661   0.83334   0.81612   0.00000  Uiso   1.00
O1222  O     0.22672   0.83333   0.68387   0.00000  Uiso   1.00
O1223  O     0.18305   0.83333   0.81612   0.00000  Uiso   1.00
O1224  O     0.15028   0.83334   0.68388   0.00000  Uiso   1.00
Zn1225 Zn    0.11562   0.83334   0.75000   0.00000  Uiso   1.00
Zn1226 Zn    0.21771   0.83333   0.75000   0.00000  Uiso   1.00
O1227  O     0.00570   0.85840   0.98918   0.00000  Uiso   1.00
H1228  H     0.00493   0.87217   0.51849   0.00000  Uiso   1.00
O1229  O     0.31091   0.76329   0.51929   0.00000  Uiso   1.00
H1230  H     0.33066   0.76263   0.53930   0.00000  Uiso   1.00
O1231  O     0.08020   0.81050   0.60724   0.00000  Uiso   1.00
H1232  H     0.09992   0.78938   0.61585   0.00000  Uiso   1.00
O1233  O     0.21226   0.74982   0.91824   0.00000  Uiso   1.00
H1234  H     0.18006   0.74186   0.91769   0.00000  Uiso   1.00
C1235  C     0.18728   0.95998   0.82704   0.00000  Uiso   1.00
C1236  C     0.13999   0.94451   0.86467   0.00000  Uiso   1.00
H1237  H     0.11505   0.97130   0.88002   0.00000  Uiso   1.00
H1238  H     0.12137   0.92173   0.84958   0.00000  Uiso   1.00
H1239  H     0.14814   0.92896   0.89325   0.00000  Uiso   1.00
H1240  H     0.21381   0.93393   0.81444   0.00000  Uiso   1.00
H1241  H     0.20405   0.98287   0.84405   0.00000  Uiso   1.00
C1242  C     0.14325   0.70592   0.67493   0.00000  Uiso   1.00
C1243  C     0.19073   0.71686   0.63487   0.00000  Uiso   1.00
H1244  H     0.21252   0.73858   0.64756   0.00000  Uiso   1.00
H1245  H     0.21245   0.68808   0.62067   0.00000  Uiso   1.00
H1246  H     0.18250   0.73191   0.60611   0.00000  Uiso   1.00
H1247  H     0.12283   0.68379   0.66090   0.00000  Uiso   1.00
H1248  H     0.11971   0.73399   0.68635   0.00000  Uiso   1.00
C1249  C     0.49924   0.91321   0.75210   0.00000  Uiso   1.00
C1250  C     0.50060   0.75339   0.74814   0.00000  Uiso   1.00
C1251  C     0.43276   0.81500   0.55891   0.00000  Uiso   1.00
C1252  C     0.53786   0.77274   0.95881   0.00000  Uiso   1.00
C1253  C     0.40037   0.82545   0.53741   0.00000  Uiso   1.00
C1254  C     0.57295   0.76910   0.97898   0.00000  Uiso   1.00
C1255  C     0.51111   0.98011   0.78647   0.00000  Uiso   1.00
C1256  C     0.48676   0.68633   0.71534   0.00000  Uiso   1.00
C1257  C     0.51235   0.68982   0.78304   0.00000  Uiso   1.00
C1258  C     0.48615   0.97670   0.71844   0.00000  Uiso   1.00
C1259  C     0.50036   0.70919   0.74806   0.00000  Uiso   1.00
C1260  C     0.49868   0.95734   0.75299   0.00000  Uiso   1.00
C1261  C     0.65471   0.85732   0.71886   0.00000  Uiso   1.00
C1262  C     0.34532   0.80930   0.78108   0.00000  Uiso   1.00
C1263  C     0.36929   0.85735   0.71890   0.00000  Uiso   1.00
C1264  C     0.63073   0.80927   0.78106   0.00000  Uiso   1.00
C1265  C     0.46957   0.83304   0.83830   0.00000  Uiso   1.00
C1266  C     0.53041   0.83300   0.66159   0.00000  Uiso   1.00
C1267  C     0.44998   0.83042   0.88961   0.00000  Uiso   1.00
C1268  C     0.54835   0.82469   0.61084   0.00000  Uiso   1.00
C1269  C     0.38501   0.84215   0.96544   0.00000  Uiso   1.00
C1270  C     0.60165   0.78516   0.54271   0.00000  Uiso   1.00
C1271  C     0.40195   0.84197   0.91632   0.00000  Uiso   1.00
C1272  C     0.59225   0.80338   0.58742   0.00000  Uiso   1.00
C1273  C     0.48031   0.81627   0.91183   0.00000  Uiso   1.00
C1274  C     0.51518   0.82953   0.58891   0.00000  Uiso   1.00
C1275  C     0.46314   0.81149   0.96063   0.00000  Uiso   1.00
C1276  C     0.52045   0.80726   0.54799   0.00000  Uiso   1.00
C1277  C     0.41573   0.82675   0.98821   0.00000  Uiso   1.00
C1278  C     0.56558   0.78745   0.52279   0.00000  Uiso   1.00
C1279  C     0.49430   0.79614   0.98269   0.00000  Uiso   1.00
C1280  C     0.48235   0.80612   0.53061   0.00000  Uiso   1.00
H1281  H     0.36321   0.83232   0.56007   0.00000  Uiso   1.00
H1282  H     0.60599   0.75166   0.96005   0.00000  Uiso   1.00
H1283  H     0.48350   0.84913   0.60574   0.00000  Uiso   1.00
H1284  H     0.51813   0.81015   0.89060   0.00000  Uiso   1.00
H1285  H     0.61766   0.79885   0.60491   0.00000  Uiso   1.00
H1286  H     0.37834   0.85336   0.89910   0.00000  Uiso   1.00
H1287  H     0.52130   0.70853   0.80847   0.00000  Uiso   1.00
H1288  H     0.47734   0.95800   0.69290   0.00000  Uiso   1.00
H1289  H     0.64618   0.87649   0.69395   0.00000  Uiso   1.00
H1290  H     0.35387   0.79007   0.80595   0.00000  Uiso   1.00
H1291  H     0.39700   0.87658   0.69400   0.00000  Uiso   1.00
H1292  H     0.60304   0.78999   0.80591   0.00000  Uiso   1.00
N1293  N     0.38093   0.83334   0.75001   0.00000  Uiso   1.00
N1294  N     0.61907   0.83332   0.74999   0.00000  Uiso   1.00
O1295  O     0.46179   0.89442   0.75000   0.00000  Uiso   1.00
O1296  O     0.53821   0.77225   0.74999   0.00000  Uiso   1.00
O1297  O     0.53823   0.89441   0.75000   0.00000  Uiso   1.00
O1298  O     0.46177   0.77226   0.75000   0.00000  Uiso   1.00
O1299  O     0.43994   0.83334   0.81612   0.00000  Uiso   1.00
O1300  O     0.56006   0.83333   0.68387   0.00000  Uiso   1.00
O1301  O     0.51639   0.83333   0.81612   0.00000  Uiso   1.00
O1302  O     0.48361   0.83334   0.68388   0.00000  Uiso   1.00
Zn1303 Zn    0.44896   0.83334   0.75000   0.00000  Uiso   1.00
Zn1304 Zn    0.55104   0.83333   0.75000   0.00000  Uiso   1.00
O1305  O     0.33903   0.85840   0.98918   0.00000  Uiso   1.00
H1306  H     0.33827   0.87217   0.51849   0.00000  Uiso   1.00
O1307  O     0.64424   0.76329   0.51929   0.00000  Uiso   1.00
H1308  H     0.66399   0.76263   0.53930   0.00000  Uiso   1.00
O1309  O     0.41353   0.81050   0.60724   0.00000  Uiso   1.00
H1310  H     0.43325   0.78938   0.61585   0.00000  Uiso   1.00
O1311  O     0.54560   0.74982   0.91824   0.00000  Uiso   1.00
H1312  H     0.51339   0.74186   0.91769   0.00000  Uiso   1.00
C1313  C     0.52061   0.95998   0.82704   0.00000  Uiso   1.00
C1314  C     0.47332   0.94451   0.86467   0.00000  Uiso   1.00
H1315  H     0.44838   0.97130   0.88002   0.00000  Uiso   1.00
H1316  H     0.45470   0.92173   0.84958   0.00000  Uiso   1.00
H1317  H     0.48148   0.92896   0.89325   0.00000  Uiso   1.00
H1318  H     0.54715   0.93393   0.81444   0.00000  Uiso   1.00
H1319  H     0.53738   0.98287   0.84405   0.00000  Uiso   1.00
C1320  C     0.47658   0.70592   0.67493   0.00000  Uiso   1.00
C1321  C     0.52406   0.71686   0.63487   0.00000  Uiso   1.00
H1322  H     0.54585   0.73858   0.64756   0.00000  Uiso   1.00
H1323  H     0.54578   0.68808   0.62067   0.00000  Uiso   1.00
H1324  H     0.51583   0.73191   0.60611   0.00000  Uiso   1.00
H1325  H     0.45616   0.68379   0.66090   0.00000  Uiso   1.00
H1326  H     0.45304   0.73399   0.68635   0.00000  Uiso   1.00
C1327  C     0.83257   0.91321   0.75210   0.00000  Uiso   1.00
C1328  C     0.83394   0.75339   0.74814   0.00000  Uiso   1.00
C1329  C     0.76609   0.81500   0.55891   0.00000  Uiso   1.00
C1330  C     0.87119   0.77274   0.95881   0.00000  Uiso   1.00
C1331  C     0.73371   0.82545   0.53741   0.00000  Uiso   1.00
C1332  C     0.90628   0.76910   0.97898   0.00000  Uiso   1.00
C1333  C     0.84444   0.98011   0.78647   0.00000  Uiso   1.00
C1334  C     0.82010   0.68633   0.71534   0.00000  Uiso   1.00
C1335  C     0.84568   0.68982   0.78304   0.00000  Uiso   1.00
C1336  C     0.81948   0.97670   0.71844   0.00000  Uiso   1.00
C1337  C     0.83370   0.70919   0.74806   0.00000  Uiso   1.00
C1338  C     0.83201   0.95734   0.75299   0.00000  Uiso   1.00
C1339  C     0.98804   0.85732   0.71886   0.00000  Uiso   1.00
C1340  C     0.67865   0.80930   0.78108   0.00000  Uiso   1.00
C1341  C     0.70262   0.85735   0.71890   0.00000  Uiso   1.00
C1342  C     0.96406   0.80927   0.78106   0.00000  Uiso   1.00
C1343  C     0.80290   0.83304   0.83830   0.00000  Uiso   1.00
C1344  C     0.86374   0.83300   0.66159   0.00000  Uiso   1.00
C1345  C     0.78331   0.83042   0.88961   0.00000  Uiso   1.00
C1346  C     0.88169   0.82469   0.61084   0.00000  Uiso   1.00
C1347  C     0.71834   0.84215   0.96544   0.00000  Uiso   1.00
C1348  C     0.93498   0.78516   0.54271   0.00000  Uiso   1.00
C1349  C     0.73528   0.84197   0.91632   0.00000  Uiso   1.00
C1350  C     0.92558   0.80338   0.58742   0.00000  Uiso   1.00
C1351  C     0.81365   0.81627   0.91183   0.00000  Uiso   1.00
C1352  C     0.84851   0.82953   0.58891   0.00000  Uiso   1.00
C1353  C     0.79648   0.81149   0.96063   0.00000  Uiso   1.00
C1354  C     0.85378   0.80726   0.54799   0.00000  Uiso   1.00
C1355  C     0.74906   0.82675   0.98821   0.00000  Uiso   1.00
C1356  C     0.89892   0.78745   0.52279   0.00000  Uiso   1.00
C1357  C     0.82763   0.79614   0.98269   0.00000  Uiso   1.00
C1358  C     0.81568   0.80612   0.53061   0.00000  Uiso   1.00
H1359  H     0.69654   0.83232   0.56007   0.00000  Uiso   1.00
H1360  H     0.93932   0.75166   0.96005   0.00000  Uiso   1.00
H1361  H     0.81683   0.84913   0.60574   0.00000  Uiso   1.00
H1362  H     0.85146   0.81015   0.89060   0.00000  Uiso   1.00
H1363  H     0.95100   0.79885   0.60491   0.00000  Uiso   1.00
H1364  H     0.71167   0.85336   0.89910   0.00000  Uiso   1.00
H1365  H     0.85463   0.70853   0.80847   0.00000  Uiso   1.00
H1366  H     0.81067   0.95800   0.69290   0.00000  Uiso   1.00
H1367  H     0.97951   0.87649   0.69395   0.00000  Uiso   1.00
H1368  H     0.68720   0.79007   0.80595   0.00000  Uiso   1.00
H1369  H     0.73033   0.87658   0.69400   0.00000  Uiso   1.00
H1370  H     0.93637   0.78999   0.80591   0.00000  Uiso   1.00
N1371  N     0.71426   0.83334   0.75001   0.00000  Uiso   1.00
N1372  N     0.95241   0.83332   0.74999   0.00000  Uiso   1.00
O1373  O     0.79512   0.89442   0.75000   0.00000  Uiso   1.00
O1374  O     0.87154   0.77225   0.74999   0.00000  Uiso   1.00
O1375  O     0.87157   0.89441   0.75000   0.00000  Uiso   1.00
O1376  O     0.79510   0.77226   0.75000   0.00000  Uiso   1.00
O1377  O     0.77328   0.83334   0.81612   0.00000  Uiso   1.00
O1378  O     0.89339   0.83333   0.68387   0.00000  Uiso   1.00
O1379  O     0.84972   0.83333   0.81612   0.00000  Uiso   1.00
O1380  O     0.81695   0.83334   0.68388   0.00000  Uiso   1.00
Zn1381 Zn    0.78229   0.83334   0.75000   0.00000  Uiso   1.00
Zn1382 Zn    0.88438   0.83333   0.75000   0.00000  Uiso   1.00
O1383  O     0.67237   0.85840   0.98918   0.00000  Uiso   1.00
H1384  H     0.67160   0.87217   0.51849   0.00000  Uiso   1.00
O1385  O     0.97758   0.76329   0.51929   0.00000  Uiso   1.00
H1386  H     0.99733   0.76263   0.53930   0.00000  Uiso   1.00
O1387  O     0.74687   0.81050   0.60724   0.00000  Uiso   1.00
H1388  H     0.76659   0.78938   0.61585   0.00000  Uiso   1.00
O1389  O     0.87893   0.74982   0.91824   0.00000  Uiso   1.00
H1390  H     0.84673   0.74186   0.91769   0.00000  Uiso   1.00
C1391  C     0.85394   0.95998   0.82704   0.00000  Uiso   1.00
C1392  C     0.80665   0.94451   0.86467   0.00000  Uiso   1.00
H1393  H     0.78172   0.97130   0.88002   0.00000  Uiso   1.00
H1394  H     0.78804   0.92173   0.84958   0.00000  Uiso   1.00
H1395  H     0.81481   0.92896   0.89325   0.00000  Uiso   1.00
H1396  H     0.88048   0.93393   0.81444   0.00000  Uiso   1.00
H1397  H     0.87071   0.98287   0.84405   0.00000  Uiso   1.00
C1398  C     0.80991   0.70592   0.67493   0.00000  Uiso   1.00
C1399  C     0.85739   0.71686   0.63487   0.00000  Uiso   1.00
H1400  H     0.87919   0.73858   0.64756   0.00000  Uiso   1.00
H1401  H     0.87911   0.68808   0.62067   0.00000  Uiso   1.00
H1402  H     0.84917   0.73191   0.60611   0.00000  Uiso   1.00
H1403  H     0.78949   0.68379   0.66090   0.00000  Uiso   1.00
H1404  H     0.78638   0.73399   0.68635   0.00000  Uiso   1.00
loop_
_geom_bond_atom_site_label_1
_geom_bond_atom_site_label_2
_geom_bond_distance
_geom_bond_site_symmetry_2
_ccdc_geom_bond_type
C1     C12     1.411   .     S
C1     O47     1.281   .     A
C1     O49     1.281   .     A
C2     O50     1.279   .     A
C2     C11     1.413   .     S
C2     O48     1.284   .     A
C3     C32     1.425   .     A
C3     O61     1.380   .     S
C3     C5      1.391   .     A
C4     O63     1.379   .     S
C4     C6      1.396   .     A
C4     C31     1.429   .     A
C5     H33     1.080   .     S
C5     C731    1.401   1_554 S
C6     H34     1.084   .     S
C6     C732    1.399   .     S
C7     C12     1.408   .     A
C7     C65     1.518   .     S
C7     C243    1.380   .     S
C8     C72     1.517   .     S
C8     C11     1.409   .     A
C8     C478    1.377   1_545 S
C9     H39     1.086   .     S
C9     C11     1.395   .     A
C9     C475    1.380   1_545 S
C10    H40     1.086   .     S
C10    C12     1.392   .     A
C10    C242    1.377   .     S
C13    H41     1.082   .     S
C13    N46     1.366   .     A
C13    C93     1.417   .     S
C14    H42     1.082   .     S
C14    N45     1.366   .     A
C14    C172    1.417   1_455 S
C15    N45     1.367   .     A
C15    H43     1.082   .     S
C15    C169    1.417   1_455 S
C16    H44     1.082   .     S
C16    N46     1.367   .     A
C16    C92     1.417   .     S
C17    O51     1.292   .     A
C17    O53     1.295   .     A
C17    C19     1.459   .     S
C18    O52     1.295   .     A
C18    C20     1.463   .     S
C18    O54     1.294   .     A
C19    C23     1.397   .     A
C19    C25     1.389   .     A
C20    C24     1.401   .     A
C20    C26     1.389   .     A
C21    C23     1.395   .     A
C21    C29     1.424   .     A
C21    O57     1.380   .     S
C22    C24     1.411   .     A
C22    O59     1.382   .     S
C22    C30     1.413   .     A
C23    H38     1.084   .     S
C24    H37     1.083   .     S
C25    C27     1.395   .     A
C25    H36     1.080   .     S
C26    C28     1.392   .     A
C26    H35     1.082   .     S
C27    C29     1.424   .     A
C27    C31     1.419   .     A
C28    C32     1.414   .     A
C28    C30     1.415   .     A
C29    C707    1.401   .     S
C30    C708    1.399   1_554 S
C31    C734    1.407   .     S
C32    C733    1.407   1_554 S
N45    Zn55    2.011   .     S
N46    Zn56    2.011   .     S
O47    Zn55    1.989   .     S
O48    Zn56    1.989   .     S
O49    Zn56    1.989   .     S
O50    Zn55    1.989   .     S
O51    Zn55    1.939   .     S
O52    Zn56    1.939   .     S
O53    Zn56    1.896   .     S
O54    Zn55    1.896   .     S
O57    H760    0.988   .     S
H58    O759    0.988   1_554 S
O59    H60     0.991   .     S
O61    H62     0.991   .     S
O63    H64     0.991   .     S
C65    H70     1.108   .     S
C65    H71     1.112   .     S
C65    C66     1.527   .     S
C66    H68     1.109   .     S
C66    H69     1.111   .     S
C66    H67     1.111   .     S
C72    H78     1.107   .     S
C72    H77     1.112   .     S
C72    C73     1.522   .     S
C73    H74     1.109   .     S
C73    H75     1.111   .     S
C73    H76     1.109   .     S
C79    C90     1.411   .     S
C79    O125    1.281   .     A
C79    O127    1.281   .     A
C80    O128    1.279   .     A
C80    C89     1.413   .     S
C80    O126    1.284   .     A
C81    C110    1.425   .     A
C81    O139    1.380   .     S
C81    C83     1.391   .     A
C82    O141    1.379   .     S
C82    C84     1.396   .     A
C82    C109    1.429   .     A
C83    H111    1.080   .     S
C83    C809    1.401   1_554 S
C84    H112    1.084   .     S
C84    C810    1.399   .     S
C85    C90     1.408   .     A
C85    C143    1.518   .     S
C85    C321    1.380   .     S
C86    C150    1.517   .     S
C86    C89     1.409   .     A
C86    C556    1.377   1_545 S
C87    H117    1.086   .     S
C87    C89     1.395   .     A
C87    C553    1.380   1_545 S
C88    H118    1.086   .     S
C88    C90     1.392   .     A
C88    C320    1.377   .     S
C91    H119    1.082   .     S
C91    N124    1.366   .     A
C91    C171    1.417   .     S
C92    H120    1.082   .     S
C92    N123    1.366   .     A
C93    N123    1.367   .     A
C93    H121    1.082   .     S
C94    H122    1.082   .     S
C94    N124    1.367   .     A
C94    C170    1.417   .     S
C95    O129    1.292   .     A
C95    O131    1.295   .     A
C95    C97     1.459   .     S
C96    O130    1.295   .     A
C96    C98     1.463   .     S
C96    O132    1.294   .     A
C97    C101    1.397   .     A
C97    C103    1.389   .     A
C98    C102    1.401   .     A
C98    C104    1.389   .     A
C99    C101    1.395   .     A
C99    C107    1.424   .     A
C99    O135    1.380   .     S
C100   C102    1.411   .     A
C100   O137    1.382   .     S
C100   C108    1.413   .     A
C101   H116    1.084   .     S
C102   H115    1.083   .     S
C103   C105    1.395   .     A
C103   H114    1.080   .     S
C104   C106    1.392   .     A
C104   H113    1.082   .     S
C105   C107    1.424   .     A
C105   C109    1.419   .     A
C106   C110    1.414   .     A
C106   C108    1.415   .     A
C107   C785    1.401   .     S
C108   C786    1.399   1_554 S
C109   C812    1.407   .     S
C110   C811    1.407   1_554 S
N123   Zn133   2.011   .     S
N124   Zn134   2.011   .     S
O125   Zn133   1.989   .     S
O126   Zn134   1.989   .     S
O127   Zn134   1.989   .     S
O128   Zn133   1.989   .     S
O129   Zn133   1.939   .     S
O130   Zn134   1.939   .     S
O131   Zn134   1.896   .     S
O132   Zn133   1.896   .     S
O135   H838    0.988   .     S
H136   O837    0.988   1_554 S
O137   H138    0.991   .     S
O139   H140    0.991   .     S
O141   H142    0.991   .     S
C143   H148    1.108   .     S
C143   H149    1.112   .     S
C143   C144    1.527   .     S
C144   H146    1.109   .     S
C144   H147    1.111   .     S
C144   H145    1.111   .     S
C150   H156    1.107   .     S
C150   H155    1.112   .     S
C150   C151    1.522   .     S
C151   H152    1.109   .     S
C151   H153    1.111   .     S
C151   H154    1.109   .     S
C157   C168    1.411   .     S
C157   O203    1.281   .     A
C157   O205    1.281   .     A
C158   O206    1.279   .     A
C158   C167    1.413   .     S
C158   O204    1.284   .     A
C159   C188    1.425   .     A
C159   O217    1.380   .     S
C159   C161    1.391   .     A
C160   O219    1.379   .     S
C160   C162    1.396   .     A
C160   C187    1.429   .     A
C161   H189    1.080   .     S
C161   C887    1.401   1_554 S
C162   H190    1.084   .     S
C162   C888    1.399   .     S
C163   C168    1.408   .     A
C163   C221    1.518   .     S
C163   C399    1.380   .     S
C164   C228    1.517   .     S
C164   C167    1.409   .     A
C164   C634    1.377   1_545 S
C165   H195    1.086   .     S
C165   C167    1.395   .     A
C165   C631    1.380   1_545 S
C166   H196    1.086   .     S
C166   C168    1.392   .     A
C166   C398    1.377   .     S
C169   H197    1.082   .     S
C169   N202    1.366   .     A
C169   C15     1.417   1_655 S
C170   H198    1.082   .     S
C170   N201    1.366   .     A
C171   N201    1.367   .     A
C171   H199    1.082   .     S
C172   H200    1.082   .     S
C172   N202    1.367   .     A
C172   C14     1.417   1_655 S
C173   O207    1.292   .     A
C173   O209    1.295   .     A
C173   C175    1.459   .     S
C174   O208    1.295   .     A
C174   C176    1.463   .     S
C174   O210    1.294   .     A
C175   C179    1.397   .     A
C175   C181    1.389   .     A
C176   C180    1.401   .     A
C176   C182    1.389   .     A
C177   C179    1.395   .     A
C177   C185    1.424   .     A
C177   O213    1.380   .     S
C178   C180    1.411   .     A
C178   O215    1.382   .     S
C178   C186    1.413   .     A
C179   H194    1.084   .     S
C180   H193    1.083   .     S
C181   C183    1.395   .     A
C181   H192    1.080   .     S
C182   C184    1.392   .     A
C182   H191    1.082   .     S
C183   C185    1.424   .     A
C183   C187    1.419   .     A
C184   C188    1.414   .     A
C184   C186    1.415   .     A
C185   C863    1.401   .     S
C186   C864    1.399   1_554 S
C187   C890    1.407   .     S
C188   C889    1.407   1_554 S
N201   Zn211   2.011   .     S
N202   Zn212   2.011   .     S
O203   Zn211   1.989   .     S
O204   Zn212   1.989   .     S
O205   Zn212   1.989   .     S
O206   Zn211   1.989   .     S
O207   Zn211   1.939   .     S
O208   Zn212   1.939   .     S
O209   Zn212   1.896   .     S
O210   Zn211   1.896   .     S
O213   H916    0.988   .     S
H214   O915    0.988   1_554 S
O215   H216    0.991   .     S
O217   H218    0.991   .     S
O219   H220    0.991   .     S
C221   H226    1.108   .     S
C221   H227    1.112   .     S
C221   C222    1.527   .     S
C222   H224    1.109   .     S
C222   H225    1.111   .     S
C222   H223    1.111   .     S
C228   H234    1.107   .     S
C228   H233    1.112   .     S
C228   C229    1.522   .     S
C229   H230    1.109   .     S
C229   H231    1.111   .     S
C229   H232    1.109   .     S
C235   C246    1.411   .     S
C235   O281    1.281   .     A
C235   O283    1.281   .     A
C236   O284    1.279   .     A
C236   C245    1.413   .     S
C236   O282    1.284   .     A
C237   C266    1.425   .     A
C237   O295    1.380   .     S
C237   C239    1.391   .     A
C238   O297    1.379   .     S
C238   C240    1.396   .     A
C238   C265    1.429   .     A
C239   H267    1.080   .     S
C239   C965    1.401   1_554 S
C240   H268    1.084   .     S
C240   C966    1.399   .     S
C241   C246    1.408   .     A
C241   C299    1.518   .     S
C241   C477    1.380   .     S
C242   C306    1.517   .     S
C242   C245    1.409   .     A
C243   H273    1.086   .     S
C243   C245    1.395   .     A
C244   H274    1.086   .     S
C244   C246    1.392   .     A
C244   C476    1.377   .     S
C247   H275    1.082   .     S
C247   N280    1.366   .     A
C247   C327    1.417   .     S
C248   H276    1.082   .     S
C248   N279    1.366   .     A
C248   C406    1.417   1_455 S
C249   N279    1.367   .     A
C249   H277    1.082   .     S
C249   C403    1.417   1_455 S
C250   H278    1.082   .     S
C250   N280    1.367   .     A
C250   C326    1.417   .     S
C251   O285    1.292   .     A
C251   O287    1.295   .     A
C251   C253    1.459   .     S
C252   O286    1.295   .     A
C252   C254    1.463   .     S
C252   O288    1.294   .     A
C253   C257    1.397   .     A
C253   C259    1.389   .     A
C254   C258    1.401   .     A
C254   C260    1.389   .     A
C255   C257    1.395   .     A
C255   C263    1.424   .     A
C255   O291    1.380   .     S
C256   C258    1.411   .     A
C256   O293    1.382   .     S
C256   C264    1.413   .     A
C257   H272    1.084   .     S
C258   H271    1.083   .     S
C259   C261    1.395   .     A
C259   H270    1.080   .     S
C260   C262    1.392   .     A
C260   H269    1.082   .     S
C261   C263    1.424   .     A
C261   C265    1.419   .     A
C262   C266    1.414   .     A
C262   C264    1.415   .     A
C263   C941    1.401   .     S
C264   C942    1.399   1_554 S
C265   C968    1.407   .     S
C266   C967    1.407   1_554 S
N279   Zn289   2.011   .     S
N280   Zn290   2.011   .     S
O281   Zn289   1.989   .     S
O282   Zn290   1.989   .     S
O283   Zn290   1.989   .     S
O284   Zn289   1.989   .     S
O285   Zn289   1.939   .     S
O286   Zn290   1.939   .     S
O287   Zn290   1.896   .     S
O288   Zn289   1.896   .     S
O291   H994    0.988   .     S
H292   O993    0.988   1_554 S
O293   H294    0.991   .     S
O295   H296    0.991   .     S
O297   H298    0.991   .     S
C299   H304    1.108   .     S
C299   H305    1.112   .     S
C299   C300    1.527   .     S
C300   H302    1.109   .     S
C300   H303    1.111   .     S
C300   H301    1.111   .     S
C306   H312    1.107   .     S
C306   H311    1.112   .     S
C306   C307    1.522   .     S
C307   H308    1.109   .     S
C307   H309    1.111   .     S
C307   H310    1.109   .     S
C313   C324    1.411   .     S
C313   O359    1.281   .     A
C313   O361    1.281   .     A
C314   O362    1.279   .     A
C314   C323    1.413   .     S
C314   O360    1.284   .     A
C315   C344    1.425   .     A
C315   O373    1.380   .     S
C315   C317    1.391   .     A
C316   O375    1.379   .     S
C316   C318    1.396   .     A
C316   C343    1.429   .     A
C317   H345    1.080   .     S
C317   C1043   1.401   1_554 S
C318   H346    1.084   .     S
C318   C1044   1.399   .     S
C319   C324    1.408   .     A
C319   C377    1.518   .     S
C319   C555    1.380   .     S
C320   C384    1.517   .     S
C320   C323    1.409   .     A
C321   H351    1.086   .     S
C321   C323    1.395   .     A
C322   H352    1.086   .     S
C322   C324    1.392   .     A
C322   C554    1.377   .     S
C325   H353    1.082   .     S
C325   N358    1.366   .     A
C325   C405    1.417   .     S
C326   H354    1.082   .     S
C326   N357    1.366   .     A
C327   N357    1.367   .     A
C327   H355    1.082   .     S
C328   H356    1.082   .     S
C328   N358    1.367   .     A
C328   C404    1.417   .     S
C329   O363    1.292   .     A
C329   O365    1.295   .     A
C329   C331    1.459   .     S
C330   O364    1.295   .     A
C330   C332    1.463   .     S
C330   O366    1.294   .     A
C331   C335    1.397   .     A
C331   C337    1.389   .     A
C332   C336    1.401   .     A
C332   C338    1.389   .     A
C333   C335    1.395   .     A
C333   C341    1.424   .     A
C333   O369    1.380   .     S
C334   C336    1.411   .     A
C334   O371    1.382   .     S
C334   C342    1.413   .     A
C335   H350    1.084   .     S
C336   H349    1.083   .     S
C337   C339    1.395   .     A
C337   H348    1.080   .     S
C338   C340    1.392   .     A
C338   H347    1.082   .     S
C339   C341    1.424   .     A
C339   C343    1.419   .     A
C340   C344    1.414   .     A
C340   C342    1.415   .     A
C341   C1019   1.401   .     S
C342   C1020   1.399   1_554 S
C343   C1046   1.407   .     S
C344   C1045   1.407   1_554 S
N357   Zn367   2.011   .     S
N358   Zn368   2.011   .     S
O359   Zn367   1.989   .     S
O360   Zn368   1.989   .     S
O361   Zn368   1.989   .     S
O362   Zn367   1.989   .     S
O363   Zn367   1.939   .     S
O364   Zn368   1.939   .     S
O365   Zn368   1.896   .     S
O366   Zn367   1.896   .     S
O369   H1072   0.988   .     S
H370   O1071   0.988   1_554 S
O371   H372    0.991   .     S
O373   H374    0.991   .     S
O375   H376    0.991   .     S
C377   H382    1.108   .     S
C377   H383    1.112   .     S
C377   C378    1.527   .     S
C378   H380    1.109   .     S
C378   H381    1.111   .     S
C378   H379    1.111   .     S
C384   H390    1.107   .     S
C384   H389    1.112   .     S
C384   C385    1.522   .     S
C385   H386    1.109   .     S
C385   H387    1.111   .     S
C385   H388    1.109   .     S
C391   C402    1.411   .     S
C391   O437    1.281   .     A
C391   O439    1.281   .     A
C392   O440    1.279   .     A
C392   C401    1.413   .     S
C392   O438    1.284   .     A
C393   C422    1.425   .     A
C393   O451    1.380   .     S
C393   C395    1.391   .     A
C394   O453    1.379   .     S
C394   C396    1.396   .     A
C394   C421    1.429   .     A
C395   H423    1.080   .     S
C395   C1121   1.401   1_554 S
C396   H424    1.084   .     S
C396   C1122   1.399   .     S
C397   C402    1.408   .     A
C397   C455    1.518   .     S
C397   C633    1.380   .     S
C398   C462    1.517   .     S
C398   C401    1.409   .     A
C399   H429    1.086   .     S
C399   C401    1.395   .     A
C400   H430    1.086   .     S
C400   C402    1.392   .     A
C400   C632    1.377   .     S
C403   H431    1.082   .     S
C403   N436    1.366   .     A
C403   C249    1.417   1_655 S
C404   H432    1.082   .     S
C404   N435    1.366   .     A
C405   N435    1.367   .     A
C405   H433    1.082   .     S
C406   H434    1.082   .     S
C406   N436    1.367   .     A
C406   C248    1.417   1_655 S
C407   O441    1.292   .     A
C407   O443    1.295   .     A
C407   C409    1.459   .     S
C408   O442    1.295   .     A
C408   C410    1.463   .     S
C408   O444    1.294   .     A
C409   C413    1.397   .     A
C409   C415    1.389   .     A
C410   C414    1.401   .     A
C410   C416    1.389   .     A
C411   C413    1.395   .     A
C411   C419    1.424   .     A
C411   O447    1.380   .     S
C412   C414    1.411   .     A
C412   O449    1.382   .     S
C412   C420    1.413   .     A
C413   H428    1.084   .     S
C414   H427    1.083   .     S
C415   C417    1.395   .     A
C415   H426    1.080   .     S
C416   C418    1.392   .     A
C416   H425    1.082   .     S
C417   C419    1.424   .     A
C417   C421    1.419   .     A
C418   C422    1.414   .     A
C418   C420    1.415   .     A
C419   C1097   1.401   .     S
C420   C1098   1.399   1_554 S
C421   C1124   1.407   .     S
C422   C1123   1.407   1_554 S
N435   Zn445   2.011   .     S
N436   Zn446   2.011   .     S
O437   Zn445   1.989   .     S
O438   Zn446   1.989   .     S
O439   Zn446   1.989   .     S
O440   Zn445   1.989   .     S
O441   Zn445   1.939   .     S
O442   Zn446   1.939   .     S
O443   Zn446   1.896   .     S
O444   Zn445   1.896   .     S
O447   H1150   0.988   .     S
H448   O1149   0.988   1_554 S
O449   H450    0.991   .     S
O451   H452    0.991   .     S
O453   H454    0.991   .     S
C455   H460    1.108   .     S
C455   H461    1.112   .     S
C455   C456    1.527   .     S
C456   H458    1.109   .     S
C456   H459    1.111   .     S
C456   H457    1.111   .     S
C462   H468    1.107   .     S
C462   H467    1.112   .     S
C462   C463    1.522   .     S
C463   H464    1.109   .     S
C463   H465    1.111   .     S
C463   H466    1.109   .     S
C469   C480    1.411   .     S
C469   O515    1.281   .     A
C469   O517    1.281   .     A
C470   O518    1.279   .     A
C470   C479    1.413   .     S
C470   O516    1.284   .     A
C471   C500    1.425   .     A
C471   O529    1.380   .     S
C471   C473    1.391   .     A
C472   O531    1.379   .     S
C472   C474    1.396   .     A
C472   C499    1.429   .     A
C473   H501    1.080   .     S
C473   C1199   1.401   1_554 S
C474   H502    1.084   .     S
C474   C1200   1.399   .     S
C475   C480    1.408   .     A
C475   C533    1.518   .     S
C475   C9      1.380   1_565 S
C476   C540    1.517   .     S
C476   C479    1.409   .     A
C477   H507    1.086   .     S
C477   C479    1.395   .     A
C478   H508    1.086   .     S
C478   C480    1.392   .     A
C478   C8      1.377   1_565 S
C481   H509    1.082   .     S
C481   N514    1.366   .     A
C481   C561    1.417   .     S
C482   H510    1.082   .     S
C482   N513    1.366   .     A
C482   C640    1.417   1_455 S
C483   N513    1.367   .     A
C483   H511    1.082   .     S
C483   C637    1.417   1_455 S
C484   H512    1.082   .     S
C484   N514    1.367   .     A
C484   C560    1.417   .     S
C485   O519    1.292   .     A
C485   O521    1.295   .     A
C485   C487    1.459   .     S
C486   O520    1.295   .     A
C486   C488    1.463   .     S
C486   O522    1.294   .     A
C487   C491    1.397   .     A
C487   C493    1.389   .     A
C488   C492    1.401   .     A
C488   C494    1.389   .     A
C489   C491    1.395   .     A
C489   C497    1.424   .     A
C489   O525    1.380   .     S
C490   C492    1.411   .     A
C490   O527    1.382   .     S
C490   C498    1.413   .     A
C491   H506    1.084   .     S
C492   H505    1.083   .     S
C493   C495    1.395   .     A
C493   H504    1.080   .     S
C494   C496    1.392   .     A
C494   H503    1.082   .     S
C495   C497    1.424   .     A
C495   C499    1.419   .     A
C496   C500    1.414   .     A
C496   C498    1.415   .     A
C497   C1175   1.401   .     S
C498   C1176   1.399   1_554 S
C499   C1202   1.407   .     S
C500   C1201   1.407   1_554 S
N513   Zn523   2.011   .     S
N514   Zn524   2.011   .     S
O515   Zn523   1.989   .     S
O516   Zn524   1.989   .     S
O517   Zn524   1.989   .     S
O518   Zn523   1.989   .     S
O519   Zn523   1.939   .     S
O520   Zn524   1.939   .     S
O521   Zn524   1.896   .     S
O522   Zn523   1.896   .     S
O525   H1228   0.988   .     S
H526   O1227   0.988   1_554 S
O527   H528    0.991   .     S
O529   H530    0.991   .     S
O531   H532    0.991   .     S
C533   H538    1.108   .     S
C533   H539    1.112   .     S
C533   C534    1.527   .     S
C534   H536    1.109   .     S
C534   H537    1.111   .     S
C534   H535    1.111   .     S
C540   H546    1.107   .     S
C540   H545    1.112   .     S
C540   C541    1.522   .     S
C541   H542    1.109   .     S
C541   H543    1.111   .     S
C541   H544    1.109   .     S
C547   C558    1.411   .     S
C547   O593    1.281   .     A
C547   O595    1.281   .     A
C548   O596    1.279   .     A
C548   C557    1.413   .     S
C548   O594    1.284   .     A
C549   C578    1.425   .     A
C549   O607    1.380   .     S
C549   C551    1.391   .     A
C550   O609    1.379   .     S
C550   C552    1.396   .     A
C550   C577    1.429   .     A
C551   H579    1.080   .     S
C551   C1277   1.401   1_554 S
C552   H580    1.084   .     S
C552   C1278   1.399   .     S
C553   C558    1.408   .     A
C553   C611    1.518   .     S
C553   C87     1.380   1_565 S
C554   C618    1.517   .     S
C554   C557    1.409   .     A
C555   H585    1.086   .     S
C555   C557    1.395   .     A
C556   H586    1.086   .     S
C556   C558    1.392   .     A
C556   C86     1.377   1_565 S
C559   H587    1.082   .     S
C559   N592    1.366   .     A
C559   C639    1.417   .     S
C560   H588    1.082   .     S
C560   N591    1.366   .     A
C561   N591    1.367   .     A
C561   H589    1.082   .     S
C562   H590    1.082   .     S
C562   N592    1.367   .     A
C562   C638    1.417   .     S
C563   O597    1.292   .     A
C563   O599    1.295   .     A
C563   C565    1.459   .     S
C564   O598    1.295   .     A
C564   C566    1.463   .     S
C564   O600    1.294   .     A
C565   C569    1.397   .     A
C565   C571    1.389   .     A
C566   C570    1.401   .     A
C566   C572    1.389   .     A
C567   C569    1.395   .     A
C567   C575    1.424   .     A
C567   O603    1.380   .     S
C568   C570    1.411   .     A
C568   O605    1.382   .     S
C568   C576    1.413   .     A
C569   H584    1.084   .     S
C570   H583    1.083   .     S
C571   C573    1.395   .     A
C571   H582    1.080   .     S
C572   C574    1.392   .     A
C572   H581    1.082   .     S
C573   C575    1.424   .     A
C573   C577    1.419   .     A
C574   C578    1.414   .     A
C574   C576    1.415   .     A
C575   C1253   1.401   .     S
C576   C1254   1.399   1_554 S
C577   C1280   1.407   .     S
C578   C1279   1.407   1_554 S
N591   Zn601   2.011   .     S
N592   Zn602   2.011   .     S
O593   Zn601   1.989   .     S
O594   Zn602   1.989   .     S
O595   Zn602   1.989   .     S
O596   Zn601   1.989   .     S
O597   Zn601   1.939   .     S
O598   Zn602   1.939   .     S
O599   Zn602   1.896   .     S
O600   Zn601   1.896   .     S
O603   H1306   0.988   .     S
H604   O1305   0.988   1_554 S
O605   H606    0.991   .     S
O607   H608    0.991   .     S
O609   H610    0.991   .     S
C611   H616    1.108   .     S
C611   H617    1.112   .     S
C611   C612    1.527   .     S
C612   H614    1.109   .     S
C612   H615    1.111   .     S
C612   H613    1.111   .     S
C618   H624    1.107   .     S
C618   H623    1.112   .     S
C618   C619    1.522   .     S
C619   H620    1.109   .     S
C619   H621    1.111   .     S
C619   H622    1.109   .     S
C625   C636    1.411   .     S
C625   O671    1.281   .     A
C625   O673    1.281   .     A
C626   O674    1.279   .     A
C626   C635    1.413   .     S
C626   O672    1.284   .     A
C627   C656    1.425   .     A
C627   O685    1.380   .     S
C627   C629    1.391   .     A
C628   O687    1.379   .     S
C628   C630    1.396   .     A
C628   C655    1.429   .     A
C629   H657    1.080   .     S
C629   C1355   1.401   1_554 S
C630   H658    1.084   .     S
C630   C1356   1.399   .     S
C631   C636    1.408   .     A
C631   C689    1.518   .     S
C631   C165    1.380   1_565 S
C632   C696    1.517   .     S
C632   C635    1.409   .     A
C633   H663    1.086   .     S
C633   C635    1.395   .     A
C634   H664    1.086   .     S
C634   C636    1.392   .     A
C634   C164    1.377   1_565 S
C637   H665    1.082   .     S
C637   N670    1.366   .     A
C637   C483    1.417   1_655 S
C638   H666    1.082   .     S
C638   N669    1.366   .     A
C639   N669    1.367   .     A
C639   H667    1.082   .     S
C640   H668    1.082   .     S
C640   N670    1.367   .     A
C640   C482    1.417   1_655 S
C641   O675    1.292   .     A
C641   O677    1.295   .     A
C641   C643    1.459   .     S
C642   O676    1.295   .     A
C642   C644    1.463   .     S
C642   O678    1.294   .     A
C643   C647    1.397   .     A
C643   C649    1.389   .     A
C644   C648    1.401   .     A
C644   C650    1.389   .     A
C645   C647    1.395   .     A
C645   C653    1.424   .     A
C645   O681    1.380   .     S
C646   C648    1.411   .     A
C646   O683    1.382   .     S
C646   C654    1.413   .     A
C647   H662    1.084   .     S
C648   H661    1.083   .     S
C649   C651    1.395   .     A
C649   H660    1.080   .     S
C650   C652    1.392   .     A
C650   H659    1.082   .     S
C651   C653    1.424   .     A
C651   C655    1.419   .     A
C652   C656    1.414   .     A
C652   C654    1.415   .     A
C653   C1331   1.401   .     S
C654   C1332   1.399   1_554 S
C655   C1358   1.407   .     S
C656   C1357   1.407   1_554 S
N669   Zn679   2.011   .     S
N670   Zn680   2.011   .     S
O671   Zn679   1.989   .     S
O672   Zn680   1.989   .     S
O673   Zn680   1.989   .     S
O674   Zn679   1.989   .     S
O675   Zn679   1.939   .     S
O676   Zn680   1.939   .     S
O677   Zn680   1.896   .     S
O678   Zn679   1.896   .     S
O681   H1384   0.988   .     S
H682   O1383   0.988   1_554 S
O683   H684    0.991   .     S
O685   H686    0.991   .     S
O687   H688    0.991   .     S
C689   H694    1.108   .     S
C689   H695    1.112   .     S
C689   C690    1.527   .     S
C690   H692    1.109   .     S
C690   H693    1.111   .     S
C690   H691    1.111   .     S
C696   H702    1.107   .     S
C696   H701    1.112   .     S
C696   C697    1.522   .     S
C697   H698    1.109   .     S
C697   H699    1.111   .     S
C697   H700    1.109   .     S
C703   C714    1.411   .     S
C703   O749    1.281   .     A
C703   O751    1.281   .     A
C704   O752    1.279   .     A
C704   C713    1.413   .     S
C704   O750    1.284   .     A
C705   C734    1.425   .     A
C705   O763    1.380   .     S
C705   C707    1.391   .     A
C706   O765    1.379   .     S
C706   C708    1.396   .     A
C706   C733    1.429   .     A
C707   H735    1.080   .     S
C708   H736    1.084   .     S
C708   C30     1.399   1_556 S
C709   C714    1.408   .     A
C709   C767    1.518   .     S
C709   C945    1.380   .     S
C710   C774    1.517   .     S
C710   C713    1.409   .     A
C710   C1180   1.377   1_545 S
C711   H741    1.086   .     S
C711   C713    1.395   .     A
C711   C1177   1.380   1_545 S
C712   H742    1.086   .     S
C712   C714    1.392   .     A
C712   C944    1.377   .     S
C715   H743    1.082   .     S
C715   N748    1.366   .     A
C715   C795    1.417   .     S
C716   H744    1.082   .     S
C716   N747    1.366   .     A
C716   C874    1.417   1_455 S
C717   N747    1.367   .     A
C717   H745    1.082   .     S
C717   C871    1.417   1_455 S
C718   H746    1.082   .     S
C718   N748    1.367   .     A
C718   C794    1.417   .     S
C719   O753    1.292   .     A
C719   O755    1.295   .     A
C719   C721    1.459   .     S
C720   O754    1.295   .     A
C720   C722    1.463   .     S
C720   O756    1.294   .     A
C721   C725    1.397   .     A
C721   C727    1.389   .     A
C722   C726    1.401   .     A
C722   C728    1.389   .     A
C723   C725    1.395   .     A
C723   C731    1.424   .     A
C723   O759    1.380   .     S
C724   C726    1.411   .     A
C724   O761    1.382   .     S
C724   C732    1.413   .     A
C725   H740    1.084   .     S
C726   H739    1.083   .     S
C727   C729    1.395   .     A
C727   H738    1.080   .     S
C728   C730    1.392   .     A
C728   H737    1.082   .     S
C729   C731    1.424   .     A
C729   C733    1.419   .     A
C730   C734    1.414   .     A
C730   C732    1.415   .     A
C731   C5      1.401   1_556 S
C733   C32     1.407   1_556 S
N747   Zn757   2.011   .     S
N748   Zn758   2.011   .     S
O749   Zn757   1.989   .     S
O750   Zn758   1.989   .     S
O751   Zn758   1.989   .     S
O752   Zn757   1.989   .     S
O753   Zn757   1.939   .     S
O754   Zn758   1.939   .     S
O755   Zn758   1.896   .     S
O756   Zn757   1.896   .     S
O759   H58     0.988   1_556 S
O761   H762    0.991   .     S
O763   H764    0.991   .     S
O765   H766    0.991   .     S
C767   H772    1.108   .     S
C767   H773    1.112   .     S
C767   C768    1.527   .     S
C768   H770    1.109   .     S
C768   H771    1.111   .     S
C768   H769    1.111   .     S
C774   H780    1.107   .     S
C774   H779    1.112   .     S
C774   C775    1.522   .     S
C775   H776    1.109   .     S
C775   H777    1.111   .     S
C775   H778    1.109   .     S
C781   C792    1.411   .     S
C781   O827    1.281   .     A
C781   O829    1.281   .     A
C782   O830    1.279   .     A
C782   C791    1.413   .     S
C782   O828    1.284   .     A
C783   C812    1.425   .     A
C783   O841    1.380   .     S
C783   C785    1.391   .     A
C784   O843    1.379   .     S
C784   C786    1.396   .     A
C784   C811    1.429   .     A
C785   H813    1.080   .     S
C786   H814    1.084   .     S
C786   C108    1.399   1_556 S
C787   C792    1.408   .     A
C787   C845    1.518   .     S
C787   C1023   1.380   .     S
C788   C852    1.517   .     S
C788   C791    1.409   .     A
C788   C1258   1.377   1_545 S
C789   H819    1.086   .     S
C789   C791    1.395   .     A
C789   C1255   1.380   1_545 S
C790   H820    1.086   .     S
C790   C792    1.392   .     A
C790   C1022   1.377   .     S
C793   H821    1.082   .     S
C793   N826    1.366   .     A
C793   C873    1.417   .     S
C794   H822    1.082   .     S
C794   N825    1.366   .     A
C795   N825    1.367   .     A
C795   H823    1.082   .     S
C796   H824    1.082   .     S
C796   N826    1.367   .     A
C796   C872    1.417   .     S
C797   O831    1.292   .     A
C797   O833    1.295   .     A
C797   C799    1.459   .     S
C798   O832    1.295   .     A
C798   C800    1.463   .     S
C798   O834    1.294   .     A
C799   C803    1.397   .     A
C799   C805    1.389   .     A
C800   C804    1.401   .     A
C800   C806    1.389   .     A
C801   C803    1.395   .     A
C801   C809    1.424   .     A
C801   O837    1.380   .     S
C802   C804    1.411   .     A
C802   O839    1.382   .     S
C802   C810    1.413   .     A
C803   H818    1.084   .     S
C804   H817    1.083   .     S
C805   C807    1.395   .     A
C805   H816    1.080   .     S
C806   C808    1.392   .     A
C806   H815    1.082   .     S
C807   C809    1.424   .     A
C807   C811    1.419   .     A
C808   C812    1.414   .     A
C808   C810    1.415   .     A
C809   C83     1.401   1_556 S
C811   C110    1.407   1_556 S
N825   Zn835   2.011   .     S
N826   Zn836   2.011   .     S
O827   Zn835   1.989   .     S
O828   Zn836   1.989   .     S
O829   Zn836   1.989   .     S
O830   Zn835   1.989   .     S
O831   Zn835   1.939   .     S
O832   Zn836   1.939   .     S
O833   Zn836   1.896   .     S
O834   Zn835   1.896   .     S
O837   H136    0.988   1_556 S
O839   H840    0.991   .     S
O841   H842    0.991   .     S
O843   H844    0.991   .     S
C845   H850    1.108   .     S
C845   H851    1.112   .     S
C845   C846    1.527   .     S
C846   H848    1.109   .     S
C846   H849    1.111   .     S
C846   H847    1.111   .     S
C852   H858    1.107   .     S
C852   H857    1.112   .     S
C852   C853    1.522   .     S
C853   H854    1.109   .     S
C853   H855    1.111   .     S
C853   H856    1.109   .     S
C859   C870    1.411   .     S
C859   O905    1.281   .     A
C859   O907    1.281   .     A
C860   O908    1.279   .     A
C860   C869    1.413   .     S
C860   O906    1.284   .     A
C861   C890    1.425   .     A
C861   O919    1.380   .     S
C861   C863    1.391   .     A
C862   O921    1.379   .     S
C862   C864    1.396   .     A
C862   C889    1.429   .     A
C863   H891    1.080   .     S
C864   H892    1.084   .     S
C864   C186    1.399   1_556 S
C865   C870    1.408   .     A
C865   C923    1.518   .     S
C865   C1101   1.380   .     S
C866   C930    1.517   .     S
C866   C869    1.409   .     A
C866   C1336   1.377   1_545 S
C867   H897    1.086   .     S
C867   C869    1.395   .     A
C867   C1333   1.380   1_545 S
C868   H898    1.086   .     S
C868   C870    1.392   .     A
C868   C1100   1.377   .     S
C871   H899    1.082   .     S
C871   N904    1.366   .     A
C871   C717    1.417   1_655 S
C872   H900    1.082   .     S
C872   N903    1.366   .     A
C873   N903    1.367   .     A
C873   H901    1.082   .     S
C874   H902    1.082   .     S
C874   N904    1.367   .     A
C874   C716    1.417   1_655 S
C875   O909    1.292   .     A
C875   O911    1.295   .     A
C875   C877    1.459   .     S
C876   O910    1.295   .     A
C876   C878    1.463   .     S
C876   O912    1.294   .     A
C877   C881    1.397   .     A
C877   C883    1.389   .     A
C878   C882    1.401   .     A
C878   C884    1.389   .     A
C879   C881    1.395   .     A
C879   C887    1.424   .     A
C879   O915    1.380   .     S
C880   C882    1.411   .     A
C880   O917    1.382   .     S
C880   C888    1.413   .     A
C881   H896    1.084   .     S
C882   H895    1.083   .     S
C883   C885    1.395   .     A
C883   H894    1.080   .     S
C884   C886    1.392   .     A
C884   H893    1.082   .     S
C885   C887    1.424   .     A
C885   C889    1.419   .     A
C886   C890    1.414   .     A
C886   C888    1.415   .     A
C887   C161    1.401   1_556 S
C889   C188    1.407   1_556 S
N903   Zn913   2.011   .     S
N904   Zn914   2.011   .     S
O905   Zn913   1.989   .     S
O906   Zn914   1.989   .     S
O907   Zn914   1.989   .     S
O908   Zn913   1.989   .     S
O909   Zn913   1.939   .     S
O910   Zn914   1.939   .     S
O911   Zn914   1.896   .     S
O912   Zn913   1.896   .     S
O915   H214    0.988   1_556 S
O917   H918    0.991   .     S
O919   H920    0.991   .     S
O921   H922    0.991   .     S
C923   H928    1.108   .     S
C923   H929    1.112   .     S
C923   C924    1.527   .     S
C924   H926    1.109   .     S
C924   H927    1.111   .     S
C924   H925    1.111   .     S
C930   H936    1.107   .     S
C930   H935    1.112   .     S
C930   C931    1.522   .     S
C931   H932    1.109   .     S
C931   H933    1.111   .     S
C931   H934    1.109   .     S
C937   C948    1.411   .     S
C937   O983    1.281   .     A
C937   O985    1.281   .     A
C938   O986    1.279   .     A
C938   C947    1.413   .     S
C938   O984    1.284   .     A
C939   C968    1.425   .     A
C939   O997    1.380   .     S
C939   C941    1.391   .     A
C940   O999    1.379   .     S
C940   C942    1.396   .     A
C940   C967    1.429   .     A
C941   H969    1.080   .     S
C942   H970    1.084   .     S
C942   C264    1.399   1_556 S
C943   C948    1.408   .     A
C943   C1001   1.518   .     S
C943   C1179   1.380   .     S
C944   C1008   1.517   .     S
C944   C947    1.409   .     A
C945   H975    1.086   .     S
C945   C947    1.395   .     A
C946   H976    1.086   .     S
C946   C948    1.392   .     A
C946   C1178   1.377   .     S
C949   H977    1.082   .     S
C949   N982    1.366   .     A
C949   C1029   1.417   .     S
C950   H978    1.082   .     S
C950   N981    1.366   .     A
C950   C1108   1.417   1_455 S
C951   N981    1.367   .     A
C951   H979    1.082   .     S
C951   C1105   1.417   1_455 S
C952   H980    1.082   .     S
C952   N982    1.367   .     A
C952   C1028   1.417   .     S
C953   O987    1.292   .     A
C953   O989    1.295   .     A
C953   C955    1.459   .     S
C954   O988    1.295   .     A
C954   C956    1.463   .     S
C954   O990    1.294   .     A
C955   C959    1.397   .     A
C955   C961    1.389   .     A
C956   C960    1.401   .     A
C956   C962    1.389   .     A
C957   C959    1.395   .     A
C957   C965    1.424   .     A
C957   O993    1.380   .     S
C958   C960    1.411   .     A
C958   O995    1.382   .     S
C958   C966    1.413   .     A
C959   H974    1.084   .     S
C960   H973    1.083   .     S
C961   C963    1.395   .     A
C961   H972    1.080   .     S
C962   C964    1.392   .     A
C962   H971    1.082   .     S
C963   C965    1.424   .     A
C963   C967    1.419   .     A
C964   C968    1.414   .     A
C964   C966    1.415   .     A
C965   C239    1.401   1_556 S
C967   C266    1.407   1_556 S
N981   Zn991   2.011   .     S
N982   Zn992   2.011   .     S
O983   Zn991   1.989   .     S
O984   Zn992   1.989   .     S
O985   Zn992   1.989   .     S
O986   Zn991   1.989   .     S
O987   Zn991   1.939   .     S
O988   Zn992   1.939   .     S
O989   Zn992   1.896   .     S
O990   Zn991   1.896   .     S
O993   H292    0.988   1_556 S
O995   H996    0.991   .     S
O997   H998    0.991   .     S
O999   H1000   0.991   .     S
C1001  H1006   1.108   .     S
C1001  H1007   1.112   .     S
C1001  C1002   1.527   .     S
C1002  H1004   1.109   .     S
C1002  H1005   1.111   .     S
C1002  H1003   1.111   .     S
C1008  H1014   1.107   .     S
C1008  H1013   1.112   .     S
C1008  C1009   1.522   .     S
C1009  H1010   1.109   .     S
C1009  H1011   1.111   .     S
C1009  H1012   1.109   .     S
C1015  C1026   1.411   .     S
C1015  O1061   1.281   .     A
C1015  O1063   1.281   .     A
C1016  O1064   1.279   .     A
C1016  C1025   1.413   .     S
C1016  O1062   1.284   .     A
C1017  C1046   1.425   .     A
C1017  O1075   1.380   .     S
C1017  C1019   1.391   .     A
C1018  O1077   1.379   .     S
C1018  C1020   1.396   .     A
C1018  C1045   1.429   .     A
C1019  H1047   1.080   .     S
C1020  H1048   1.084   .     S
C1020  C342    1.399   1_556 S
C1021  C1026   1.408   .     A
C1021  C1079   1.518   .     S
C1021  C1257   1.380   .     S
C1022  C1086   1.517   .     S
C1022  C1025   1.409   .     A
C1023  H1053   1.086   .     S
C1023  C1025   1.395   .     A
C1024  H1054   1.086   .     S
C1024  C1026   1.392   .     A
C1024  C1256   1.377   .     S
C1027  H1055   1.082   .     S
C1027  N1060   1.366   .     A
C1027  C1107   1.417   .     S
C1028  H1056   1.082   .     S
C1028  N1059   1.366   .     A
C1029  N1059   1.367   .     A
C1029  H1057   1.082   .     S
C1030  H1058   1.082   .     S
C1030  N1060   1.367   .     A
C1030  C1106   1.417   .     S
C1031  O1065   1.292   .     A
C1031  O1067   1.295   .     A
C1031  C1033   1.459   .     S
C1032  O1066   1.295   .     A
C1032  C1034   1.463   .     S
C1032  O1068   1.294   .     A
C1033  C1037   1.397   .     A
C1033  C1039   1.389   .     A
C1034  C1038   1.401   .     A
C1034  C1040   1.389   .     A
C1035  C1037   1.395   .     A
C1035  C1043   1.424   .     A
C1035  O1071   1.380   .     S
C1036  C1038   1.411   .     A
C1036  O1073   1.382   .     S
C1036  C1044   1.413   .     A
C1037  H1052   1.084   .     S
C1038  H1051   1.083   .     S
C1039  C1041   1.395   .     A
C1039  H1050   1.080   .     S
C1040  C1042   1.392   .     A
C1040  H1049   1.082   .     S
C1041  C1043   1.424   .     A
C1041  C1045   1.419   .     A
C1042  C1046   1.414   .     A
C1042  C1044   1.415   .     A
C1043  C317    1.401   1_556 S
C1045  C344    1.407   1_556 S
N1059  Zn1069  2.011   .     S
N1060  Zn1070  2.011   .     S
O1061  Zn1069  1.989   .     S
O1062  Zn1070  1.989   .     S
O1063  Zn1070  1.989   .     S
O1064  Zn1069  1.989   .     S
O1065  Zn1069  1.939   .     S
O1066  Zn1070  1.939   .     S
O1067  Zn1070  1.896   .     S
O1068  Zn1069  1.896   .     S
O1071  H370    0.988   1_556 S
O1073  H1074   0.991   .     S
O1075  H1076   0.991   .     S
O1077  H1078   0.991   .     S
C1079  H1084   1.108   .     S
C1079  H1085   1.112   .     S
C1079  C1080   1.527   .     S
C1080  H1082   1.109   .     S
C1080  H1083   1.111   .     S
C1080  H1081   1.111   .     S
C1086  H1092   1.107   .     S
C1086  H1091   1.112   .     S
C1086  C1087   1.522   .     S
C1087  H1088   1.109   .     S
C1087  H1089   1.111   .     S
C1087  H1090   1.109   .     S
C1093  C1104   1.411   .     S
C1093  O1139   1.281   .     A
C1093  O1141   1.281   .     A
C1094  O1142   1.279   .     A
C1094  C1103   1.413   .     S
C1094  O1140   1.284   .     A
C1095  C1124   1.425   .     A
C1095  O1153   1.380   .     S
C1095  C1097   1.391   .     A
C1096  O1155   1.379   .     S
C1096  C1098   1.396   .     A
C1096  C1123   1.429   .     A
C1097  H1125   1.080   .     S
C1098  H1126   1.084   .     S
C1098  C420    1.399   1_556 S
C1099  C1104   1.408   .     A
C1099  C1157   1.518   .     S
C1099  C1335   1.380   .     S
C1100  C1164   1.517   .     S
C1100  C1103   1.409   .     A
C1101  H1131   1.086   .     S
C1101  C1103   1.395   .     A
C1102  H1132   1.086   .     S
C1102  C1104   1.392   .     A
C1102  C1334   1.377   .     S
C1105  H1133   1.082   .     S
C1105  N1138   1.366   .     A
C1105  C951    1.417   1_655 S
C1106  H1134   1.082   .     S
C1106  N1137   1.366   .     A
C1107  N1137   1.367   .     A
C1107  H1135   1.082   .     S
C1108  H1136   1.082   .     S
C1108  N1138   1.367   .     A
C1108  C950    1.417   1_655 S
C1109  O1143   1.292   .     A
C1109  O1145   1.295   .     A
C1109  C1111   1.459   .     S
C1110  O1144   1.295   .     A
C1110  C1112   1.463   .     S
C1110  O1146   1.294   .     A
C1111  C1115   1.397   .     A
C1111  C1117   1.389   .     A
C1112  C1116   1.401   .     A
C1112  C1118   1.389   .     A
C1113  C1115   1.395   .     A
C1113  C1121   1.424   .     A
C1113  O1149   1.380   .     S
C1114  C1116   1.411   .     A
C1114  O1151   1.382   .     S
C1114  C1122   1.413   .     A
C1115  H1130   1.084   .     S
C1116  H1129   1.083   .     S
C1117  C1119   1.395   .     A
C1117  H1128   1.080   .     S
C1118  C1120   1.392   .     A
C1118  H1127   1.082   .     S
C1119  C1121   1.424   .     A
C1119  C1123   1.419   .     A
C1120  C1124   1.414   .     A
C1120  C1122   1.415   .     A
C1121  C395    1.401   1_556 S
C1123  C422    1.407   1_556 S
N1137  Zn1147  2.011   .     S
N1138  Zn1148  2.011   .     S
O1139  Zn1147  1.989   .     S
O1140  Zn1148  1.989   .     S
O1141  Zn1148  1.989   .     S
O1142  Zn1147  1.989   .     S
O1143  Zn1147  1.939   .     S
O1144  Zn1148  1.939   .     S
O1145  Zn1148  1.896   .     S
O1146  Zn1147  1.896   .     S
O1149  H448    0.988   1_556 S
O1151  H1152   0.991   .     S
O1153  H1154   0.991   .     S
O1155  H1156   0.991   .     S
C1157  H1162   1.108   .     S
C1157  H1163   1.112   .     S
C1157  C1158   1.527   .     S
C1158  H1160   1.109   .     S
C1158  H1161   1.111   .     S
C1158  H1159   1.111   .     S
C1164  H1170   1.107   .     S
C1164  H1169   1.112   .     S
C1164  C1165   1.522   .     S
C1165  H1166   1.109   .     S
C1165  H1167   1.111   .     S
C1165  H1168   1.109   .     S
C1171  C1182   1.411   .     S
C1171  O1217   1.281   .     A
C1171  O1219   1.281   .     A
C1172  O1220   1.279   .     A
C1172  C1181   1.413   .     S
C1172  O1218   1.284   .     A
C1173  C1202   1.425   .     A
C1173  O1231   1.380   .     S
C1173  C1175   1.391   .     A
C1174  O1233   1.379   .     S
C1174  C1176   1.396   .     A
C1174  C1201   1.429   .     A
C1175  H1203   1.080   .     S
C1176  H1204   1.084   .     S
C1176  C498    1.399   1_556 S
C1177  C1182   1.408   .     A
C1177  C1235   1.518   .     S
C1177  C711    1.380   1_565 S
C1178  C1242   1.517   .     S
C1178  C1181   1.409   .     A
C1179  H1209   1.086   .     S
C1179  C1181   1.395   .     A
C1180  H1210   1.086   .     S
C1180  C1182   1.392   .     A
C1180  C710    1.377   1_565 S
C1183  H1211   1.082   .     S
C1183  N1216   1.366   .     A
C1183  C1263   1.417   .     S
C1184  H1212   1.082   .     S
C1184  N1215   1.366   .     A
C1184  C1342   1.417   1_455 S
C1185  N1215   1.367   .     A
C1185  H1213   1.082   .     S
C1185  C1339   1.417   1_455 S
C1186  H1214   1.082   .     S
C1186  N1216   1.367   .     A
C1186  C1262   1.417   .     S
C1187  O1221   1.292   .     A
C1187  O1223   1.295   .     A
C1187  C1189   1.459   .     S
C1188  O1222   1.295   .     A
C1188  C1190   1.463   .     S
C1188  O1224   1.294   .     A
C1189  C1193   1.397   .     A
C1189  C1195   1.389   .     A
C1190  C1194   1.401   .     A
C1190  C1196   1.389   .     A
C1191  C1193   1.395   .     A
C1191  C1199   1.424   .     A
C1191  O1227   1.380   .     S
C1192  C1194   1.411   .     A
C1192  O1229   1.382   .     S
C1192  C1200   1.413   .     A
C1193  H1208   1.084   .     S
C1194  H1207   1.083   .     S
C1195  C1197   1.395   .     A
C1195  H1206   1.080   .     S
C1196  C1198   1.392   .     A
C1196  H1205   1.082   .     S
C1197  C1199   1.424   .     A
C1197  C1201   1.419   .     A
C1198  C1202   1.414   .     A
C1198  C1200   1.415   .     A
C1199  C473    1.401   1_556 S
C1201  C500    1.407   1_556 S
N1215  Zn1225  2.011   .     S
N1216  Zn1226  2.011   .     S
O1217  Zn1225  1.989   .     S
O1218  Zn1226  1.989   .     S
O1219  Zn1226  1.989   .     S
O1220  Zn1225  1.989   .     S
O1221  Zn1225  1.939   .     S
O1222  Zn1226  1.939   .     S
O1223  Zn1226  1.896   .     S
O1224  Zn1225  1.896   .     S
O1227  H526    0.988   1_556 S
O1229  H1230   0.991   .     S
O1231  H1232   0.991   .     S
O1233  H1234   0.991   .     S
C1235  H1240   1.108   .     S
C1235  H1241   1.112   .     S
C1235  C1236   1.527   .     S
C1236  H1238   1.109   .     S
C1236  H1239   1.111   .     S
C1236  H1237   1.111   .     S
C1242  H1248   1.107   .     S
C1242  H1247   1.112   .     S
C1242  C1243   1.522   .     S
C1243  H1244   1.109   .     S
C1243  H1245   1.111   .     S
C1243  H1246   1.109   .     S
C1249  C1260   1.411   .     S
C1249  O1295   1.281   .     A
C1249  O1297   1.281   .     A
C1250  O1298   1.279   .     A
C1250  C1259   1.413   .     S
C1250  O1296   1.284   .     A
C1251  C1280   1.425   .     A
C1251  O1309   1.380   .     S
C1251  C1253   1.391   .     A
C1252  O1311   1.379   .     S
C1252  C1254   1.396   .     A
C1252  C1279   1.429   .     A
C1253  H1281   1.080   .     S
C1254  H1282   1.084   .     S
C1254  C576    1.399   1_556 S
C1255  C1260   1.408   .     A
C1255  C1313   1.518   .     S
C1255  C789    1.380   1_565 S
C1256  C1320   1.517   .     S
C1256  C1259   1.409   .     A
C1257  H1287   1.086   .     S
C1257  C1259   1.395   .     A
C1258  H1288   1.086   .     S
C1258  C1260   1.392   .     A
C1258  C788    1.377   1_565 S
C1261  H1289   1.082   .     S
C1261  N1294   1.366   .     A
C1261  C1341   1.417   .     S
C1262  H1290   1.082   .     S
C1262  N1293   1.366   .     A
C1263  N1293   1.367   .     A
C1263  H1291   1.082   .     S
C1264  H1292   1.082   .     S
C1264  N1294   1.367   .     A
C1264  C1340   1.417   .     S
C1265  O1299   1.292   .     A
C1265  O1301   1.295   .     A
C1265  C1267   1.459   .     S
C1266  O1300   1.295   .     A
C1266  C1268   1.463   .     S
C1266  O1302   1.294   .     A
C1267  C1271   1.397   .     A
C1267  C1273   1.389   .     A
C1268  C1272   1.401   .     A
C1268  C1274   1.389   .     A
C1269  C1271   1.395   .     A
C1269  C1277   1.424   .     A
C1269  O1305   1.380   .     S
C1270  C1272   1.411   .     A
C1270  O1307   1.382   .     S
C1270  C1278   1.413   .     A
C1271  H1286   1.084   .     S
C1272  H1285   1.083   .     S
C1273  C1275   1.395   .     A
C1273  H1284   1.080   .     S
C1274  C1276   1.392   .     A
C1274  H1283   1.082   .     S
C1275  C1277   1.424   .     A
C1275  C1279   1.419   .     A
C1276  C1280   1.414   .     A
C1276  C1278   1.415   .     A
C1277  C551    1.401   1_556 S
C1279  C578    1.407   1_556 S
N1293  Zn1303  2.011   .     S
N1294  Zn1304  2.011   .     S
O1295  Zn1303  1.989   .     S
O1296  Zn1304  1.989   .     S
O1297  Zn1304  1.989   .     S
O1298  Zn1303  1.989   .     S
O1299  Zn1303  1.939   .     S
O1300  Zn1304  1.939   .     S
O1301  Zn1304  1.896   .     S
O1302  Zn1303  1.896   .     S
O1305  H604    0.988   1_556 S
O1307  H1308   0.991   .     S
O1309  H1310   0.991   .     S
O1311  H1312   0.991   .     S
C1313  H1318   1.108   .     S
C1313  H1319   1.112   .     S
C1313  C1314   1.527   .     S
C1314  H1316   1.109   .     S
C1314  H1317   1.111   .     S
C1314  H1315   1.111   .     S
C1320  H1326   1.107   .     S
C1320  H1325   1.112   .     S
C1320  C1321   1.522   .     S
C1321  H1322   1.109   .     S
C1321  H1323   1.111   .     S
C1321  H1324   1.109   .     S
C1327  C1338   1.411   .     S
C1327  O1373   1.281   .     A
C1327  O1375   1.281   .     A
C1328  O1376   1.279   .     A
C1328  C1337   1.413   .     S
C1328  O1374   1.284   .     A
C1329  C1358   1.425   .     A
C1329  O1387   1.380   .     S
C1329  C1331   1.391   .     A
C1330  O1389   1.379   .     S
C1330  C1332   1.396   .     A
C1330  C1357   1.429   .     A
C1331  H1359   1.080   .     S
C1332  H1360   1.084   .     S
C1332  C654    1.399   1_556 S
C1333  C1338   1.408   .     A
C1333  C1391   1.518   .     S
C1333  C867    1.380   1_565 S
C1334  C1398   1.517   .     S
C1334  C1337   1.409   .     A
C1335  H1365   1.086   .     S
C1335  C1337   1.395   .     A
C1336  H1366   1.086   .     S
C1336  C1338   1.392   .     A
C1336  C866    1.377   1_565 S
C1339  H1367   1.082   .     S
C1339  N1372   1.366   .     A
C1339  C1185   1.417   1_655 S
C1340  H1368   1.082   .     S
C1340  N1371   1.366   .     A
C1341  N1371   1.367   .     A
C1341  H1369   1.082   .     S
C1342  H1370   1.082   .     S
C1342  N1372   1.367   .     A
C1342  C1184   1.417   1_655 S
C1343  O1377   1.292   .     A
C1343  O1379   1.295   .     A
C1343  C1345   1.459   .     S
C1344  O1378   1.295   .     A
C1344  C1346   1.463   .     S
C1344  O1380   1.294   .     A
C1345  C1349   1.397   .     A
C1345  C1351   1.389   .     A
C1346  C1350   1.401   .     A
C1346  C1352   1.389   .     A
C1347  C1349   1.395   .     A
C1347  C1355   1.424   .     A
C1347  O1383   1.380   .     S
C1348  C1350   1.411   .     A
C1348  O1385   1.382   .     S
C1348  C1356   1.413   .     A
C1349  H1364   1.084   .     S
C1350  H1363   1.083   .     S
C1351  C1353   1.395   .     A
C1351  H1362   1.080   .     S
C1352  C1354   1.392   .     A
C1352  H1361   1.082   .     S
C1353  C1355   1.424   .     A
C1353  C1357   1.419   .     A
C1354  C1358   1.414   .     A
C1354  C1356   1.415   .     A
C1355  C629    1.401   1_556 S
C1357  C656    1.407   1_556 S
N1371  Zn1381  2.011   .     S
N1372  Zn1382  2.011   .     S
O1373  Zn1381  1.989   .     S
O1374  Zn1382  1.989   .     S
O1375  Zn1382  1.989   .     S
O1376  Zn1381  1.989   .     S
O1377  Zn1381  1.939   .     S
O1378  Zn1382  1.939   .     S
O1379  Zn1382  1.896   .     S
O1380  Zn1381  1.896   .     S
O1383  H682    0.988   1_556 S
O1385  H1386   0.991   .     S
O1387  H1388   0.991   .     S
O1389  H1390   0.991   .     S
C1391  H1396   1.108   .     S
C1391  H1397   1.112   .     S
C1391  C1392   1.527   .     S
C1392  H1394   1.109   .     S
C1392  H1395   1.111   .     S
C1392  H1393   1.111   .     S
C1398  H1404   1.107   .     S
C1398  H1403   1.112   .     S
C1398  C1399   1.522   .     S
C1399  H1400   1.109   .     S
C1399  H1401   1.111   .     S
C1399  H1402   1.109   .     S
