data_str_m3_o1_o10_pcu_sym.56
_audit_creation_date              2020-01-03
_audit_creation_method            'Materials Studio'
_symmetry_space_group_name_H-M    'P1'
_symmetry_Int_Tables_number       1
_symmetry_cell_setting            triclinic
loop_
_symmetry_equiv_pos_as_xyz
  x,y,z
_cell_length_a                    25.7165
_cell_length_b                    32.3894
_cell_length_c                    29.7523
_cell_angle_alpha                 91.0072
_cell_angle_beta                  99.0627
_cell_angle_gamma                 91.2923
loop_
_atom_site_label
_atom_site_type_symbol
_atom_site_fract_x
_atom_site_fract_y
_atom_site_fract_z
_atom_site_U_iso_or_equiv
_atom_site_adp_type
_atom_site_occupancy
C1     C     0.16738   0.08671   0.16617   0.00000  Uiso   1.00
C2     C     0.17727   0.02307   0.20711   0.00000  Uiso   1.00
C3     C     0.16507   0.29085   0.16815   0.00000  Uiso   1.00
C4     C     0.16826   0.04249   0.16518   0.00000  Uiso   1.00
C5     C     0.20670   0.18600   0.03000   0.00000  Uiso   1.00
C6     C     0.12663   0.14733   0.30333   0.00000  Uiso   1.00
C7     C     0.20710   0.18523   0.31538   0.00000  Uiso   1.00
C8     C     0.12623   0.14811   0.01795   0.00000  Uiso   1.00
C9     C     0.15321   0.03636   0.07914   0.00000  Uiso   1.00
C10    C     0.18013   0.29697   0.25419   0.00000  Uiso   1.00
C11    C     0.24633   0.24670   0.05987   0.00000  Uiso   1.00
C12    C     0.16595   0.24662   0.16716   0.00000  Uiso   1.00
C13    C     0.28145   0.26436   0.10213   0.00000  Uiso   1.00
C14    C     0.08702   0.08663   0.27347   0.00000  Uiso   1.00
C15    C     0.05193   0.06896   0.23119   0.00000  Uiso   1.00
C16    C     0.25120   0.20395   0.29832   0.00000  Uiso   1.00
C17    C     0.08213   0.12938   0.03502   0.00000  Uiso   1.00
C18    C     0.06708   0.16658   0.15466   0.00000  Uiso   1.00
C19    C     0.26625   0.16676   0.17867   0.00000  Uiso   1.00
C20    C     0.01189   0.16606   0.14832   0.00000  Uiso   1.00
C21    C     0.32145   0.16728   0.18502   0.00000  Uiso   1.00
C22    C     0.15877   0.01913   0.12410   0.00000  Uiso   1.00
C23    C     0.17456   0.31420   0.20924   0.00000  Uiso   1.00
C24    C     0.15607   0.31026   0.12622   0.00000  Uiso   1.00
H25    H     0.32435   0.16442   0.11359   0.00000  Uiso   1.00
H26    H     0.07215   0.07376   0.30346   0.00000  Uiso   1.00
H27    H     0.12780   0.07595   0.27356   0.00000  Uiso   1.00
H28    H     0.06469   0.08118   0.19997   0.00000  Uiso   1.00
H29    H     0.05426   0.03477   0.23038   0.00000  Uiso   1.00
H30    H     0.01041   0.07749   0.23163   0.00000  Uiso   1.00
H31    H     0.00898   0.16891   0.21975   0.00000  Uiso   1.00
H32    H     0.14686   0.29253   0.09463   0.00000  Uiso   1.00
H33    H     0.18647   0.04080   0.23870   0.00000  Uiso   1.00
H34    H     0.20556   0.25738   0.05980   0.00000  Uiso   1.00
H35    H     0.26119   0.25956   0.02987   0.00000  Uiso   1.00
H36    H     0.32296   0.25578   0.10170   0.00000  Uiso   1.00
H37    H     0.27918   0.29856   0.10292   0.00000  Uiso   1.00
H38    H     0.26867   0.25218   0.13336   0.00000  Uiso   1.00
N39    N     0.16665   0.16666   0.28573   0.00000  Uiso   1.00
N40    N     0.16668   0.16668   0.04760   0.00000  Uiso   1.00
N41    N     0.14925   0.04960   0.04294   0.00000  Uiso   1.00
N42    N     0.18409   0.28373   0.29039   0.00000  Uiso   1.00
N43    N     0.28694   0.21938   0.28536   0.00000  Uiso   1.00
N44    N     0.04640   0.11394   0.04798   0.00000  Uiso   1.00
O45    O     0.16666   0.10558   0.20487   0.00000  Uiso   1.00
O46    O     0.08441   0.13018   0.27376   0.00000  Uiso   1.00
O47    O     0.16667   0.22775   0.12846   0.00000  Uiso   1.00
O48    O     0.16666   0.10559   0.12843   0.00000  Uiso   1.00
O49    O     0.16667   0.22774   0.20490   0.00000  Uiso   1.00
O50    O     0.09058   0.16666   0.19595   0.00000  Uiso   1.00
O51    O     0.24275   0.16667   0.13739   0.00000  Uiso   1.00
O52    O     0.09058   0.16667   0.11950   0.00000  Uiso   1.00
O53    O     0.24275   0.16666   0.21383   0.00000  Uiso   1.00
O54    O     0.24893   0.20315   0.05957   0.00000  Uiso   1.00
Zn55   Zn    0.16667   0.16666   0.21771   0.00000  Uiso   1.00
Zn56   Zn    0.16667   0.16667   0.11563   0.00000  Uiso   1.00
C57    C     0.50071   0.08671   0.16617   0.00000  Uiso   1.00
C58    C     0.51060   0.02307   0.20711   0.00000  Uiso   1.00
C59    C     0.49840   0.29085   0.16815   0.00000  Uiso   1.00
C60    C     0.50159   0.04249   0.16518   0.00000  Uiso   1.00
C61    C     0.54003   0.18600   0.03000   0.00000  Uiso   1.00
C62    C     0.45997   0.14733   0.30333   0.00000  Uiso   1.00
C63    C     0.54044   0.18523   0.31538   0.00000  Uiso   1.00
C64    C     0.45956   0.14811   0.01795   0.00000  Uiso   1.00
C65    C     0.48654   0.03636   0.07914   0.00000  Uiso   1.00
C66    C     0.51346   0.29697   0.25419   0.00000  Uiso   1.00
C67    C     0.57966   0.24670   0.05987   0.00000  Uiso   1.00
C68    C     0.49928   0.24662   0.16716   0.00000  Uiso   1.00
C69    C     0.61478   0.26436   0.10213   0.00000  Uiso   1.00
C70    C     0.42036   0.08663   0.27347   0.00000  Uiso   1.00
C71    C     0.38526   0.06896   0.23119   0.00000  Uiso   1.00
C72    C     0.58454   0.20395   0.29832   0.00000  Uiso   1.00
C73    C     0.41546   0.12938   0.03502   0.00000  Uiso   1.00
C74    C     0.40042   0.16658   0.15466   0.00000  Uiso   1.00
C75    C     0.59958   0.16676   0.17867   0.00000  Uiso   1.00
C76    C     0.34522   0.16606   0.14832   0.00000  Uiso   1.00
C77    C     0.65478   0.16728   0.18502   0.00000  Uiso   1.00
C78    C     0.49211   0.01913   0.12410   0.00000  Uiso   1.00
C79    C     0.50789   0.31420   0.20924   0.00000  Uiso   1.00
C80    C     0.48940   0.31026   0.12622   0.00000  Uiso   1.00
H81    H     0.65769   0.16442   0.11359   0.00000  Uiso   1.00
H82    H     0.40548   0.07376   0.30346   0.00000  Uiso   1.00
H83    H     0.46113   0.07595   0.27356   0.00000  Uiso   1.00
H84    H     0.39802   0.08118   0.19997   0.00000  Uiso   1.00
H85    H     0.38760   0.03477   0.23038   0.00000  Uiso   1.00
H86    H     0.34374   0.07749   0.23163   0.00000  Uiso   1.00
H87    H     0.34231   0.16891   0.21975   0.00000  Uiso   1.00
H88    H     0.48019   0.29253   0.09463   0.00000  Uiso   1.00
H89    H     0.51981   0.04080   0.23870   0.00000  Uiso   1.00
H90    H     0.53889   0.25738   0.05980   0.00000  Uiso   1.00
H91    H     0.59452   0.25956   0.02987   0.00000  Uiso   1.00
H92    H     0.65629   0.25578   0.10170   0.00000  Uiso   1.00
H93    H     0.61251   0.29856   0.10292   0.00000  Uiso   1.00
H94    H     0.60200   0.25218   0.13336   0.00000  Uiso   1.00
N95    N     0.49999   0.16666   0.28573   0.00000  Uiso   1.00
N96    N     0.50001   0.16668   0.04760   0.00000  Uiso   1.00
N97    N     0.48259   0.04960   0.04294   0.00000  Uiso   1.00
N98    N     0.51742   0.28373   0.29039   0.00000  Uiso   1.00
N99    N     0.62027   0.21938   0.28536   0.00000  Uiso   1.00
N100   N     0.37973   0.11394   0.04798   0.00000  Uiso   1.00
O101   O     0.50000   0.10558   0.20487   0.00000  Uiso   1.00
O102   O     0.41774   0.13018   0.27376   0.00000  Uiso   1.00
O103   O     0.50000   0.22775   0.12846   0.00000  Uiso   1.00
O104   O     0.50000   0.10559   0.12843   0.00000  Uiso   1.00
O105   O     0.50000   0.22774   0.20490   0.00000  Uiso   1.00
O106   O     0.42392   0.16666   0.19595   0.00000  Uiso   1.00
O107   O     0.57608   0.16667   0.13739   0.00000  Uiso   1.00
O108   O     0.42392   0.16667   0.11950   0.00000  Uiso   1.00
O109   O     0.57608   0.16666   0.21383   0.00000  Uiso   1.00
O110   O     0.58226   0.20315   0.05957   0.00000  Uiso   1.00
Zn111  Zn    0.50000   0.16666   0.21771   0.00000  Uiso   1.00
Zn112  Zn    0.50000   0.16667   0.11563   0.00000  Uiso   1.00
C113   C     0.83405   0.08671   0.16617   0.00000  Uiso   1.00
C114   C     0.84393   0.02307   0.20711   0.00000  Uiso   1.00
C115   C     0.83174   0.29085   0.16815   0.00000  Uiso   1.00
C116   C     0.83493   0.04249   0.16518   0.00000  Uiso   1.00
C117   C     0.87337   0.18600   0.03000   0.00000  Uiso   1.00
C118   C     0.79330   0.14733   0.30333   0.00000  Uiso   1.00
C119   C     0.87377   0.18523   0.31538   0.00000  Uiso   1.00
C120   C     0.79290   0.14811   0.01795   0.00000  Uiso   1.00
C121   C     0.81988   0.03636   0.07914   0.00000  Uiso   1.00
C122   C     0.84679   0.29697   0.25419   0.00000  Uiso   1.00
C123   C     0.91299   0.24670   0.05987   0.00000  Uiso   1.00
C124   C     0.83262   0.24662   0.16716   0.00000  Uiso   1.00
C125   C     0.94812   0.26436   0.10213   0.00000  Uiso   1.00
C126   C     0.75369   0.08663   0.27347   0.00000  Uiso   1.00
C127   C     0.71860   0.06896   0.23119   0.00000  Uiso   1.00
C128   C     0.91787   0.20395   0.29832   0.00000  Uiso   1.00
C129   C     0.74880   0.12938   0.03502   0.00000  Uiso   1.00
C130   C     0.73375   0.16658   0.15466   0.00000  Uiso   1.00
C131   C     0.93292   0.16676   0.17867   0.00000  Uiso   1.00
C132   C     0.67855   0.16606   0.14832   0.00000  Uiso   1.00
C133   C     0.98811   0.16728   0.18502   0.00000  Uiso   1.00
C134   C     0.82544   0.01913   0.12410   0.00000  Uiso   1.00
C135   C     0.84123   0.31420   0.20924   0.00000  Uiso   1.00
C136   C     0.82273   0.31026   0.12622   0.00000  Uiso   1.00
H137   H     0.99102   0.16442   0.11359   0.00000  Uiso   1.00
H138   H     0.73882   0.07376   0.30346   0.00000  Uiso   1.00
H139   H     0.79447   0.07595   0.27356   0.00000  Uiso   1.00
H140   H     0.73135   0.08118   0.19997   0.00000  Uiso   1.00
H141   H     0.72093   0.03477   0.23038   0.00000  Uiso   1.00
H142   H     0.67708   0.07749   0.23163   0.00000  Uiso   1.00
H143   H     0.67565   0.16891   0.21975   0.00000  Uiso   1.00
H144   H     0.81353   0.29253   0.09463   0.00000  Uiso   1.00
H145   H     0.85314   0.04080   0.23870   0.00000  Uiso   1.00
H146   H     0.87223   0.25738   0.05980   0.00000  Uiso   1.00
H147   H     0.92785   0.25956   0.02987   0.00000  Uiso   1.00
H148   H     0.98962   0.25578   0.10170   0.00000  Uiso   1.00
H149   H     0.94585   0.29856   0.10292   0.00000  Uiso   1.00
H150   H     0.93534   0.25218   0.13336   0.00000  Uiso   1.00
N151   N     0.83332   0.16666   0.28573   0.00000  Uiso   1.00
N152   N     0.83335   0.16668   0.04760   0.00000  Uiso   1.00
N153   N     0.81592   0.04960   0.04294   0.00000  Uiso   1.00
N154   N     0.85075   0.28373   0.29039   0.00000  Uiso   1.00
N155   N     0.95361   0.21938   0.28536   0.00000  Uiso   1.00
N156   N     0.71306   0.11394   0.04798   0.00000  Uiso   1.00
O157   O     0.83333   0.10558   0.20487   0.00000  Uiso   1.00
O158   O     0.75107   0.13018   0.27376   0.00000  Uiso   1.00
O159   O     0.83334   0.22775   0.12846   0.00000  Uiso   1.00
O160   O     0.83333   0.10559   0.12843   0.00000  Uiso   1.00
O161   O     0.83334   0.22774   0.20490   0.00000  Uiso   1.00
O162   O     0.75725   0.16666   0.19595   0.00000  Uiso   1.00
O163   O     0.90942   0.16667   0.13739   0.00000  Uiso   1.00
O164   O     0.75725   0.16667   0.11950   0.00000  Uiso   1.00
O165   O     0.90942   0.16666   0.21383   0.00000  Uiso   1.00
O166   O     0.91560   0.20315   0.05957   0.00000  Uiso   1.00
Zn167  Zn    0.83333   0.16666   0.21771   0.00000  Uiso   1.00
Zn168  Zn    0.83333   0.16667   0.11563   0.00000  Uiso   1.00
C169   C     0.16738   0.42005   0.16617   0.00000  Uiso   1.00
C170   C     0.17727   0.35641   0.20711   0.00000  Uiso   1.00
C171   C     0.16507   0.62418   0.16815   0.00000  Uiso   1.00
C172   C     0.16826   0.37582   0.16518   0.00000  Uiso   1.00
C173   C     0.20670   0.51933   0.03000   0.00000  Uiso   1.00
C174   C     0.12663   0.48067   0.30333   0.00000  Uiso   1.00
C175   C     0.20710   0.51856   0.31538   0.00000  Uiso   1.00
C176   C     0.12623   0.48144   0.01795   0.00000  Uiso   1.00
C177   C     0.15321   0.36970   0.07914   0.00000  Uiso   1.00
C178   C     0.18013   0.63030   0.25419   0.00000  Uiso   1.00
C179   C     0.24633   0.58003   0.05987   0.00000  Uiso   1.00
C180   C     0.16595   0.57995   0.16716   0.00000  Uiso   1.00
C181   C     0.28145   0.59769   0.10213   0.00000  Uiso   1.00
C182   C     0.08702   0.41996   0.27347   0.00000  Uiso   1.00
C183   C     0.05193   0.40230   0.23119   0.00000  Uiso   1.00
C184   C     0.25120   0.53728   0.29832   0.00000  Uiso   1.00
C185   C     0.08213   0.46271   0.03502   0.00000  Uiso   1.00
C186   C     0.06708   0.49991   0.15466   0.00000  Uiso   1.00
C187   C     0.26625   0.50009   0.17867   0.00000  Uiso   1.00
C188   C     0.01189   0.49939   0.14832   0.00000  Uiso   1.00
C189   C     0.32145   0.50061   0.18502   0.00000  Uiso   1.00
C190   C     0.15877   0.35246   0.12410   0.00000  Uiso   1.00
C191   C     0.17456   0.64753   0.20924   0.00000  Uiso   1.00
C192   C     0.15607   0.64359   0.12622   0.00000  Uiso   1.00
H193   H     0.32435   0.49775   0.11359   0.00000  Uiso   1.00
H194   H     0.07215   0.40710   0.30346   0.00000  Uiso   1.00
H195   H     0.12780   0.40929   0.27356   0.00000  Uiso   1.00
H196   H     0.06469   0.41451   0.19997   0.00000  Uiso   1.00
H197   H     0.05426   0.36810   0.23038   0.00000  Uiso   1.00
H198   H     0.01041   0.41082   0.23163   0.00000  Uiso   1.00
H199   H     0.00898   0.50224   0.21975   0.00000  Uiso   1.00
H200   H     0.14686   0.62586   0.09463   0.00000  Uiso   1.00
H201   H     0.18647   0.37413   0.23870   0.00000  Uiso   1.00
H202   H     0.20556   0.59072   0.05980   0.00000  Uiso   1.00
H203   H     0.26119   0.59289   0.02987   0.00000  Uiso   1.00
H204   H     0.32296   0.58911   0.10170   0.00000  Uiso   1.00
H205   H     0.27918   0.63190   0.10292   0.00000  Uiso   1.00
H206   H     0.26867   0.58552   0.13336   0.00000  Uiso   1.00
N207   N     0.16665   0.49999   0.28573   0.00000  Uiso   1.00
N208   N     0.16668   0.50001   0.04760   0.00000  Uiso   1.00
N209   N     0.14925   0.38293   0.04294   0.00000  Uiso   1.00
N210   N     0.18409   0.61707   0.29039   0.00000  Uiso   1.00
N211   N     0.28694   0.55272   0.28536   0.00000  Uiso   1.00
N212   N     0.04640   0.44728   0.04798   0.00000  Uiso   1.00
O213   O     0.16666   0.43892   0.20487   0.00000  Uiso   1.00
O214   O     0.08441   0.46351   0.27376   0.00000  Uiso   1.00
O215   O     0.16667   0.56108   0.12846   0.00000  Uiso   1.00
O216   O     0.16666   0.43893   0.12843   0.00000  Uiso   1.00
O217   O     0.16667   0.56107   0.20490   0.00000  Uiso   1.00
O218   O     0.09058   0.50000   0.19595   0.00000  Uiso   1.00
O219   O     0.24275   0.50000   0.13739   0.00000  Uiso   1.00
O220   O     0.09058   0.50000   0.11950   0.00000  Uiso   1.00
O221   O     0.24275   0.50000   0.21383   0.00000  Uiso   1.00
O222   O     0.24893   0.53648   0.05957   0.00000  Uiso   1.00
Zn223  Zn    0.16667   0.49999   0.21771   0.00000  Uiso   1.00
Zn224  Zn    0.16667   0.50001   0.11563   0.00000  Uiso   1.00
C225   C     0.50071   0.42005   0.16617   0.00000  Uiso   1.00
C226   C     0.51060   0.35641   0.20711   0.00000  Uiso   1.00
C227   C     0.49840   0.62418   0.16815   0.00000  Uiso   1.00
C228   C     0.50159   0.37582   0.16518   0.00000  Uiso   1.00
C229   C     0.54003   0.51933   0.03000   0.00000  Uiso   1.00
C230   C     0.45997   0.48067   0.30333   0.00000  Uiso   1.00
C231   C     0.54044   0.51856   0.31538   0.00000  Uiso   1.00
C232   C     0.45956   0.48144   0.01795   0.00000  Uiso   1.00
C233   C     0.48654   0.36970   0.07914   0.00000  Uiso   1.00
C234   C     0.51346   0.63030   0.25419   0.00000  Uiso   1.00
C235   C     0.57966   0.58003   0.05987   0.00000  Uiso   1.00
C236   C     0.49928   0.57995   0.16716   0.00000  Uiso   1.00
C237   C     0.61478   0.59769   0.10213   0.00000  Uiso   1.00
C238   C     0.42036   0.41996   0.27347   0.00000  Uiso   1.00
C239   C     0.38526   0.40230   0.23119   0.00000  Uiso   1.00
C240   C     0.58454   0.53728   0.29832   0.00000  Uiso   1.00
C241   C     0.41546   0.46271   0.03502   0.00000  Uiso   1.00
C242   C     0.40042   0.49991   0.15466   0.00000  Uiso   1.00
C243   C     0.59958   0.50009   0.17867   0.00000  Uiso   1.00
C244   C     0.34522   0.49939   0.14832   0.00000  Uiso   1.00
C245   C     0.65478   0.50061   0.18502   0.00000  Uiso   1.00
C246   C     0.49211   0.35246   0.12410   0.00000  Uiso   1.00
C247   C     0.50789   0.64753   0.20924   0.00000  Uiso   1.00
C248   C     0.48940   0.64359   0.12622   0.00000  Uiso   1.00
H249   H     0.65769   0.49775   0.11359   0.00000  Uiso   1.00
H250   H     0.40548   0.40710   0.30346   0.00000  Uiso   1.00
H251   H     0.46113   0.40929   0.27356   0.00000  Uiso   1.00
H252   H     0.39802   0.41451   0.19997   0.00000  Uiso   1.00
H253   H     0.38760   0.36810   0.23038   0.00000  Uiso   1.00
H254   H     0.34374   0.41082   0.23163   0.00000  Uiso   1.00
H255   H     0.34231   0.50224   0.21975   0.00000  Uiso   1.00
H256   H     0.48019   0.62586   0.09463   0.00000  Uiso   1.00
H257   H     0.51981   0.37413   0.23870   0.00000  Uiso   1.00
H258   H     0.53889   0.59072   0.05980   0.00000  Uiso   1.00
H259   H     0.59452   0.59289   0.02987   0.00000  Uiso   1.00
H260   H     0.65629   0.58911   0.10170   0.00000  Uiso   1.00
H261   H     0.61251   0.63190   0.10292   0.00000  Uiso   1.00
H262   H     0.60200   0.58552   0.13336   0.00000  Uiso   1.00
N263   N     0.49999   0.49999   0.28573   0.00000  Uiso   1.00
N264   N     0.50001   0.50001   0.04760   0.00000  Uiso   1.00
N265   N     0.48259   0.38293   0.04294   0.00000  Uiso   1.00
N266   N     0.51742   0.61707   0.29039   0.00000  Uiso   1.00
N267   N     0.62027   0.55272   0.28536   0.00000  Uiso   1.00
N268   N     0.37973   0.44728   0.04798   0.00000  Uiso   1.00
O269   O     0.50000   0.43892   0.20487   0.00000  Uiso   1.00
O270   O     0.41774   0.46351   0.27376   0.00000  Uiso   1.00
O271   O     0.50000   0.56108   0.12846   0.00000  Uiso   1.00
O272   O     0.50000   0.43893   0.12843   0.00000  Uiso   1.00
O273   O     0.50000   0.56107   0.20490   0.00000  Uiso   1.00
O274   O     0.42392   0.50000   0.19595   0.00000  Uiso   1.00
O275   O     0.57608   0.50000   0.13739   0.00000  Uiso   1.00
O276   O     0.42392   0.50000   0.11950   0.00000  Uiso   1.00
O277   O     0.57608   0.50000   0.21383   0.00000  Uiso   1.00
O278   O     0.58226   0.53648   0.05957   0.00000  Uiso   1.00
Zn279  Zn    0.50000   0.49999   0.21771   0.00000  Uiso   1.00
Zn280  Zn    0.50000   0.50001   0.11563   0.00000  Uiso   1.00
C281   C     0.83405   0.42005   0.16617   0.00000  Uiso   1.00
C282   C     0.84393   0.35641   0.20711   0.00000  Uiso   1.00
C283   C     0.83174   0.62418   0.16815   0.00000  Uiso   1.00
C284   C     0.83493   0.37582   0.16518   0.00000  Uiso   1.00
C285   C     0.87337   0.51933   0.03000   0.00000  Uiso   1.00
C286   C     0.79330   0.48067   0.30333   0.00000  Uiso   1.00
C287   C     0.87377   0.51856   0.31538   0.00000  Uiso   1.00
C288   C     0.79290   0.48144   0.01795   0.00000  Uiso   1.00
C289   C     0.81988   0.36970   0.07914   0.00000  Uiso   1.00
C290   C     0.84679   0.63030   0.25419   0.00000  Uiso   1.00
C291   C     0.91299   0.58003   0.05987   0.00000  Uiso   1.00
C292   C     0.83262   0.57995   0.16716   0.00000  Uiso   1.00
C293   C     0.94812   0.59769   0.10213   0.00000  Uiso   1.00
C294   C     0.75369   0.41996   0.27347   0.00000  Uiso   1.00
C295   C     0.71860   0.40230   0.23119   0.00000  Uiso   1.00
C296   C     0.91787   0.53728   0.29832   0.00000  Uiso   1.00
C297   C     0.74880   0.46271   0.03502   0.00000  Uiso   1.00
C298   C     0.73375   0.49991   0.15466   0.00000  Uiso   1.00
C299   C     0.93292   0.50009   0.17867   0.00000  Uiso   1.00
C300   C     0.67855   0.49939   0.14832   0.00000  Uiso   1.00
C301   C     0.98811   0.50061   0.18502   0.00000  Uiso   1.00
C302   C     0.82544   0.35246   0.12410   0.00000  Uiso   1.00
C303   C     0.84123   0.64753   0.20924   0.00000  Uiso   1.00
C304   C     0.82273   0.64359   0.12622   0.00000  Uiso   1.00
H305   H     0.99102   0.49775   0.11359   0.00000  Uiso   1.00
H306   H     0.73882   0.40710   0.30346   0.00000  Uiso   1.00
H307   H     0.79447   0.40929   0.27356   0.00000  Uiso   1.00
H308   H     0.73135   0.41451   0.19997   0.00000  Uiso   1.00
H309   H     0.72093   0.36810   0.23038   0.00000  Uiso   1.00
H310   H     0.67708   0.41082   0.23163   0.00000  Uiso   1.00
H311   H     0.67565   0.50224   0.21975   0.00000  Uiso   1.00
H312   H     0.81353   0.62586   0.09463   0.00000  Uiso   1.00
H313   H     0.85314   0.37413   0.23870   0.00000  Uiso   1.00
H314   H     0.87223   0.59072   0.05980   0.00000  Uiso   1.00
H315   H     0.92785   0.59289   0.02987   0.00000  Uiso   1.00
H316   H     0.98962   0.58911   0.10170   0.00000  Uiso   1.00
H317   H     0.94585   0.63190   0.10292   0.00000  Uiso   1.00
H318   H     0.93534   0.58552   0.13336   0.00000  Uiso   1.00
N319   N     0.83332   0.49999   0.28573   0.00000  Uiso   1.00
N320   N     0.83335   0.50001   0.04760   0.00000  Uiso   1.00
N321   N     0.81592   0.38293   0.04294   0.00000  Uiso   1.00
N322   N     0.85075   0.61707   0.29039   0.00000  Uiso   1.00
N323   N     0.95361   0.55272   0.28536   0.00000  Uiso   1.00
N324   N     0.71306   0.44728   0.04798   0.00000  Uiso   1.00
O325   O     0.83333   0.43892   0.20487   0.00000  Uiso   1.00
O326   O     0.75107   0.46351   0.27376   0.00000  Uiso   1.00
O327   O     0.83334   0.56108   0.12846   0.00000  Uiso   1.00
O328   O     0.83333   0.43893   0.12843   0.00000  Uiso   1.00
O329   O     0.83334   0.56107   0.20490   0.00000  Uiso   1.00
O330   O     0.75725   0.50000   0.19595   0.00000  Uiso   1.00
O331   O     0.90942   0.50000   0.13739   0.00000  Uiso   1.00
O332   O     0.75725   0.50000   0.11950   0.00000  Uiso   1.00
O333   O     0.90942   0.50000   0.21383   0.00000  Uiso   1.00
O334   O     0.91560   0.53648   0.05957   0.00000  Uiso   1.00
Zn335  Zn    0.83333   0.49999   0.21771   0.00000  Uiso   1.00
Zn336  Zn    0.83333   0.50001   0.11563   0.00000  Uiso   1.00
C337   C     0.16738   0.75338   0.16617   0.00000  Uiso   1.00
C338   C     0.17727   0.68974   0.20711   0.00000  Uiso   1.00
C339   C     0.16507   0.95751   0.16815   0.00000  Uiso   1.00
C340   C     0.16826   0.70915   0.16518   0.00000  Uiso   1.00
C341   C     0.20670   0.85267   0.03000   0.00000  Uiso   1.00
C342   C     0.12663   0.81400   0.30333   0.00000  Uiso   1.00
C343   C     0.20710   0.85189   0.31538   0.00000  Uiso   1.00
C344   C     0.12623   0.81477   0.01795   0.00000  Uiso   1.00
C345   C     0.15321   0.70303   0.07914   0.00000  Uiso   1.00
C346   C     0.18013   0.96363   0.25419   0.00000  Uiso   1.00
C347   C     0.24633   0.91337   0.05987   0.00000  Uiso   1.00
C348   C     0.16595   0.91329   0.16716   0.00000  Uiso   1.00
C349   C     0.28145   0.93103   0.10213   0.00000  Uiso   1.00
C350   C     0.08702   0.75329   0.27347   0.00000  Uiso   1.00
C351   C     0.05193   0.73563   0.23119   0.00000  Uiso   1.00
C352   C     0.25120   0.87062   0.29832   0.00000  Uiso   1.00
C353   C     0.08213   0.79605   0.03502   0.00000  Uiso   1.00
C354   C     0.06708   0.83324   0.15466   0.00000  Uiso   1.00
C355   C     0.26625   0.83342   0.17867   0.00000  Uiso   1.00
C356   C     0.01189   0.83272   0.14832   0.00000  Uiso   1.00
C357   C     0.32145   0.83394   0.18502   0.00000  Uiso   1.00
C358   C     0.15877   0.68580   0.12410   0.00000  Uiso   1.00
C359   C     0.17456   0.98087   0.20924   0.00000  Uiso   1.00
C360   C     0.15607   0.97692   0.12622   0.00000  Uiso   1.00
H361   H     0.32435   0.83109   0.11359   0.00000  Uiso   1.00
H362   H     0.07215   0.74043   0.30346   0.00000  Uiso   1.00
H363   H     0.12780   0.74262   0.27356   0.00000  Uiso   1.00
H364   H     0.06469   0.74785   0.19997   0.00000  Uiso   1.00
H365   H     0.05426   0.70143   0.23038   0.00000  Uiso   1.00
H366   H     0.01041   0.74416   0.23163   0.00000  Uiso   1.00
H367   H     0.00898   0.83558   0.21975   0.00000  Uiso   1.00
H368   H     0.14686   0.95920   0.09463   0.00000  Uiso   1.00
H369   H     0.18647   0.70747   0.23870   0.00000  Uiso   1.00
H370   H     0.20556   0.92405   0.05980   0.00000  Uiso   1.00
H371   H     0.26119   0.92622   0.02987   0.00000  Uiso   1.00
H372   H     0.32296   0.92245   0.10170   0.00000  Uiso   1.00
H373   H     0.27918   0.96523   0.10292   0.00000  Uiso   1.00
H374   H     0.26867   0.91885   0.13336   0.00000  Uiso   1.00
N375   N     0.16665   0.83332   0.28573   0.00000  Uiso   1.00
N376   N     0.16668   0.83334   0.04760   0.00000  Uiso   1.00
N377   N     0.14925   0.71626   0.04294   0.00000  Uiso   1.00
N378   N     0.18409   0.95040   0.29039   0.00000  Uiso   1.00
N379   N     0.28694   0.88605   0.28536   0.00000  Uiso   1.00
N380   N     0.04640   0.78061   0.04798   0.00000  Uiso   1.00
O381   O     0.16666   0.77225   0.20487   0.00000  Uiso   1.00
O382   O     0.08441   0.79684   0.27376   0.00000  Uiso   1.00
O383   O     0.16667   0.89442   0.12846   0.00000  Uiso   1.00
O384   O     0.16666   0.77226   0.12843   0.00000  Uiso   1.00
O385   O     0.16667   0.89441   0.20490   0.00000  Uiso   1.00
O386   O     0.09058   0.83333   0.19595   0.00000  Uiso   1.00
O387   O     0.24275   0.83334   0.13739   0.00000  Uiso   1.00
O388   O     0.09058   0.83334   0.11950   0.00000  Uiso   1.00
O389   O     0.24275   0.83333   0.21383   0.00000  Uiso   1.00
O390   O     0.24893   0.86982   0.05957   0.00000  Uiso   1.00
Zn391  Zn    0.16667   0.83333   0.21771   0.00000  Uiso   1.00
Zn392  Zn    0.16667   0.83334   0.11563   0.00000  Uiso   1.00
C393   C     0.50071   0.75338   0.16617   0.00000  Uiso   1.00
C394   C     0.51060   0.68974   0.20711   0.00000  Uiso   1.00
C395   C     0.49840   0.95751   0.16815   0.00000  Uiso   1.00
C396   C     0.50159   0.70915   0.16518   0.00000  Uiso   1.00
C397   C     0.54003   0.85267   0.03000   0.00000  Uiso   1.00
C398   C     0.45997   0.81400   0.30333   0.00000  Uiso   1.00
C399   C     0.54044   0.85189   0.31538   0.00000  Uiso   1.00
C400   C     0.45956   0.81477   0.01795   0.00000  Uiso   1.00
C401   C     0.48654   0.70303   0.07914   0.00000  Uiso   1.00
C402   C     0.51346   0.96363   0.25419   0.00000  Uiso   1.00
C403   C     0.57966   0.91337   0.05987   0.00000  Uiso   1.00
C404   C     0.49928   0.91329   0.16716   0.00000  Uiso   1.00
C405   C     0.61478   0.93103   0.10213   0.00000  Uiso   1.00
C406   C     0.42036   0.75329   0.27347   0.00000  Uiso   1.00
C407   C     0.38526   0.73563   0.23119   0.00000  Uiso   1.00
C408   C     0.58454   0.87062   0.29832   0.00000  Uiso   1.00
C409   C     0.41546   0.79605   0.03502   0.00000  Uiso   1.00
C410   C     0.40042   0.83324   0.15466   0.00000  Uiso   1.00
C411   C     0.59958   0.83342   0.17867   0.00000  Uiso   1.00
C412   C     0.34522   0.83272   0.14832   0.00000  Uiso   1.00
C413   C     0.65478   0.83394   0.18502   0.00000  Uiso   1.00
C414   C     0.49211   0.68580   0.12410   0.00000  Uiso   1.00
C415   C     0.50789   0.98087   0.20924   0.00000  Uiso   1.00
C416   C     0.48940   0.97692   0.12622   0.00000  Uiso   1.00
H417   H     0.65769   0.83109   0.11359   0.00000  Uiso   1.00
H418   H     0.40548   0.74043   0.30346   0.00000  Uiso   1.00
H419   H     0.46113   0.74262   0.27356   0.00000  Uiso   1.00
H420   H     0.39802   0.74785   0.19997   0.00000  Uiso   1.00
H421   H     0.38760   0.70143   0.23038   0.00000  Uiso   1.00
H422   H     0.34374   0.74416   0.23163   0.00000  Uiso   1.00
H423   H     0.34231   0.83558   0.21975   0.00000  Uiso   1.00
H424   H     0.48019   0.95920   0.09463   0.00000  Uiso   1.00
H425   H     0.51981   0.70747   0.23870   0.00000  Uiso   1.00
H426   H     0.53889   0.92405   0.05980   0.00000  Uiso   1.00
H427   H     0.59452   0.92622   0.02987   0.00000  Uiso   1.00
H428   H     0.65629   0.92245   0.10170   0.00000  Uiso   1.00
H429   H     0.61251   0.96523   0.10292   0.00000  Uiso   1.00
H430   H     0.60200   0.91885   0.13336   0.00000  Uiso   1.00
N431   N     0.49999   0.83332   0.28573   0.00000  Uiso   1.00
N432   N     0.50001   0.83334   0.04760   0.00000  Uiso   1.00
N433   N     0.48259   0.71626   0.04294   0.00000  Uiso   1.00
N434   N     0.51742   0.95040   0.29039   0.00000  Uiso   1.00
N435   N     0.62027   0.88605   0.28536   0.00000  Uiso   1.00
N436   N     0.37973   0.78061   0.04798   0.00000  Uiso   1.00
O437   O     0.50000   0.77225   0.20487   0.00000  Uiso   1.00
O438   O     0.41774   0.79684   0.27376   0.00000  Uiso   1.00
O439   O     0.50000   0.89442   0.12846   0.00000  Uiso   1.00
O440   O     0.50000   0.77226   0.12843   0.00000  Uiso   1.00
O441   O     0.50000   0.89441   0.20490   0.00000  Uiso   1.00
O442   O     0.42392   0.83333   0.19595   0.00000  Uiso   1.00
O443   O     0.57608   0.83334   0.13739   0.00000  Uiso   1.00
O444   O     0.42392   0.83334   0.11950   0.00000  Uiso   1.00
O445   O     0.57608   0.83333   0.21383   0.00000  Uiso   1.00
O446   O     0.58226   0.86982   0.05957   0.00000  Uiso   1.00
Zn447  Zn    0.50000   0.83333   0.21771   0.00000  Uiso   1.00
Zn448  Zn    0.50000   0.83334   0.11563   0.00000  Uiso   1.00
C449   C     0.83405   0.75338   0.16617   0.00000  Uiso   1.00
C450   C     0.84393   0.68974   0.20711   0.00000  Uiso   1.00
C451   C     0.83174   0.95751   0.16815   0.00000  Uiso   1.00
C452   C     0.83493   0.70915   0.16518   0.00000  Uiso   1.00
C453   C     0.87337   0.85267   0.03000   0.00000  Uiso   1.00
C454   C     0.79330   0.81400   0.30333   0.00000  Uiso   1.00
C455   C     0.87377   0.85189   0.31538   0.00000  Uiso   1.00
C456   C     0.79290   0.81477   0.01795   0.00000  Uiso   1.00
C457   C     0.81988   0.70303   0.07914   0.00000  Uiso   1.00
C458   C     0.84679   0.96363   0.25419   0.00000  Uiso   1.00
C459   C     0.91299   0.91337   0.05987   0.00000  Uiso   1.00
C460   C     0.83262   0.91329   0.16716   0.00000  Uiso   1.00
C461   C     0.94812   0.93103   0.10213   0.00000  Uiso   1.00
C462   C     0.75369   0.75329   0.27347   0.00000  Uiso   1.00
C463   C     0.71860   0.73563   0.23119   0.00000  Uiso   1.00
C464   C     0.91787   0.87062   0.29832   0.00000  Uiso   1.00
C465   C     0.74880   0.79605   0.03502   0.00000  Uiso   1.00
C466   C     0.73375   0.83324   0.15466   0.00000  Uiso   1.00
C467   C     0.93292   0.83342   0.17867   0.00000  Uiso   1.00
C468   C     0.67855   0.83272   0.14832   0.00000  Uiso   1.00
C469   C     0.98811   0.83394   0.18502   0.00000  Uiso   1.00
C470   C     0.82544   0.68580   0.12410   0.00000  Uiso   1.00
C471   C     0.84123   0.98087   0.20924   0.00000  Uiso   1.00
C472   C     0.82273   0.97692   0.12622   0.00000  Uiso   1.00
H473   H     0.99102   0.83109   0.11359   0.00000  Uiso   1.00
H474   H     0.73882   0.74043   0.30346   0.00000  Uiso   1.00
H475   H     0.79447   0.74262   0.27356   0.00000  Uiso   1.00
H476   H     0.73135   0.74785   0.19997   0.00000  Uiso   1.00
H477   H     0.72093   0.70143   0.23038   0.00000  Uiso   1.00
H478   H     0.67708   0.74416   0.23163   0.00000  Uiso   1.00
H479   H     0.67565   0.83558   0.21975   0.00000  Uiso   1.00
H480   H     0.81353   0.95920   0.09463   0.00000  Uiso   1.00
H481   H     0.85314   0.70747   0.23870   0.00000  Uiso   1.00
H482   H     0.87223   0.92405   0.05980   0.00000  Uiso   1.00
H483   H     0.92785   0.92622   0.02987   0.00000  Uiso   1.00
H484   H     0.98962   0.92245   0.10170   0.00000  Uiso   1.00
H485   H     0.94585   0.96523   0.10292   0.00000  Uiso   1.00
H486   H     0.93534   0.91885   0.13336   0.00000  Uiso   1.00
N487   N     0.83332   0.83332   0.28573   0.00000  Uiso   1.00
N488   N     0.83335   0.83334   0.04760   0.00000  Uiso   1.00
N489   N     0.81592   0.71626   0.04294   0.00000  Uiso   1.00
N490   N     0.85075   0.95040   0.29039   0.00000  Uiso   1.00
N491   N     0.95361   0.88605   0.28536   0.00000  Uiso   1.00
N492   N     0.71306   0.78061   0.04798   0.00000  Uiso   1.00
O493   O     0.83333   0.77225   0.20487   0.00000  Uiso   1.00
O494   O     0.75107   0.79684   0.27376   0.00000  Uiso   1.00
O495   O     0.83334   0.89442   0.12846   0.00000  Uiso   1.00
O496   O     0.83333   0.77226   0.12843   0.00000  Uiso   1.00
O497   O     0.83334   0.89441   0.20490   0.00000  Uiso   1.00
O498   O     0.75725   0.83333   0.19595   0.00000  Uiso   1.00
O499   O     0.90942   0.83334   0.13739   0.00000  Uiso   1.00
O500   O     0.75725   0.83334   0.11950   0.00000  Uiso   1.00
O501   O     0.90942   0.83333   0.21383   0.00000  Uiso   1.00
O502   O     0.91560   0.86982   0.05957   0.00000  Uiso   1.00
Zn503  Zn    0.83333   0.83333   0.21771   0.00000  Uiso   1.00
Zn504  Zn    0.83333   0.83334   0.11563   0.00000  Uiso   1.00
C505   C     0.16738   0.08671   0.49950   0.00000  Uiso   1.00
C506   C     0.17727   0.02307   0.54045   0.00000  Uiso   1.00
C507   C     0.16507   0.29085   0.50148   0.00000  Uiso   1.00
C508   C     0.16826   0.04249   0.49852   0.00000  Uiso   1.00
C509   C     0.20670   0.18600   0.36333   0.00000  Uiso   1.00
C510   C     0.12663   0.14733   0.63667   0.00000  Uiso   1.00
C511   C     0.20710   0.18523   0.64872   0.00000  Uiso   1.00
C512   C     0.12623   0.14811   0.35128   0.00000  Uiso   1.00
C513   C     0.15321   0.03636   0.41248   0.00000  Uiso   1.00
C514   C     0.18013   0.29697   0.58752   0.00000  Uiso   1.00
C515   C     0.24633   0.24670   0.39320   0.00000  Uiso   1.00
C516   C     0.16595   0.24662   0.50050   0.00000  Uiso   1.00
C517   C     0.28145   0.26436   0.43546   0.00000  Uiso   1.00
C518   C     0.08702   0.08663   0.60680   0.00000  Uiso   1.00
C519   C     0.05193   0.06896   0.56452   0.00000  Uiso   1.00
C520   C     0.25120   0.20395   0.63165   0.00000  Uiso   1.00
C521   C     0.08213   0.12938   0.36835   0.00000  Uiso   1.00
C522   C     0.06708   0.16658   0.48799   0.00000  Uiso   1.00
C523   C     0.26625   0.16676   0.51201   0.00000  Uiso   1.00
C524   C     0.01189   0.16606   0.48165   0.00000  Uiso   1.00
C525   C     0.32145   0.16728   0.51835   0.00000  Uiso   1.00
C526   C     0.15877   0.01913   0.45743   0.00000  Uiso   1.00
C527   C     0.17456   0.31420   0.54257   0.00000  Uiso   1.00
C528   C     0.15607   0.31026   0.45955   0.00000  Uiso   1.00
H529   H     0.32435   0.16442   0.44692   0.00000  Uiso   1.00
H530   H     0.07215   0.07376   0.63679   0.00000  Uiso   1.00
H531   H     0.12780   0.07595   0.60689   0.00000  Uiso   1.00
H532   H     0.06469   0.08118   0.53330   0.00000  Uiso   1.00
H533   H     0.05426   0.03477   0.56371   0.00000  Uiso   1.00
H534   H     0.01041   0.07749   0.56496   0.00000  Uiso   1.00
H535   H     0.00898   0.16891   0.55308   0.00000  Uiso   1.00
H536   H     0.14686   0.29253   0.42797   0.00000  Uiso   1.00
H537   H     0.18647   0.04080   0.57203   0.00000  Uiso   1.00
H538   H     0.20556   0.25738   0.39313   0.00000  Uiso   1.00
H539   H     0.26119   0.25956   0.36320   0.00000  Uiso   1.00
H540   H     0.32296   0.25578   0.43503   0.00000  Uiso   1.00
H541   H     0.27918   0.29856   0.43625   0.00000  Uiso   1.00
H542   H     0.26867   0.25218   0.46669   0.00000  Uiso   1.00
N543   N     0.16665   0.16666   0.61907   0.00000  Uiso   1.00
N544   N     0.16668   0.16668   0.38093   0.00000  Uiso   1.00
N545   N     0.14925   0.04960   0.37627   0.00000  Uiso   1.00
N546   N     0.18409   0.28373   0.62373   0.00000  Uiso   1.00
N547   N     0.28694   0.21938   0.61869   0.00000  Uiso   1.00
N548   N     0.04640   0.11394   0.38131   0.00000  Uiso   1.00
O549   O     0.16666   0.10558   0.53821   0.00000  Uiso   1.00
O550   O     0.08441   0.13018   0.60710   0.00000  Uiso   1.00
O551   O     0.16667   0.22775   0.46179   0.00000  Uiso   1.00
O552   O     0.16666   0.10559   0.46176   0.00000  Uiso   1.00
O553   O     0.16667   0.22774   0.53824   0.00000  Uiso   1.00
O554   O     0.09058   0.16666   0.52928   0.00000  Uiso   1.00
O555   O     0.24275   0.16667   0.47072   0.00000  Uiso   1.00
O556   O     0.09058   0.16667   0.45284   0.00000  Uiso   1.00
O557   O     0.24275   0.16666   0.54716   0.00000  Uiso   1.00
O558   O     0.24893   0.20315   0.39290   0.00000  Uiso   1.00
Zn559  Zn    0.16667   0.16666   0.55104   0.00000  Uiso   1.00
Zn560  Zn    0.16667   0.16667   0.44896   0.00000  Uiso   1.00
C561   C     0.50071   0.08671   0.49950   0.00000  Uiso   1.00
C562   C     0.51060   0.02307   0.54045   0.00000  Uiso   1.00
C563   C     0.49840   0.29085   0.50148   0.00000  Uiso   1.00
C564   C     0.50159   0.04249   0.49852   0.00000  Uiso   1.00
C565   C     0.54003   0.18600   0.36333   0.00000  Uiso   1.00
C566   C     0.45997   0.14733   0.63667   0.00000  Uiso   1.00
C567   C     0.54044   0.18523   0.64872   0.00000  Uiso   1.00
C568   C     0.45956   0.14811   0.35128   0.00000  Uiso   1.00
C569   C     0.48654   0.03636   0.41248   0.00000  Uiso   1.00
C570   C     0.51346   0.29697   0.58752   0.00000  Uiso   1.00
C571   C     0.57966   0.24670   0.39320   0.00000  Uiso   1.00
C572   C     0.49928   0.24662   0.50050   0.00000  Uiso   1.00
C573   C     0.61478   0.26436   0.43546   0.00000  Uiso   1.00
C574   C     0.42036   0.08663   0.60680   0.00000  Uiso   1.00
C575   C     0.38526   0.06896   0.56452   0.00000  Uiso   1.00
C576   C     0.58454   0.20395   0.63165   0.00000  Uiso   1.00
C577   C     0.41546   0.12938   0.36835   0.00000  Uiso   1.00
C578   C     0.40042   0.16658   0.48799   0.00000  Uiso   1.00
C579   C     0.59958   0.16676   0.51201   0.00000  Uiso   1.00
C580   C     0.34522   0.16606   0.48165   0.00000  Uiso   1.00
C581   C     0.65478   0.16728   0.51835   0.00000  Uiso   1.00
C582   C     0.49211   0.01913   0.45743   0.00000  Uiso   1.00
C583   C     0.50789   0.31420   0.54257   0.00000  Uiso   1.00
C584   C     0.48940   0.31026   0.45955   0.00000  Uiso   1.00
H585   H     0.65769   0.16442   0.44692   0.00000  Uiso   1.00
H586   H     0.40548   0.07376   0.63679   0.00000  Uiso   1.00
H587   H     0.46113   0.07595   0.60689   0.00000  Uiso   1.00
H588   H     0.39802   0.08118   0.53330   0.00000  Uiso   1.00
H589   H     0.38760   0.03477   0.56371   0.00000  Uiso   1.00
H590   H     0.34374   0.07749   0.56496   0.00000  Uiso   1.00
H591   H     0.34231   0.16891   0.55308   0.00000  Uiso   1.00
H592   H     0.48019   0.29253   0.42797   0.00000  Uiso   1.00
H593   H     0.51981   0.04080   0.57203   0.00000  Uiso   1.00
H594   H     0.53889   0.25738   0.39313   0.00000  Uiso   1.00
H595   H     0.59452   0.25956   0.36320   0.00000  Uiso   1.00
H596   H     0.65629   0.25578   0.43503   0.00000  Uiso   1.00
H597   H     0.61251   0.29856   0.43625   0.00000  Uiso   1.00
H598   H     0.60200   0.25218   0.46669   0.00000  Uiso   1.00
N599   N     0.49999   0.16666   0.61907   0.00000  Uiso   1.00
N600   N     0.50001   0.16668   0.38093   0.00000  Uiso   1.00
N601   N     0.48259   0.04960   0.37627   0.00000  Uiso   1.00
N602   N     0.51742   0.28373   0.62373   0.00000  Uiso   1.00
N603   N     0.62027   0.21938   0.61869   0.00000  Uiso   1.00
N604   N     0.37973   0.11394   0.38131   0.00000  Uiso   1.00
O605   O     0.50000   0.10558   0.53821   0.00000  Uiso   1.00
O606   O     0.41774   0.13018   0.60710   0.00000  Uiso   1.00
O607   O     0.50000   0.22775   0.46179   0.00000  Uiso   1.00
O608   O     0.50000   0.10559   0.46176   0.00000  Uiso   1.00
O609   O     0.50000   0.22774   0.53824   0.00000  Uiso   1.00
O610   O     0.42392   0.16666   0.52928   0.00000  Uiso   1.00
O611   O     0.57608   0.16667   0.47072   0.00000  Uiso   1.00
O612   O     0.42392   0.16667   0.45284   0.00000  Uiso   1.00
O613   O     0.57608   0.16666   0.54716   0.00000  Uiso   1.00
O614   O     0.58226   0.20315   0.39290   0.00000  Uiso   1.00
Zn615  Zn    0.50000   0.16666   0.55104   0.00000  Uiso   1.00
Zn616  Zn    0.50000   0.16667   0.44896   0.00000  Uiso   1.00
C617   C     0.83405   0.08671   0.49950   0.00000  Uiso   1.00
C618   C     0.84393   0.02307   0.54045   0.00000  Uiso   1.00
C619   C     0.83174   0.29085   0.50148   0.00000  Uiso   1.00
C620   C     0.83493   0.04249   0.49852   0.00000  Uiso   1.00
C621   C     0.87337   0.18600   0.36333   0.00000  Uiso   1.00
C622   C     0.79330   0.14733   0.63667   0.00000  Uiso   1.00
C623   C     0.87377   0.18523   0.64872   0.00000  Uiso   1.00
C624   C     0.79290   0.14811   0.35128   0.00000  Uiso   1.00
C625   C     0.81988   0.03636   0.41248   0.00000  Uiso   1.00
C626   C     0.84679   0.29697   0.58752   0.00000  Uiso   1.00
C627   C     0.91299   0.24670   0.39320   0.00000  Uiso   1.00
C628   C     0.83262   0.24662   0.50050   0.00000  Uiso   1.00
C629   C     0.94812   0.26436   0.43546   0.00000  Uiso   1.00
C630   C     0.75369   0.08663   0.60680   0.00000  Uiso   1.00
C631   C     0.71860   0.06896   0.56452   0.00000  Uiso   1.00
C632   C     0.91787   0.20395   0.63165   0.00000  Uiso   1.00
C633   C     0.74880   0.12938   0.36835   0.00000  Uiso   1.00
C634   C     0.73375   0.16658   0.48799   0.00000  Uiso   1.00
C635   C     0.93292   0.16676   0.51201   0.00000  Uiso   1.00
C636   C     0.67855   0.16606   0.48165   0.00000  Uiso   1.00
C637   C     0.98811   0.16728   0.51835   0.00000  Uiso   1.00
C638   C     0.82544   0.01913   0.45743   0.00000  Uiso   1.00
C639   C     0.84123   0.31420   0.54257   0.00000  Uiso   1.00
C640   C     0.82273   0.31026   0.45955   0.00000  Uiso   1.00
H641   H     0.99102   0.16442   0.44692   0.00000  Uiso   1.00
H642   H     0.73882   0.07376   0.63679   0.00000  Uiso   1.00
H643   H     0.79447   0.07595   0.60689   0.00000  Uiso   1.00
H644   H     0.73135   0.08118   0.53330   0.00000  Uiso   1.00
H645   H     0.72093   0.03477   0.56371   0.00000  Uiso   1.00
H646   H     0.67708   0.07749   0.56496   0.00000  Uiso   1.00
H647   H     0.67565   0.16891   0.55308   0.00000  Uiso   1.00
H648   H     0.81353   0.29253   0.42797   0.00000  Uiso   1.00
H649   H     0.85314   0.04080   0.57203   0.00000  Uiso   1.00
H650   H     0.87223   0.25738   0.39313   0.00000  Uiso   1.00
H651   H     0.92785   0.25956   0.36320   0.00000  Uiso   1.00
H652   H     0.98962   0.25578   0.43503   0.00000  Uiso   1.00
H653   H     0.94585   0.29856   0.43625   0.00000  Uiso   1.00
H654   H     0.93534   0.25218   0.46669   0.00000  Uiso   1.00
N655   N     0.83332   0.16666   0.61907   0.00000  Uiso   1.00
N656   N     0.83335   0.16668   0.38093   0.00000  Uiso   1.00
N657   N     0.81592   0.04960   0.37627   0.00000  Uiso   1.00
N658   N     0.85075   0.28373   0.62373   0.00000  Uiso   1.00
N659   N     0.95361   0.21938   0.61869   0.00000  Uiso   1.00
N660   N     0.71306   0.11394   0.38131   0.00000  Uiso   1.00
O661   O     0.83333   0.10558   0.53821   0.00000  Uiso   1.00
O662   O     0.75107   0.13018   0.60710   0.00000  Uiso   1.00
O663   O     0.83334   0.22775   0.46179   0.00000  Uiso   1.00
O664   O     0.83333   0.10559   0.46176   0.00000  Uiso   1.00
O665   O     0.83334   0.22774   0.53824   0.00000  Uiso   1.00
O666   O     0.75725   0.16666   0.52928   0.00000  Uiso   1.00
O667   O     0.90942   0.16667   0.47072   0.00000  Uiso   1.00
O668   O     0.75725   0.16667   0.45284   0.00000  Uiso   1.00
O669   O     0.90942   0.16666   0.54716   0.00000  Uiso   1.00
O670   O     0.91560   0.20315   0.39290   0.00000  Uiso   1.00
Zn671  Zn    0.83333   0.16666   0.55104   0.00000  Uiso   1.00
Zn672  Zn    0.83333   0.16667   0.44896   0.00000  Uiso   1.00
C673   C     0.16738   0.42005   0.49950   0.00000  Uiso   1.00
C674   C     0.17727   0.35641   0.54045   0.00000  Uiso   1.00
C675   C     0.16507   0.62418   0.50148   0.00000  Uiso   1.00
C676   C     0.16826   0.37582   0.49852   0.00000  Uiso   1.00
C677   C     0.20670   0.51933   0.36333   0.00000  Uiso   1.00
C678   C     0.12663   0.48067   0.63667   0.00000  Uiso   1.00
C679   C     0.20710   0.51856   0.64872   0.00000  Uiso   1.00
C680   C     0.12623   0.48144   0.35128   0.00000  Uiso   1.00
C681   C     0.15321   0.36970   0.41248   0.00000  Uiso   1.00
C682   C     0.18013   0.63030   0.58752   0.00000  Uiso   1.00
C683   C     0.24633   0.58003   0.39320   0.00000  Uiso   1.00
C684   C     0.16595   0.57995   0.50050   0.00000  Uiso   1.00
C685   C     0.28145   0.59769   0.43546   0.00000  Uiso   1.00
C686   C     0.08702   0.41996   0.60680   0.00000  Uiso   1.00
C687   C     0.05193   0.40230   0.56452   0.00000  Uiso   1.00
C688   C     0.25120   0.53728   0.63165   0.00000  Uiso   1.00
C689   C     0.08213   0.46271   0.36835   0.00000  Uiso   1.00
C690   C     0.06708   0.49991   0.48799   0.00000  Uiso   1.00
C691   C     0.26625   0.50009   0.51201   0.00000  Uiso   1.00
C692   C     0.01189   0.49939   0.48165   0.00000  Uiso   1.00
C693   C     0.32145   0.50061   0.51835   0.00000  Uiso   1.00
C694   C     0.15877   0.35246   0.45743   0.00000  Uiso   1.00
C695   C     0.17456   0.64753   0.54257   0.00000  Uiso   1.00
C696   C     0.15607   0.64359   0.45955   0.00000  Uiso   1.00
H697   H     0.32435   0.49775   0.44692   0.00000  Uiso   1.00
H698   H     0.07215   0.40710   0.63679   0.00000  Uiso   1.00
H699   H     0.12780   0.40929   0.60689   0.00000  Uiso   1.00
H700   H     0.06469   0.41451   0.53330   0.00000  Uiso   1.00
H701   H     0.05426   0.36810   0.56371   0.00000  Uiso   1.00
H702   H     0.01041   0.41082   0.56496   0.00000  Uiso   1.00
H703   H     0.00898   0.50224   0.55308   0.00000  Uiso   1.00
H704   H     0.14686   0.62586   0.42797   0.00000  Uiso   1.00
H705   H     0.18647   0.37413   0.57203   0.00000  Uiso   1.00
H706   H     0.20556   0.59072   0.39313   0.00000  Uiso   1.00
H707   H     0.26119   0.59289   0.36320   0.00000  Uiso   1.00
H708   H     0.32296   0.58911   0.43503   0.00000  Uiso   1.00
H709   H     0.27918   0.63190   0.43625   0.00000  Uiso   1.00
H710   H     0.26867   0.58552   0.46669   0.00000  Uiso   1.00
N711   N     0.16665   0.49999   0.61907   0.00000  Uiso   1.00
N712   N     0.16668   0.50001   0.38093   0.00000  Uiso   1.00
N713   N     0.14925   0.38293   0.37627   0.00000  Uiso   1.00
N714   N     0.18409   0.61707   0.62373   0.00000  Uiso   1.00
N715   N     0.28694   0.55272   0.61869   0.00000  Uiso   1.00
N716   N     0.04640   0.44728   0.38131   0.00000  Uiso   1.00
O717   O     0.16666   0.43892   0.53821   0.00000  Uiso   1.00
O718   O     0.08441   0.46351   0.60710   0.00000  Uiso   1.00
O719   O     0.16667   0.56108   0.46179   0.00000  Uiso   1.00
O720   O     0.16666   0.43893   0.46176   0.00000  Uiso   1.00
O721   O     0.16667   0.56107   0.53824   0.00000  Uiso   1.00
O722   O     0.09058   0.50000   0.52928   0.00000  Uiso   1.00
O723   O     0.24275   0.50000   0.47072   0.00000  Uiso   1.00
O724   O     0.09058   0.50000   0.45284   0.00000  Uiso   1.00
O725   O     0.24275   0.50000   0.54716   0.00000  Uiso   1.00
O726   O     0.24893   0.53648   0.39290   0.00000  Uiso   1.00
Zn727  Zn    0.16667   0.49999   0.55104   0.00000  Uiso   1.00
Zn728  Zn    0.16667   0.50001   0.44896   0.00000  Uiso   1.00
C729   C     0.50071   0.42005   0.49950   0.00000  Uiso   1.00
C730   C     0.51060   0.35641   0.54045   0.00000  Uiso   1.00
C731   C     0.49840   0.62418   0.50148   0.00000  Uiso   1.00
C732   C     0.50159   0.37582   0.49852   0.00000  Uiso   1.00
C733   C     0.54003   0.51933   0.36333   0.00000  Uiso   1.00
C734   C     0.45997   0.48067   0.63667   0.00000  Uiso   1.00
C735   C     0.54044   0.51856   0.64872   0.00000  Uiso   1.00
C736   C     0.45956   0.48144   0.35128   0.00000  Uiso   1.00
C737   C     0.48654   0.36970   0.41248   0.00000  Uiso   1.00
C738   C     0.51346   0.63030   0.58752   0.00000  Uiso   1.00
C739   C     0.57966   0.58003   0.39320   0.00000  Uiso   1.00
C740   C     0.49928   0.57995   0.50050   0.00000  Uiso   1.00
C741   C     0.61478   0.59769   0.43546   0.00000  Uiso   1.00
C742   C     0.42036   0.41996   0.60680   0.00000  Uiso   1.00
C743   C     0.38526   0.40230   0.56452   0.00000  Uiso   1.00
C744   C     0.58454   0.53728   0.63165   0.00000  Uiso   1.00
C745   C     0.41546   0.46271   0.36835   0.00000  Uiso   1.00
C746   C     0.40042   0.49991   0.48799   0.00000  Uiso   1.00
C747   C     0.59958   0.50009   0.51201   0.00000  Uiso   1.00
C748   C     0.34522   0.49939   0.48165   0.00000  Uiso   1.00
C749   C     0.65478   0.50061   0.51835   0.00000  Uiso   1.00
C750   C     0.49211   0.35246   0.45743   0.00000  Uiso   1.00
C751   C     0.50789   0.64753   0.54257   0.00000  Uiso   1.00
C752   C     0.48940   0.64359   0.45955   0.00000  Uiso   1.00
H753   H     0.65769   0.49775   0.44692   0.00000  Uiso   1.00
H754   H     0.40548   0.40710   0.63679   0.00000  Uiso   1.00
H755   H     0.46113   0.40929   0.60689   0.00000  Uiso   1.00
H756   H     0.39802   0.41451   0.53330   0.00000  Uiso   1.00
H757   H     0.38760   0.36810   0.56371   0.00000  Uiso   1.00
H758   H     0.34374   0.41082   0.56496   0.00000  Uiso   1.00
H759   H     0.34231   0.50224   0.55308   0.00000  Uiso   1.00
H760   H     0.48019   0.62586   0.42797   0.00000  Uiso   1.00
H761   H     0.51981   0.37413   0.57203   0.00000  Uiso   1.00
H762   H     0.53889   0.59072   0.39313   0.00000  Uiso   1.00
H763   H     0.59452   0.59289   0.36320   0.00000  Uiso   1.00
H764   H     0.65629   0.58911   0.43503   0.00000  Uiso   1.00
H765   H     0.61251   0.63190   0.43625   0.00000  Uiso   1.00
H766   H     0.60200   0.58552   0.46669   0.00000  Uiso   1.00
N767   N     0.49999   0.49999   0.61907   0.00000  Uiso   1.00
N768   N     0.50001   0.50001   0.38093   0.00000  Uiso   1.00
N769   N     0.48259   0.38293   0.37627   0.00000  Uiso   1.00
N770   N     0.51742   0.61707   0.62373   0.00000  Uiso   1.00
N771   N     0.62027   0.55272   0.61869   0.00000  Uiso   1.00
N772   N     0.37973   0.44728   0.38131   0.00000  Uiso   1.00
O773   O     0.50000   0.43892   0.53821   0.00000  Uiso   1.00
O774   O     0.41774   0.46351   0.60710   0.00000  Uiso   1.00
O775   O     0.50000   0.56108   0.46179   0.00000  Uiso   1.00
O776   O     0.50000   0.43893   0.46176   0.00000  Uiso   1.00
O777   O     0.50000   0.56107   0.53824   0.00000  Uiso   1.00
O778   O     0.42392   0.50000   0.52928   0.00000  Uiso   1.00
O779   O     0.57608   0.50000   0.47072   0.00000  Uiso   1.00
O780   O     0.42392   0.50000   0.45284   0.00000  Uiso   1.00
O781   O     0.57608   0.50000   0.54716   0.00000  Uiso   1.00
O782   O     0.58226   0.53648   0.39290   0.00000  Uiso   1.00
Zn783  Zn    0.50000   0.49999   0.55104   0.00000  Uiso   1.00
Zn784  Zn    0.50000   0.50001   0.44896   0.00000  Uiso   1.00
C785   C     0.83405   0.42005   0.49950   0.00000  Uiso   1.00
C786   C     0.84393   0.35641   0.54045   0.00000  Uiso   1.00
C787   C     0.83174   0.62418   0.50148   0.00000  Uiso   1.00
C788   C     0.83493   0.37582   0.49852   0.00000  Uiso   1.00
C789   C     0.87337   0.51933   0.36333   0.00000  Uiso   1.00
C790   C     0.79330   0.48067   0.63667   0.00000  Uiso   1.00
C791   C     0.87377   0.51856   0.64872   0.00000  Uiso   1.00
C792   C     0.79290   0.48144   0.35128   0.00000  Uiso   1.00
C793   C     0.81988   0.36970   0.41248   0.00000  Uiso   1.00
C794   C     0.84679   0.63030   0.58752   0.00000  Uiso   1.00
C795   C     0.91299   0.58003   0.39320   0.00000  Uiso   1.00
C796   C     0.83262   0.57995   0.50050   0.00000  Uiso   1.00
C797   C     0.94812   0.59769   0.43546   0.00000  Uiso   1.00
C798   C     0.75369   0.41996   0.60680   0.00000  Uiso   1.00
C799   C     0.71860   0.40230   0.56452   0.00000  Uiso   1.00
C800   C     0.91787   0.53728   0.63165   0.00000  Uiso   1.00
C801   C     0.74880   0.46271   0.36835   0.00000  Uiso   1.00
C802   C     0.73375   0.49991   0.48799   0.00000  Uiso   1.00
C803   C     0.93292   0.50009   0.51201   0.00000  Uiso   1.00
C804   C     0.67855   0.49939   0.48165   0.00000  Uiso   1.00
C805   C     0.98811   0.50061   0.51835   0.00000  Uiso   1.00
C806   C     0.82544   0.35246   0.45743   0.00000  Uiso   1.00
C807   C     0.84123   0.64753   0.54257   0.00000  Uiso   1.00
C808   C     0.82273   0.64359   0.45955   0.00000  Uiso   1.00
H809   H     0.99102   0.49775   0.44692   0.00000  Uiso   1.00
H810   H     0.73882   0.40710   0.63679   0.00000  Uiso   1.00
H811   H     0.79447   0.40929   0.60689   0.00000  Uiso   1.00
H812   H     0.73135   0.41451   0.53330   0.00000  Uiso   1.00
H813   H     0.72093   0.36810   0.56371   0.00000  Uiso   1.00
H814   H     0.67708   0.41082   0.56496   0.00000  Uiso   1.00
H815   H     0.67565   0.50224   0.55308   0.00000  Uiso   1.00
H816   H     0.81353   0.62586   0.42797   0.00000  Uiso   1.00
H817   H     0.85314   0.37413   0.57203   0.00000  Uiso   1.00
H818   H     0.87223   0.59072   0.39313   0.00000  Uiso   1.00
H819   H     0.92785   0.59289   0.36320   0.00000  Uiso   1.00
H820   H     0.98962   0.58911   0.43503   0.00000  Uiso   1.00
H821   H     0.94585   0.63190   0.43625   0.00000  Uiso   1.00
H822   H     0.93534   0.58552   0.46669   0.00000  Uiso   1.00
N823   N     0.83332   0.49999   0.61907   0.00000  Uiso   1.00
N824   N     0.83335   0.50001   0.38093   0.00000  Uiso   1.00
N825   N     0.81592   0.38293   0.37627   0.00000  Uiso   1.00
N826   N     0.85075   0.61707   0.62373   0.00000  Uiso   1.00
N827   N     0.95361   0.55272   0.61869   0.00000  Uiso   1.00
N828   N     0.71306   0.44728   0.38131   0.00000  Uiso   1.00
O829   O     0.83333   0.43892   0.53821   0.00000  Uiso   1.00
O830   O     0.75107   0.46351   0.60710   0.00000  Uiso   1.00
O831   O     0.83334   0.56108   0.46179   0.00000  Uiso   1.00
O832   O     0.83333   0.43893   0.46176   0.00000  Uiso   1.00
O833   O     0.83334   0.56107   0.53824   0.00000  Uiso   1.00
O834   O     0.75725   0.50000   0.52928   0.00000  Uiso   1.00
O835   O     0.90942   0.50000   0.47072   0.00000  Uiso   1.00
O836   O     0.75725   0.50000   0.45284   0.00000  Uiso   1.00
O837   O     0.90942   0.50000   0.54716   0.00000  Uiso   1.00
O838   O     0.91560   0.53648   0.39290   0.00000  Uiso   1.00
Zn839  Zn    0.83333   0.49999   0.55104   0.00000  Uiso   1.00
Zn840  Zn    0.83333   0.50001   0.44896   0.00000  Uiso   1.00
C841   C     0.16738   0.75338   0.49950   0.00000  Uiso   1.00
C842   C     0.17727   0.68974   0.54045   0.00000  Uiso   1.00
C843   C     0.16507   0.95751   0.50148   0.00000  Uiso   1.00
C844   C     0.16826   0.70915   0.49852   0.00000  Uiso   1.00
C845   C     0.20670   0.85267   0.36333   0.00000  Uiso   1.00
C846   C     0.12663   0.81400   0.63667   0.00000  Uiso   1.00
C847   C     0.20710   0.85189   0.64872   0.00000  Uiso   1.00
C848   C     0.12623   0.81477   0.35128   0.00000  Uiso   1.00
C849   C     0.15321   0.70303   0.41248   0.00000  Uiso   1.00
C850   C     0.18013   0.96363   0.58752   0.00000  Uiso   1.00
C851   C     0.24633   0.91337   0.39320   0.00000  Uiso   1.00
C852   C     0.16595   0.91329   0.50050   0.00000  Uiso   1.00
C853   C     0.28145   0.93103   0.43546   0.00000  Uiso   1.00
C854   C     0.08702   0.75329   0.60680   0.00000  Uiso   1.00
C855   C     0.05193   0.73563   0.56452   0.00000  Uiso   1.00
C856   C     0.25120   0.87062   0.63165   0.00000  Uiso   1.00
C857   C     0.08213   0.79605   0.36835   0.00000  Uiso   1.00
C858   C     0.06708   0.83324   0.48799   0.00000  Uiso   1.00
C859   C     0.26625   0.83342   0.51201   0.00000  Uiso   1.00
C860   C     0.01189   0.83272   0.48165   0.00000  Uiso   1.00
C861   C     0.32145   0.83394   0.51835   0.00000  Uiso   1.00
C862   C     0.15877   0.68580   0.45743   0.00000  Uiso   1.00
C863   C     0.17456   0.98087   0.54257   0.00000  Uiso   1.00
C864   C     0.15607   0.97692   0.45955   0.00000  Uiso   1.00
H865   H     0.32435   0.83109   0.44692   0.00000  Uiso   1.00
H866   H     0.07215   0.74043   0.63679   0.00000  Uiso   1.00
H867   H     0.12780   0.74262   0.60689   0.00000  Uiso   1.00
H868   H     0.06469   0.74785   0.53330   0.00000  Uiso   1.00
H869   H     0.05426   0.70143   0.56371   0.00000  Uiso   1.00
H870   H     0.01041   0.74416   0.56496   0.00000  Uiso   1.00
H871   H     0.00898   0.83558   0.55308   0.00000  Uiso   1.00
H872   H     0.14686   0.95920   0.42797   0.00000  Uiso   1.00
H873   H     0.18647   0.70747   0.57203   0.00000  Uiso   1.00
H874   H     0.20556   0.92405   0.39313   0.00000  Uiso   1.00
H875   H     0.26119   0.92622   0.36320   0.00000  Uiso   1.00
H876   H     0.32296   0.92245   0.43503   0.00000  Uiso   1.00
H877   H     0.27918   0.96523   0.43625   0.00000  Uiso   1.00
H878   H     0.26867   0.91885   0.46669   0.00000  Uiso   1.00
N879   N     0.16665   0.83332   0.61907   0.00000  Uiso   1.00
N880   N     0.16668   0.83334   0.38093   0.00000  Uiso   1.00
N881   N     0.14925   0.71626   0.37627   0.00000  Uiso   1.00
N882   N     0.18409   0.95040   0.62373   0.00000  Uiso   1.00
N883   N     0.28694   0.88605   0.61869   0.00000  Uiso   1.00
N884   N     0.04640   0.78061   0.38131   0.00000  Uiso   1.00
O885   O     0.16666   0.77225   0.53821   0.00000  Uiso   1.00
O886   O     0.08441   0.79684   0.60710   0.00000  Uiso   1.00
O887   O     0.16667   0.89442   0.46179   0.00000  Uiso   1.00
O888   O     0.16666   0.77226   0.46176   0.00000  Uiso   1.00
O889   O     0.16667   0.89441   0.53824   0.00000  Uiso   1.00
O890   O     0.09058   0.83333   0.52928   0.00000  Uiso   1.00
O891   O     0.24275   0.83334   0.47072   0.00000  Uiso   1.00
O892   O     0.09058   0.83334   0.45284   0.00000  Uiso   1.00
O893   O     0.24275   0.83333   0.54716   0.00000  Uiso   1.00
O894   O     0.24893   0.86982   0.39290   0.00000  Uiso   1.00
Zn895  Zn    0.16667   0.83333   0.55104   0.00000  Uiso   1.00
Zn896  Zn    0.16667   0.83334   0.44896   0.00000  Uiso   1.00
C897   C     0.50071   0.75338   0.49950   0.00000  Uiso   1.00
C898   C     0.51060   0.68974   0.54045   0.00000  Uiso   1.00
C899   C     0.49840   0.95751   0.50148   0.00000  Uiso   1.00
C900   C     0.50159   0.70915   0.49852   0.00000  Uiso   1.00
C901   C     0.54003   0.85267   0.36333   0.00000  Uiso   1.00
C902   C     0.45997   0.81400   0.63667   0.00000  Uiso   1.00
C903   C     0.54044   0.85189   0.64872   0.00000  Uiso   1.00
C904   C     0.45956   0.81477   0.35128   0.00000  Uiso   1.00
C905   C     0.48654   0.70303   0.41248   0.00000  Uiso   1.00
C906   C     0.51346   0.96363   0.58752   0.00000  Uiso   1.00
C907   C     0.57966   0.91337   0.39320   0.00000  Uiso   1.00
C908   C     0.49928   0.91329   0.50050   0.00000  Uiso   1.00
C909   C     0.61478   0.93103   0.43546   0.00000  Uiso   1.00
C910   C     0.42036   0.75329   0.60680   0.00000  Uiso   1.00
C911   C     0.38526   0.73563   0.56452   0.00000  Uiso   1.00
C912   C     0.58454   0.87062   0.63165   0.00000  Uiso   1.00
C913   C     0.41546   0.79605   0.36835   0.00000  Uiso   1.00
C914   C     0.40042   0.83324   0.48799   0.00000  Uiso   1.00
C915   C     0.59958   0.83342   0.51201   0.00000  Uiso   1.00
C916   C     0.34522   0.83272   0.48165   0.00000  Uiso   1.00
C917   C     0.65478   0.83394   0.51835   0.00000  Uiso   1.00
C918   C     0.49211   0.68580   0.45743   0.00000  Uiso   1.00
C919   C     0.50789   0.98087   0.54257   0.00000  Uiso   1.00
C920   C     0.48940   0.97692   0.45955   0.00000  Uiso   1.00
H921   H     0.65769   0.83109   0.44692   0.00000  Uiso   1.00
H922   H     0.40548   0.74043   0.63679   0.00000  Uiso   1.00
H923   H     0.46113   0.74262   0.60689   0.00000  Uiso   1.00
H924   H     0.39802   0.74785   0.53330   0.00000  Uiso   1.00
H925   H     0.38760   0.70143   0.56371   0.00000  Uiso   1.00
H926   H     0.34374   0.74416   0.56496   0.00000  Uiso   1.00
H927   H     0.34231   0.83558   0.55308   0.00000  Uiso   1.00
H928   H     0.48019   0.95920   0.42797   0.00000  Uiso   1.00
H929   H     0.51981   0.70747   0.57203   0.00000  Uiso   1.00
H930   H     0.53889   0.92405   0.39313   0.00000  Uiso   1.00
H931   H     0.59452   0.92622   0.36320   0.00000  Uiso   1.00
H932   H     0.65629   0.92245   0.43503   0.00000  Uiso   1.00
H933   H     0.61251   0.96523   0.43625   0.00000  Uiso   1.00
H934   H     0.60200   0.91885   0.46669   0.00000  Uiso   1.00
N935   N     0.49999   0.83332   0.61907   0.00000  Uiso   1.00
N936   N     0.50001   0.83334   0.38093   0.00000  Uiso   1.00
N937   N     0.48259   0.71626   0.37627   0.00000  Uiso   1.00
N938   N     0.51742   0.95040   0.62373   0.00000  Uiso   1.00
N939   N     0.62027   0.88605   0.61869   0.00000  Uiso   1.00
N940   N     0.37973   0.78061   0.38131   0.00000  Uiso   1.00
O941   O     0.50000   0.77225   0.53821   0.00000  Uiso   1.00
O942   O     0.41774   0.79684   0.60710   0.00000  Uiso   1.00
O943   O     0.50000   0.89442   0.46179   0.00000  Uiso   1.00
O944   O     0.50000   0.77226   0.46176   0.00000  Uiso   1.00
O945   O     0.50000   0.89441   0.53824   0.00000  Uiso   1.00
O946   O     0.42392   0.83333   0.52928   0.00000  Uiso   1.00
O947   O     0.57608   0.83334   0.47072   0.00000  Uiso   1.00
O948   O     0.42392   0.83334   0.45284   0.00000  Uiso   1.00
O949   O     0.57608   0.83333   0.54716   0.00000  Uiso   1.00
O950   O     0.58226   0.86982   0.39290   0.00000  Uiso   1.00
Zn951  Zn    0.50000   0.83333   0.55104   0.00000  Uiso   1.00
Zn952  Zn    0.50000   0.83334   0.44896   0.00000  Uiso   1.00
C953   C     0.83405   0.75338   0.49950   0.00000  Uiso   1.00
C954   C     0.84393   0.68974   0.54045   0.00000  Uiso   1.00
C955   C     0.83174   0.95751   0.50148   0.00000  Uiso   1.00
C956   C     0.83493   0.70915   0.49852   0.00000  Uiso   1.00
C957   C     0.87337   0.85267   0.36333   0.00000  Uiso   1.00
C958   C     0.79330   0.81400   0.63667   0.00000  Uiso   1.00
C959   C     0.87377   0.85189   0.64872   0.00000  Uiso   1.00
C960   C     0.79290   0.81477   0.35128   0.00000  Uiso   1.00
C961   C     0.81988   0.70303   0.41248   0.00000  Uiso   1.00
C962   C     0.84679   0.96363   0.58752   0.00000  Uiso   1.00
C963   C     0.91299   0.91337   0.39320   0.00000  Uiso   1.00
C964   C     0.83262   0.91329   0.50050   0.00000  Uiso   1.00
C965   C     0.94812   0.93103   0.43546   0.00000  Uiso   1.00
C966   C     0.75369   0.75329   0.60680   0.00000  Uiso   1.00
C967   C     0.71860   0.73563   0.56452   0.00000  Uiso   1.00
C968   C     0.91787   0.87062   0.63165   0.00000  Uiso   1.00
C969   C     0.74880   0.79605   0.36835   0.00000  Uiso   1.00
C970   C     0.73375   0.83324   0.48799   0.00000  Uiso   1.00
C971   C     0.93292   0.83342   0.51201   0.00000  Uiso   1.00
C972   C     0.67855   0.83272   0.48165   0.00000  Uiso   1.00
C973   C     0.98811   0.83394   0.51835   0.00000  Uiso   1.00
C974   C     0.82544   0.68580   0.45743   0.00000  Uiso   1.00
C975   C     0.84123   0.98087   0.54257   0.00000  Uiso   1.00
C976   C     0.82273   0.97692   0.45955   0.00000  Uiso   1.00
H977   H     0.99102   0.83109   0.44692   0.00000  Uiso   1.00
H978   H     0.73882   0.74043   0.63679   0.00000  Uiso   1.00
H979   H     0.79447   0.74262   0.60689   0.00000  Uiso   1.00
H980   H     0.73135   0.74785   0.53330   0.00000  Uiso   1.00
H981   H     0.72093   0.70143   0.56371   0.00000  Uiso   1.00
H982   H     0.67708   0.74416   0.56496   0.00000  Uiso   1.00
H983   H     0.67565   0.83558   0.55308   0.00000  Uiso   1.00
H984   H     0.81353   0.95920   0.42797   0.00000  Uiso   1.00
H985   H     0.85314   0.70747   0.57203   0.00000  Uiso   1.00
H986   H     0.87223   0.92405   0.39313   0.00000  Uiso   1.00
H987   H     0.92785   0.92622   0.36320   0.00000  Uiso   1.00
H988   H     0.98962   0.92245   0.43503   0.00000  Uiso   1.00
H989   H     0.94585   0.96523   0.43625   0.00000  Uiso   1.00
H990   H     0.93534   0.91885   0.46669   0.00000  Uiso   1.00
N991   N     0.83332   0.83332   0.61907   0.00000  Uiso   1.00
N992   N     0.83335   0.83334   0.38093   0.00000  Uiso   1.00
N993   N     0.81592   0.71626   0.37627   0.00000  Uiso   1.00
N994   N     0.85075   0.95040   0.62373   0.00000  Uiso   1.00
N995   N     0.95361   0.88605   0.61869   0.00000  Uiso   1.00
N996   N     0.71306   0.78061   0.38131   0.00000  Uiso   1.00
O997   O     0.83333   0.77225   0.53821   0.00000  Uiso   1.00
O998   O     0.75107   0.79684   0.60710   0.00000  Uiso   1.00
O999   O     0.83334   0.89442   0.46179   0.00000  Uiso   1.00
O1000  O     0.83333   0.77226   0.46176   0.00000  Uiso   1.00
O1001  O     0.83334   0.89441   0.53824   0.00000  Uiso   1.00
O1002  O     0.75725   0.83333   0.52928   0.00000  Uiso   1.00
O1003  O     0.90942   0.83334   0.47072   0.00000  Uiso   1.00
O1004  O     0.75725   0.83334   0.45284   0.00000  Uiso   1.00
O1005  O     0.90942   0.83333   0.54716   0.00000  Uiso   1.00
O1006  O     0.91560   0.86982   0.39290   0.00000  Uiso   1.00
Zn1007 Zn    0.83333   0.83333   0.55104   0.00000  Uiso   1.00
Zn1008 Zn    0.83333   0.83334   0.44896   0.00000  Uiso   1.00
C1009  C     0.16738   0.08671   0.83284   0.00000  Uiso   1.00
C1010  C     0.17727   0.02307   0.87378   0.00000  Uiso   1.00
C1011  C     0.16507   0.29085   0.83482   0.00000  Uiso   1.00
C1012  C     0.16826   0.04249   0.83185   0.00000  Uiso   1.00
C1013  C     0.20670   0.18600   0.69667   0.00000  Uiso   1.00
C1014  C     0.12663   0.14733   0.97000   0.00000  Uiso   1.00
C1015  C     0.20710   0.18523   0.98205   0.00000  Uiso   1.00
C1016  C     0.12623   0.14811   0.68462   0.00000  Uiso   1.00
C1017  C     0.15321   0.03636   0.74581   0.00000  Uiso   1.00
C1018  C     0.18013   0.29697   0.92086   0.00000  Uiso   1.00
C1019  C     0.24633   0.24670   0.72653   0.00000  Uiso   1.00
C1020  C     0.16595   0.24662   0.83383   0.00000  Uiso   1.00
C1021  C     0.28145   0.26436   0.76880   0.00000  Uiso   1.00
C1022  C     0.08702   0.08663   0.94014   0.00000  Uiso   1.00
C1023  C     0.05193   0.06896   0.89786   0.00000  Uiso   1.00
C1024  C     0.25120   0.20395   0.96498   0.00000  Uiso   1.00
C1025  C     0.08213   0.12938   0.70168   0.00000  Uiso   1.00
C1026  C     0.06708   0.16658   0.82133   0.00000  Uiso   1.00
C1027  C     0.26625   0.16676   0.84534   0.00000  Uiso   1.00
C1028  C     0.01189   0.16606   0.81499   0.00000  Uiso   1.00
C1029  C     0.32145   0.16728   0.85168   0.00000  Uiso   1.00
C1030  C     0.15877   0.01913   0.79076   0.00000  Uiso   1.00
C1031  C     0.17456   0.31420   0.87590   0.00000  Uiso   1.00
C1032  C     0.15607   0.31026   0.79288   0.00000  Uiso   1.00
H1033  H     0.32435   0.16442   0.78025   0.00000  Uiso   1.00
H1034  H     0.07215   0.07376   0.97012   0.00000  Uiso   1.00
H1035  H     0.12780   0.07595   0.94022   0.00000  Uiso   1.00
H1036  H     0.06469   0.08118   0.86664   0.00000  Uiso   1.00
H1037  H     0.05426   0.03477   0.89704   0.00000  Uiso   1.00
H1038  H     0.01041   0.07749   0.89829   0.00000  Uiso   1.00
H1039  H     0.00898   0.16891   0.88642   0.00000  Uiso   1.00
H1040  H     0.14686   0.29253   0.76130   0.00000  Uiso   1.00
H1041  H     0.18647   0.04080   0.90537   0.00000  Uiso   1.00
H1042  H     0.20556   0.25738   0.72646   0.00000  Uiso   1.00
H1043  H     0.26119   0.25956   0.69654   0.00000  Uiso   1.00
H1044  H     0.32296   0.25578   0.76836   0.00000  Uiso   1.00
H1045  H     0.27918   0.29856   0.76958   0.00000  Uiso   1.00
H1046  H     0.26867   0.25218   0.80003   0.00000  Uiso   1.00
N1047  N     0.16665   0.16666   0.95240   0.00000  Uiso   1.00
N1048  N     0.16668   0.16668   0.71427   0.00000  Uiso   1.00
N1049  N     0.14925   0.04960   0.70960   0.00000  Uiso   1.00
N1050  N     0.18409   0.28373   0.95706   0.00000  Uiso   1.00
N1051  N     0.28694   0.21938   0.95202   0.00000  Uiso   1.00
N1052  N     0.04640   0.11394   0.71464   0.00000  Uiso   1.00
O1053  O     0.16666   0.10558   0.87154   0.00000  Uiso   1.00
O1054  O     0.08441   0.13018   0.94043   0.00000  Uiso   1.00
O1055  O     0.16667   0.22775   0.79513   0.00000  Uiso   1.00
O1056  O     0.16666   0.10559   0.79510   0.00000  Uiso   1.00
O1057  O     0.16667   0.22774   0.87157   0.00000  Uiso   1.00
O1058  O     0.09058   0.16666   0.86261   0.00000  Uiso   1.00
O1059  O     0.24275   0.16667   0.80405   0.00000  Uiso   1.00
O1060  O     0.09058   0.16667   0.78617   0.00000  Uiso   1.00
O1061  O     0.24275   0.16666   0.88050   0.00000  Uiso   1.00
O1062  O     0.24893   0.20315   0.72624   0.00000  Uiso   1.00
Zn1063 Zn    0.16667   0.16666   0.88437   0.00000  Uiso   1.00
Zn1064 Zn    0.16667   0.16667   0.78229   0.00000  Uiso   1.00
C1065  C     0.50071   0.08671   0.83284   0.00000  Uiso   1.00
C1066  C     0.51060   0.02307   0.87378   0.00000  Uiso   1.00
C1067  C     0.49840   0.29085   0.83482   0.00000  Uiso   1.00
C1068  C     0.50159   0.04249   0.83185   0.00000  Uiso   1.00
C1069  C     0.54003   0.18600   0.69667   0.00000  Uiso   1.00
C1070  C     0.45997   0.14733   0.97000   0.00000  Uiso   1.00
C1071  C     0.54044   0.18523   0.98205   0.00000  Uiso   1.00
C1072  C     0.45956   0.14811   0.68462   0.00000  Uiso   1.00
C1073  C     0.48654   0.03636   0.74581   0.00000  Uiso   1.00
C1074  C     0.51346   0.29697   0.92086   0.00000  Uiso   1.00
C1075  C     0.57966   0.24670   0.72653   0.00000  Uiso   1.00
C1076  C     0.49928   0.24662   0.83383   0.00000  Uiso   1.00
C1077  C     0.61478   0.26436   0.76880   0.00000  Uiso   1.00
C1078  C     0.42036   0.08663   0.94014   0.00000  Uiso   1.00
C1079  C     0.38526   0.06896   0.89786   0.00000  Uiso   1.00
C1080  C     0.58454   0.20395   0.96498   0.00000  Uiso   1.00
C1081  C     0.41546   0.12938   0.70168   0.00000  Uiso   1.00
C1082  C     0.40042   0.16658   0.82133   0.00000  Uiso   1.00
C1083  C     0.59958   0.16676   0.84534   0.00000  Uiso   1.00
C1084  C     0.34522   0.16606   0.81499   0.00000  Uiso   1.00
C1085  C     0.65478   0.16728   0.85168   0.00000  Uiso   1.00
C1086  C     0.49211   0.01913   0.79076   0.00000  Uiso   1.00
C1087  C     0.50789   0.31420   0.87590   0.00000  Uiso   1.00
C1088  C     0.48940   0.31026   0.79288   0.00000  Uiso   1.00
H1089  H     0.65769   0.16442   0.78025   0.00000  Uiso   1.00
H1090  H     0.40548   0.07376   0.97012   0.00000  Uiso   1.00
H1091  H     0.46113   0.07595   0.94022   0.00000  Uiso   1.00
H1092  H     0.39802   0.08118   0.86664   0.00000  Uiso   1.00
H1093  H     0.38760   0.03477   0.89704   0.00000  Uiso   1.00
H1094  H     0.34374   0.07749   0.89829   0.00000  Uiso   1.00
H1095  H     0.34231   0.16891   0.88642   0.00000  Uiso   1.00
H1096  H     0.48019   0.29253   0.76130   0.00000  Uiso   1.00
H1097  H     0.51981   0.04080   0.90537   0.00000  Uiso   1.00
H1098  H     0.53889   0.25738   0.72646   0.00000  Uiso   1.00
H1099  H     0.59452   0.25956   0.69654   0.00000  Uiso   1.00
H1100  H     0.65629   0.25578   0.76836   0.00000  Uiso   1.00
H1101  H     0.61251   0.29856   0.76958   0.00000  Uiso   1.00
H1102  H     0.60200   0.25218   0.80003   0.00000  Uiso   1.00
N1103  N     0.49999   0.16666   0.95240   0.00000  Uiso   1.00
N1104  N     0.50001   0.16668   0.71427   0.00000  Uiso   1.00
N1105  N     0.48259   0.04960   0.70960   0.00000  Uiso   1.00
N1106  N     0.51742   0.28373   0.95706   0.00000  Uiso   1.00
N1107  N     0.62027   0.21938   0.95202   0.00000  Uiso   1.00
N1108  N     0.37973   0.11394   0.71464   0.00000  Uiso   1.00
O1109  O     0.50000   0.10558   0.87154   0.00000  Uiso   1.00
O1110  O     0.41774   0.13018   0.94043   0.00000  Uiso   1.00
O1111  O     0.50000   0.22775   0.79513   0.00000  Uiso   1.00
O1112  O     0.50000   0.10559   0.79510   0.00000  Uiso   1.00
O1113  O     0.50000   0.22774   0.87157   0.00000  Uiso   1.00
O1114  O     0.42392   0.16666   0.86261   0.00000  Uiso   1.00
O1115  O     0.57608   0.16667   0.80405   0.00000  Uiso   1.00
O1116  O     0.42392   0.16667   0.78617   0.00000  Uiso   1.00
O1117  O     0.57608   0.16666   0.88050   0.00000  Uiso   1.00
O1118  O     0.58226   0.20315   0.72624   0.00000  Uiso   1.00
Zn1119 Zn    0.50000   0.16666   0.88437   0.00000  Uiso   1.00
Zn1120 Zn    0.50000   0.16667   0.78229   0.00000  Uiso   1.00
C1121  C     0.83405   0.08671   0.83284   0.00000  Uiso   1.00
C1122  C     0.84393   0.02307   0.87378   0.00000  Uiso   1.00
C1123  C     0.83174   0.29085   0.83482   0.00000  Uiso   1.00
C1124  C     0.83493   0.04249   0.83185   0.00000  Uiso   1.00
C1125  C     0.87337   0.18600   0.69667   0.00000  Uiso   1.00
C1126  C     0.79330   0.14733   0.97000   0.00000  Uiso   1.00
C1127  C     0.87377   0.18523   0.98205   0.00000  Uiso   1.00
C1128  C     0.79290   0.14811   0.68462   0.00000  Uiso   1.00
C1129  C     0.81988   0.03636   0.74581   0.00000  Uiso   1.00
C1130  C     0.84679   0.29697   0.92086   0.00000  Uiso   1.00
C1131  C     0.91299   0.24670   0.72653   0.00000  Uiso   1.00
C1132  C     0.83262   0.24662   0.83383   0.00000  Uiso   1.00
C1133  C     0.94812   0.26436   0.76880   0.00000  Uiso   1.00
C1134  C     0.75369   0.08663   0.94014   0.00000  Uiso   1.00
C1135  C     0.71860   0.06896   0.89786   0.00000  Uiso   1.00
C1136  C     0.91787   0.20395   0.96498   0.00000  Uiso   1.00
C1137  C     0.74880   0.12938   0.70168   0.00000  Uiso   1.00
C1138  C     0.73375   0.16658   0.82133   0.00000  Uiso   1.00
C1139  C     0.93292   0.16676   0.84534   0.00000  Uiso   1.00
C1140  C     0.67855   0.16606   0.81499   0.00000  Uiso   1.00
C1141  C     0.98811   0.16728   0.85168   0.00000  Uiso   1.00
C1142  C     0.82544   0.01913   0.79076   0.00000  Uiso   1.00
C1143  C     0.84123   0.31420   0.87590   0.00000  Uiso   1.00
C1144  C     0.82273   0.31026   0.79288   0.00000  Uiso   1.00
H1145  H     0.99102   0.16442   0.78025   0.00000  Uiso   1.00
H1146  H     0.73882   0.07376   0.97012   0.00000  Uiso   1.00
H1147  H     0.79447   0.07595   0.94022   0.00000  Uiso   1.00
H1148  H     0.73135   0.08118   0.86664   0.00000  Uiso   1.00
H1149  H     0.72093   0.03477   0.89704   0.00000  Uiso   1.00
H1150  H     0.67708   0.07749   0.89829   0.00000  Uiso   1.00
H1151  H     0.67565   0.16891   0.88642   0.00000  Uiso   1.00
H1152  H     0.81353   0.29253   0.76130   0.00000  Uiso   1.00
H1153  H     0.85314   0.04080   0.90537   0.00000  Uiso   1.00
H1154  H     0.87223   0.25738   0.72646   0.00000  Uiso   1.00
H1155  H     0.92785   0.25956   0.69654   0.00000  Uiso   1.00
H1156  H     0.98962   0.25578   0.76836   0.00000  Uiso   1.00
H1157  H     0.94585   0.29856   0.76958   0.00000  Uiso   1.00
H1158  H     0.93534   0.25218   0.80003   0.00000  Uiso   1.00
N1159  N     0.83332   0.16666   0.95240   0.00000  Uiso   1.00
N1160  N     0.83335   0.16668   0.71427   0.00000  Uiso   1.00
N1161  N     0.81592   0.04960   0.70960   0.00000  Uiso   1.00
N1162  N     0.85075   0.28373   0.95706   0.00000  Uiso   1.00
N1163  N     0.95361   0.21938   0.95202   0.00000  Uiso   1.00
N1164  N     0.71306   0.11394   0.71464   0.00000  Uiso   1.00
O1165  O     0.83333   0.10558   0.87154   0.00000  Uiso   1.00
O1166  O     0.75107   0.13018   0.94043   0.00000  Uiso   1.00
O1167  O     0.83334   0.22775   0.79513   0.00000  Uiso   1.00
O1168  O     0.83333   0.10559   0.79510   0.00000  Uiso   1.00
O1169  O     0.83334   0.22774   0.87157   0.00000  Uiso   1.00
O1170  O     0.75725   0.16666   0.86261   0.00000  Uiso   1.00
O1171  O     0.90942   0.16667   0.80405   0.00000  Uiso   1.00
O1172  O     0.75725   0.16667   0.78617   0.00000  Uiso   1.00
O1173  O     0.90942   0.16666   0.88050   0.00000  Uiso   1.00
O1174  O     0.91560   0.20315   0.72624   0.00000  Uiso   1.00
Zn1175 Zn    0.83333   0.16666   0.88437   0.00000  Uiso   1.00
Zn1176 Zn    0.83333   0.16667   0.78229   0.00000  Uiso   1.00
C1177  C     0.16738   0.42005   0.83284   0.00000  Uiso   1.00
C1178  C     0.17727   0.35641   0.87378   0.00000  Uiso   1.00
C1179  C     0.16507   0.62418   0.83482   0.00000  Uiso   1.00
C1180  C     0.16826   0.37582   0.83185   0.00000  Uiso   1.00
C1181  C     0.20670   0.51933   0.69667   0.00000  Uiso   1.00
C1182  C     0.12663   0.48067   0.97000   0.00000  Uiso   1.00
C1183  C     0.20710   0.51856   0.98205   0.00000  Uiso   1.00
C1184  C     0.12623   0.48144   0.68462   0.00000  Uiso   1.00
C1185  C     0.15321   0.36970   0.74581   0.00000  Uiso   1.00
C1186  C     0.18013   0.63030   0.92086   0.00000  Uiso   1.00
C1187  C     0.24633   0.58003   0.72653   0.00000  Uiso   1.00
C1188  C     0.16595   0.57995   0.83383   0.00000  Uiso   1.00
C1189  C     0.28145   0.59769   0.76880   0.00000  Uiso   1.00
C1190  C     0.08702   0.41996   0.94014   0.00000  Uiso   1.00
C1191  C     0.05193   0.40230   0.89786   0.00000  Uiso   1.00
C1192  C     0.25120   0.53728   0.96498   0.00000  Uiso   1.00
C1193  C     0.08213   0.46271   0.70168   0.00000  Uiso   1.00
C1194  C     0.06708   0.49991   0.82133   0.00000  Uiso   1.00
C1195  C     0.26625   0.50009   0.84534   0.00000  Uiso   1.00
C1196  C     0.01189   0.49939   0.81499   0.00000  Uiso   1.00
C1197  C     0.32145   0.50061   0.85168   0.00000  Uiso   1.00
C1198  C     0.15877   0.35246   0.79076   0.00000  Uiso   1.00
C1199  C     0.17456   0.64753   0.87590   0.00000  Uiso   1.00
C1200  C     0.15607   0.64359   0.79288   0.00000  Uiso   1.00
H1201  H     0.32435   0.49775   0.78025   0.00000  Uiso   1.00
H1202  H     0.07215   0.40710   0.97012   0.00000  Uiso   1.00
H1203  H     0.12780   0.40929   0.94022   0.00000  Uiso   1.00
H1204  H     0.06469   0.41451   0.86664   0.00000  Uiso   1.00
H1205  H     0.05426   0.36810   0.89704   0.00000  Uiso   1.00
H1206  H     0.01041   0.41082   0.89829   0.00000  Uiso   1.00
H1207  H     0.00898   0.50224   0.88642   0.00000  Uiso   1.00
H1208  H     0.14686   0.62586   0.76130   0.00000  Uiso   1.00
H1209  H     0.18647   0.37413   0.90537   0.00000  Uiso   1.00
H1210  H     0.20556   0.59072   0.72646   0.00000  Uiso   1.00
H1211  H     0.26119   0.59289   0.69654   0.00000  Uiso   1.00
H1212  H     0.32296   0.58911   0.76836   0.00000  Uiso   1.00
H1213  H     0.27918   0.63190   0.76958   0.00000  Uiso   1.00
H1214  H     0.26867   0.58552   0.80003   0.00000  Uiso   1.00
N1215  N     0.16665   0.49999   0.95240   0.00000  Uiso   1.00
N1216  N     0.16668   0.50001   0.71427   0.00000  Uiso   1.00
N1217  N     0.14925   0.38293   0.70960   0.00000  Uiso   1.00
N1218  N     0.18409   0.61707   0.95706   0.00000  Uiso   1.00
N1219  N     0.28694   0.55272   0.95202   0.00000  Uiso   1.00
N1220  N     0.04640   0.44728   0.71464   0.00000  Uiso   1.00
O1221  O     0.16666   0.43892   0.87154   0.00000  Uiso   1.00
O1222  O     0.08441   0.46351   0.94043   0.00000  Uiso   1.00
O1223  O     0.16667   0.56108   0.79513   0.00000  Uiso   1.00
O1224  O     0.16666   0.43893   0.79510   0.00000  Uiso   1.00
O1225  O     0.16667   0.56107   0.87157   0.00000  Uiso   1.00
O1226  O     0.09058   0.50000   0.86261   0.00000  Uiso   1.00
O1227  O     0.24275   0.50000   0.80405   0.00000  Uiso   1.00
O1228  O     0.09058   0.50000   0.78617   0.00000  Uiso   1.00
O1229  O     0.24275   0.50000   0.88050   0.00000  Uiso   1.00
O1230  O     0.24893   0.53648   0.72624   0.00000  Uiso   1.00
Zn1231 Zn    0.16667   0.49999   0.88437   0.00000  Uiso   1.00
Zn1232 Zn    0.16667   0.50001   0.78229   0.00000  Uiso   1.00
C1233  C     0.50071   0.42005   0.83284   0.00000  Uiso   1.00
C1234  C     0.51060   0.35641   0.87378   0.00000  Uiso   1.00
C1235  C     0.49840   0.62418   0.83482   0.00000  Uiso   1.00
C1236  C     0.50159   0.37582   0.83185   0.00000  Uiso   1.00
C1237  C     0.54003   0.51933   0.69667   0.00000  Uiso   1.00
C1238  C     0.45997   0.48067   0.97000   0.00000  Uiso   1.00
C1239  C     0.54044   0.51856   0.98205   0.00000  Uiso   1.00
C1240  C     0.45956   0.48144   0.68462   0.00000  Uiso   1.00
C1241  C     0.48654   0.36970   0.74581   0.00000  Uiso   1.00
C1242  C     0.51346   0.63030   0.92086   0.00000  Uiso   1.00
C1243  C     0.57966   0.58003   0.72653   0.00000  Uiso   1.00
C1244  C     0.49928   0.57995   0.83383   0.00000  Uiso   1.00
C1245  C     0.61478   0.59769   0.76880   0.00000  Uiso   1.00
C1246  C     0.42036   0.41996   0.94014   0.00000  Uiso   1.00
C1247  C     0.38526   0.40230   0.89786   0.00000  Uiso   1.00
C1248  C     0.58454   0.53728   0.96498   0.00000  Uiso   1.00
C1249  C     0.41546   0.46271   0.70168   0.00000  Uiso   1.00
C1250  C     0.40042   0.49991   0.82133   0.00000  Uiso   1.00
C1251  C     0.59958   0.50009   0.84534   0.00000  Uiso   1.00
C1252  C     0.34522   0.49939   0.81499   0.00000  Uiso   1.00
C1253  C     0.65478   0.50061   0.85168   0.00000  Uiso   1.00
C1254  C     0.49211   0.35246   0.79076   0.00000  Uiso   1.00
C1255  C     0.50789   0.64753   0.87590   0.00000  Uiso   1.00
C1256  C     0.48940   0.64359   0.79288   0.00000  Uiso   1.00
H1257  H     0.65769   0.49775   0.78025   0.00000  Uiso   1.00
H1258  H     0.40548   0.40710   0.97012   0.00000  Uiso   1.00
H1259  H     0.46113   0.40929   0.94022   0.00000  Uiso   1.00
H1260  H     0.39802   0.41451   0.86664   0.00000  Uiso   1.00
H1261  H     0.38760   0.36810   0.89704   0.00000  Uiso   1.00
H1262  H     0.34374   0.41082   0.89829   0.00000  Uiso   1.00
H1263  H     0.34231   0.50224   0.88642   0.00000  Uiso   1.00
H1264  H     0.48019   0.62586   0.76130   0.00000  Uiso   1.00
H1265  H     0.51981   0.37413   0.90537   0.00000  Uiso   1.00
H1266  H     0.53889   0.59072   0.72646   0.00000  Uiso   1.00
H1267  H     0.59452   0.59289   0.69654   0.00000  Uiso   1.00
H1268  H     0.65629   0.58911   0.76836   0.00000  Uiso   1.00
H1269  H     0.61251   0.63190   0.76958   0.00000  Uiso   1.00
H1270  H     0.60200   0.58552   0.80003   0.00000  Uiso   1.00
N1271  N     0.49999   0.49999   0.95240   0.00000  Uiso   1.00
N1272  N     0.50001   0.50001   0.71427   0.00000  Uiso   1.00
N1273  N     0.48259   0.38293   0.70960   0.00000  Uiso   1.00
N1274  N     0.51742   0.61707   0.95706   0.00000  Uiso   1.00
N1275  N     0.62027   0.55272   0.95202   0.00000  Uiso   1.00
N1276  N     0.37973   0.44728   0.71464   0.00000  Uiso   1.00
O1277  O     0.50000   0.43892   0.87154   0.00000  Uiso   1.00
O1278  O     0.41774   0.46351   0.94043   0.00000  Uiso   1.00
O1279  O     0.50000   0.56108   0.79513   0.00000  Uiso   1.00
O1280  O     0.50000   0.43893   0.79510   0.00000  Uiso   1.00
O1281  O     0.50000   0.56107   0.87157   0.00000  Uiso   1.00
O1282  O     0.42392   0.50000   0.86261   0.00000  Uiso   1.00
O1283  O     0.57608   0.50000   0.80405   0.00000  Uiso   1.00
O1284  O     0.42392   0.50000   0.78617   0.00000  Uiso   1.00
O1285  O     0.57608   0.50000   0.88050   0.00000  Uiso   1.00
O1286  O     0.58226   0.53648   0.72624   0.00000  Uiso   1.00
Zn1287 Zn    0.50000   0.49999   0.88437   0.00000  Uiso   1.00
Zn1288 Zn    0.50000   0.50001   0.78229   0.00000  Uiso   1.00
C1289  C     0.83405   0.42005   0.83284   0.00000  Uiso   1.00
C1290  C     0.84393   0.35641   0.87378   0.00000  Uiso   1.00
C1291  C     0.83174   0.62418   0.83482   0.00000  Uiso   1.00
C1292  C     0.83493   0.37582   0.83185   0.00000  Uiso   1.00
C1293  C     0.87337   0.51933   0.69667   0.00000  Uiso   1.00
C1294  C     0.79330   0.48067   0.97000   0.00000  Uiso   1.00
C1295  C     0.87377   0.51856   0.98205   0.00000  Uiso   1.00
C1296  C     0.79290   0.48144   0.68462   0.00000  Uiso   1.00
C1297  C     0.81988   0.36970   0.74581   0.00000  Uiso   1.00
C1298  C     0.84679   0.63030   0.92086   0.00000  Uiso   1.00
C1299  C     0.91299   0.58003   0.72653   0.00000  Uiso   1.00
C1300  C     0.83262   0.57995   0.83383   0.00000  Uiso   1.00
C1301  C     0.94812   0.59769   0.76880   0.00000  Uiso   1.00
C1302  C     0.75369   0.41996   0.94014   0.00000  Uiso   1.00
C1303  C     0.71860   0.40230   0.89786   0.00000  Uiso   1.00
C1304  C     0.91787   0.53728   0.96498   0.00000  Uiso   1.00
C1305  C     0.74880   0.46271   0.70168   0.00000  Uiso   1.00
C1306  C     0.73375   0.49991   0.82133   0.00000  Uiso   1.00
C1307  C     0.93292   0.50009   0.84534   0.00000  Uiso   1.00
C1308  C     0.67855   0.49939   0.81499   0.00000  Uiso   1.00
C1309  C     0.98811   0.50061   0.85168   0.00000  Uiso   1.00
C1310  C     0.82544   0.35246   0.79076   0.00000  Uiso   1.00
C1311  C     0.84123   0.64753   0.87590   0.00000  Uiso   1.00
C1312  C     0.82273   0.64359   0.79288   0.00000  Uiso   1.00
H1313  H     0.99102   0.49775   0.78025   0.00000  Uiso   1.00
H1314  H     0.73882   0.40710   0.97012   0.00000  Uiso   1.00
H1315  H     0.79447   0.40929   0.94022   0.00000  Uiso   1.00
H1316  H     0.73135   0.41451   0.86664   0.00000  Uiso   1.00
H1317  H     0.72093   0.36810   0.89704   0.00000  Uiso   1.00
H1318  H     0.67708   0.41082   0.89829   0.00000  Uiso   1.00
H1319  H     0.67565   0.50224   0.88642   0.00000  Uiso   1.00
H1320  H     0.81353   0.62586   0.76130   0.00000  Uiso   1.00
H1321  H     0.85314   0.37413   0.90537   0.00000  Uiso   1.00
H1322  H     0.87223   0.59072   0.72646   0.00000  Uiso   1.00
H1323  H     0.92785   0.59289   0.69654   0.00000  Uiso   1.00
H1324  H     0.98962   0.58911   0.76836   0.00000  Uiso   1.00
H1325  H     0.94585   0.63190   0.76958   0.00000  Uiso   1.00
H1326  H     0.93534   0.58552   0.80003   0.00000  Uiso   1.00
N1327  N     0.83332   0.49999   0.95240   0.00000  Uiso   1.00
N1328  N     0.83335   0.50001   0.71427   0.00000  Uiso   1.00
N1329  N     0.81592   0.38293   0.70960   0.00000  Uiso   1.00
N1330  N     0.85075   0.61707   0.95706   0.00000  Uiso   1.00
N1331  N     0.95361   0.55272   0.95202   0.00000  Uiso   1.00
N1332  N     0.71306   0.44728   0.71464   0.00000  Uiso   1.00
O1333  O     0.83333   0.43892   0.87154   0.00000  Uiso   1.00
O1334  O     0.75107   0.46351   0.94043   0.00000  Uiso   1.00
O1335  O     0.83334   0.56108   0.79513   0.00000  Uiso   1.00
O1336  O     0.83333   0.43893   0.79510   0.00000  Uiso   1.00
O1337  O     0.83334   0.56107   0.87157   0.00000  Uiso   1.00
O1338  O     0.75725   0.50000   0.86261   0.00000  Uiso   1.00
O1339  O     0.90942   0.50000   0.80405   0.00000  Uiso   1.00
O1340  O     0.75725   0.50000   0.78617   0.00000  Uiso   1.00
O1341  O     0.90942   0.50000   0.88050   0.00000  Uiso   1.00
O1342  O     0.91560   0.53648   0.72624   0.00000  Uiso   1.00
Zn1343 Zn    0.83333   0.49999   0.88437   0.00000  Uiso   1.00
Zn1344 Zn    0.83333   0.50001   0.78229   0.00000  Uiso   1.00
C1345  C     0.16738   0.75338   0.83284   0.00000  Uiso   1.00
C1346  C     0.17727   0.68974   0.87378   0.00000  Uiso   1.00
C1347  C     0.16507   0.95751   0.83482   0.00000  Uiso   1.00
C1348  C     0.16826   0.70915   0.83185   0.00000  Uiso   1.00
C1349  C     0.20670   0.85267   0.69667   0.00000  Uiso   1.00
C1350  C     0.12663   0.81400   0.97000   0.00000  Uiso   1.00
C1351  C     0.20710   0.85189   0.98205   0.00000  Uiso   1.00
C1352  C     0.12623   0.81477   0.68462   0.00000  Uiso   1.00
C1353  C     0.15321   0.70303   0.74581   0.00000  Uiso   1.00
C1354  C     0.18013   0.96363   0.92086   0.00000  Uiso   1.00
C1355  C     0.24633   0.91337   0.72653   0.00000  Uiso   1.00
C1356  C     0.16595   0.91329   0.83383   0.00000  Uiso   1.00
C1357  C     0.28145   0.93103   0.76880   0.00000  Uiso   1.00
C1358  C     0.08702   0.75329   0.94014   0.00000  Uiso   1.00
C1359  C     0.05193   0.73563   0.89786   0.00000  Uiso   1.00
C1360  C     0.25120   0.87062   0.96498   0.00000  Uiso   1.00
C1361  C     0.08213   0.79605   0.70168   0.00000  Uiso   1.00
C1362  C     0.06708   0.83324   0.82133   0.00000  Uiso   1.00
C1363  C     0.26625   0.83342   0.84534   0.00000  Uiso   1.00
C1364  C     0.01189   0.83272   0.81499   0.00000  Uiso   1.00
C1365  C     0.32145   0.83394   0.85168   0.00000  Uiso   1.00
C1366  C     0.15877   0.68580   0.79076   0.00000  Uiso   1.00
C1367  C     0.17456   0.98087   0.87590   0.00000  Uiso   1.00
C1368  C     0.15607   0.97692   0.79288   0.00000  Uiso   1.00
H1369  H     0.32435   0.83109   0.78025   0.00000  Uiso   1.00
H1370  H     0.07215   0.74043   0.97012   0.00000  Uiso   1.00
H1371  H     0.12780   0.74262   0.94022   0.00000  Uiso   1.00
H1372  H     0.06469   0.74785   0.86664   0.00000  Uiso   1.00
H1373  H     0.05426   0.70143   0.89704   0.00000  Uiso   1.00
H1374  H     0.01041   0.74416   0.89829   0.00000  Uiso   1.00
H1375  H     0.00898   0.83558   0.88642   0.00000  Uiso   1.00
H1376  H     0.14686   0.95920   0.76130   0.00000  Uiso   1.00
H1377  H     0.18647   0.70747   0.90537   0.00000  Uiso   1.00
H1378  H     0.20556   0.92405   0.72646   0.00000  Uiso   1.00
H1379  H     0.26119   0.92622   0.69654   0.00000  Uiso   1.00
H1380  H     0.32296   0.92245   0.76836   0.00000  Uiso   1.00
H1381  H     0.27918   0.96523   0.76958   0.00000  Uiso   1.00
H1382  H     0.26867   0.91885   0.80003   0.00000  Uiso   1.00
N1383  N     0.16665   0.83332   0.95240   0.00000  Uiso   1.00
N1384  N     0.16668   0.83334   0.71427   0.00000  Uiso   1.00
N1385  N     0.14925   0.71626   0.70960   0.00000  Uiso   1.00
N1386  N     0.18409   0.95040   0.95706   0.00000  Uiso   1.00
N1387  N     0.28694   0.88605   0.95202   0.00000  Uiso   1.00
N1388  N     0.04640   0.78061   0.71464   0.00000  Uiso   1.00
O1389  O     0.16666   0.77225   0.87154   0.00000  Uiso   1.00
O1390  O     0.08441   0.79684   0.94043   0.00000  Uiso   1.00
O1391  O     0.16667   0.89442   0.79513   0.00000  Uiso   1.00
O1392  O     0.16666   0.77226   0.79510   0.00000  Uiso   1.00
O1393  O     0.16667   0.89441   0.87157   0.00000  Uiso   1.00
O1394  O     0.09058   0.83333   0.86261   0.00000  Uiso   1.00
O1395  O     0.24275   0.83334   0.80405   0.00000  Uiso   1.00
O1396  O     0.09058   0.83334   0.78617   0.00000  Uiso   1.00
O1397  O     0.24275   0.83333   0.88050   0.00000  Uiso   1.00
O1398  O     0.24893   0.86982   0.72624   0.00000  Uiso   1.00
Zn1399 Zn    0.16667   0.83333   0.88437   0.00000  Uiso   1.00
Zn1400 Zn    0.16667   0.83334   0.78229   0.00000  Uiso   1.00
C1401  C     0.50071   0.75338   0.83284   0.00000  Uiso   1.00
C1402  C     0.51060   0.68974   0.87378   0.00000  Uiso   1.00
C1403  C     0.49840   0.95751   0.83482   0.00000  Uiso   1.00
C1404  C     0.50159   0.70915   0.83185   0.00000  Uiso   1.00
C1405  C     0.54003   0.85267   0.69667   0.00000  Uiso   1.00
C1406  C     0.45997   0.81400   0.97000   0.00000  Uiso   1.00
C1407  C     0.54044   0.85189   0.98205   0.00000  Uiso   1.00
C1408  C     0.45956   0.81477   0.68462   0.00000  Uiso   1.00
C1409  C     0.48654   0.70303   0.74581   0.00000  Uiso   1.00
C1410  C     0.51346   0.96363   0.92086   0.00000  Uiso   1.00
C1411  C     0.57966   0.91337   0.72653   0.00000  Uiso   1.00
C1412  C     0.49928   0.91329   0.83383   0.00000  Uiso   1.00
C1413  C     0.61478   0.93103   0.76880   0.00000  Uiso   1.00
C1414  C     0.42036   0.75329   0.94014   0.00000  Uiso   1.00
C1415  C     0.38526   0.73563   0.89786   0.00000  Uiso   1.00
C1416  C     0.58454   0.87062   0.96498   0.00000  Uiso   1.00
C1417  C     0.41546   0.79605   0.70168   0.00000  Uiso   1.00
C1418  C     0.40042   0.83324   0.82133   0.00000  Uiso   1.00
C1419  C     0.59958   0.83342   0.84534   0.00000  Uiso   1.00
C1420  C     0.34522   0.83272   0.81499   0.00000  Uiso   1.00
C1421  C     0.65478   0.83394   0.85168   0.00000  Uiso   1.00
C1422  C     0.49211   0.68580   0.79076   0.00000  Uiso   1.00
C1423  C     0.50789   0.98087   0.87590   0.00000  Uiso   1.00
C1424  C     0.48940   0.97692   0.79288   0.00000  Uiso   1.00
H1425  H     0.65769   0.83109   0.78025   0.00000  Uiso   1.00
H1426  H     0.40548   0.74043   0.97012   0.00000  Uiso   1.00
H1427  H     0.46113   0.74262   0.94022   0.00000  Uiso   1.00
H1428  H     0.39802   0.74785   0.86664   0.00000  Uiso   1.00
H1429  H     0.38760   0.70143   0.89704   0.00000  Uiso   1.00
H1430  H     0.34374   0.74416   0.89829   0.00000  Uiso   1.00
H1431  H     0.34231   0.83558   0.88642   0.00000  Uiso   1.00
H1432  H     0.48019   0.95920   0.76130   0.00000  Uiso   1.00
H1433  H     0.51981   0.70747   0.90537   0.00000  Uiso   1.00
H1434  H     0.53889   0.92405   0.72646   0.00000  Uiso   1.00
H1435  H     0.59452   0.92622   0.69654   0.00000  Uiso   1.00
H1436  H     0.65629   0.92245   0.76836   0.00000  Uiso   1.00
H1437  H     0.61251   0.96523   0.76958   0.00000  Uiso   1.00
H1438  H     0.60200   0.91885   0.80003   0.00000  Uiso   1.00
N1439  N     0.49999   0.83332   0.95240   0.00000  Uiso   1.00
N1440  N     0.50001   0.83334   0.71427   0.00000  Uiso   1.00
N1441  N     0.48259   0.71626   0.70960   0.00000  Uiso   1.00
N1442  N     0.51742   0.95040   0.95706   0.00000  Uiso   1.00
N1443  N     0.62027   0.88605   0.95202   0.00000  Uiso   1.00
N1444  N     0.37973   0.78061   0.71464   0.00000  Uiso   1.00
O1445  O     0.50000   0.77225   0.87154   0.00000  Uiso   1.00
O1446  O     0.41774   0.79684   0.94043   0.00000  Uiso   1.00
O1447  O     0.50000   0.89442   0.79513   0.00000  Uiso   1.00
O1448  O     0.50000   0.77226   0.79510   0.00000  Uiso   1.00
O1449  O     0.50000   0.89441   0.87157   0.00000  Uiso   1.00
O1450  O     0.42392   0.83333   0.86261   0.00000  Uiso   1.00
O1451  O     0.57608   0.83334   0.80405   0.00000  Uiso   1.00
O1452  O     0.42392   0.83334   0.78617   0.00000  Uiso   1.00
O1453  O     0.57608   0.83333   0.88050   0.00000  Uiso   1.00
O1454  O     0.58226   0.86982   0.72624   0.00000  Uiso   1.00
Zn1455 Zn    0.50000   0.83333   0.88437   0.00000  Uiso   1.00
Zn1456 Zn    0.50000   0.83334   0.78229   0.00000  Uiso   1.00
C1457  C     0.83405   0.75338   0.83284   0.00000  Uiso   1.00
C1458  C     0.84393   0.68974   0.87378   0.00000  Uiso   1.00
C1459  C     0.83174   0.95751   0.83482   0.00000  Uiso   1.00
C1460  C     0.83493   0.70915   0.83185   0.00000  Uiso   1.00
C1461  C     0.87337   0.85267   0.69667   0.00000  Uiso   1.00
C1462  C     0.79330   0.81400   0.97000   0.00000  Uiso   1.00
C1463  C     0.87377   0.85189   0.98205   0.00000  Uiso   1.00
C1464  C     0.79290   0.81477   0.68462   0.00000  Uiso   1.00
C1465  C     0.81988   0.70303   0.74581   0.00000  Uiso   1.00
C1466  C     0.84679   0.96363   0.92086   0.00000  Uiso   1.00
C1467  C     0.91299   0.91337   0.72653   0.00000  Uiso   1.00
C1468  C     0.83262   0.91329   0.83383   0.00000  Uiso   1.00
C1469  C     0.94812   0.93103   0.76880   0.00000  Uiso   1.00
C1470  C     0.75369   0.75329   0.94014   0.00000  Uiso   1.00
C1471  C     0.71860   0.73563   0.89786   0.00000  Uiso   1.00
C1472  C     0.91787   0.87062   0.96498   0.00000  Uiso   1.00
C1473  C     0.74880   0.79605   0.70168   0.00000  Uiso   1.00
C1474  C     0.73375   0.83324   0.82133   0.00000  Uiso   1.00
C1475  C     0.93292   0.83342   0.84534   0.00000  Uiso   1.00
C1476  C     0.67855   0.83272   0.81499   0.00000  Uiso   1.00
C1477  C     0.98811   0.83394   0.85168   0.00000  Uiso   1.00
C1478  C     0.82544   0.68580   0.79076   0.00000  Uiso   1.00
C1479  C     0.84123   0.98087   0.87590   0.00000  Uiso   1.00
C1480  C     0.82273   0.97692   0.79288   0.00000  Uiso   1.00
H1481  H     0.99102   0.83109   0.78025   0.00000  Uiso   1.00
H1482  H     0.73882   0.74043   0.97012   0.00000  Uiso   1.00
H1483  H     0.79447   0.74262   0.94022   0.00000  Uiso   1.00
H1484  H     0.73135   0.74785   0.86664   0.00000  Uiso   1.00
H1485  H     0.72093   0.70143   0.89704   0.00000  Uiso   1.00
H1486  H     0.67708   0.74416   0.89829   0.00000  Uiso   1.00
H1487  H     0.67565   0.83558   0.88642   0.00000  Uiso   1.00
H1488  H     0.81353   0.95920   0.76130   0.00000  Uiso   1.00
H1489  H     0.85314   0.70747   0.90537   0.00000  Uiso   1.00
H1490  H     0.87223   0.92405   0.72646   0.00000  Uiso   1.00
H1491  H     0.92785   0.92622   0.69654   0.00000  Uiso   1.00
H1492  H     0.98962   0.92245   0.76836   0.00000  Uiso   1.00
H1493  H     0.94585   0.96523   0.76958   0.00000  Uiso   1.00
H1494  H     0.93534   0.91885   0.80003   0.00000  Uiso   1.00
N1495  N     0.83332   0.83332   0.95240   0.00000  Uiso   1.00
N1496  N     0.83335   0.83334   0.71427   0.00000  Uiso   1.00
N1497  N     0.81592   0.71626   0.70960   0.00000  Uiso   1.00
N1498  N     0.85075   0.95040   0.95706   0.00000  Uiso   1.00
N1499  N     0.95361   0.88605   0.95202   0.00000  Uiso   1.00
N1500  N     0.71306   0.78061   0.71464   0.00000  Uiso   1.00
O1501  O     0.83333   0.77225   0.87154   0.00000  Uiso   1.00
O1502  O     0.75107   0.79684   0.94043   0.00000  Uiso   1.00
O1503  O     0.83334   0.89442   0.79513   0.00000  Uiso   1.00
O1504  O     0.83333   0.77226   0.79510   0.00000  Uiso   1.00
O1505  O     0.83334   0.89441   0.87157   0.00000  Uiso   1.00
O1506  O     0.75725   0.83333   0.86261   0.00000  Uiso   1.00
O1507  O     0.90942   0.83334   0.80405   0.00000  Uiso   1.00
O1508  O     0.75725   0.83334   0.78617   0.00000  Uiso   1.00
O1509  O     0.90942   0.83333   0.88050   0.00000  Uiso   1.00
O1510  O     0.91560   0.86982   0.72624   0.00000  Uiso   1.00
Zn1511 Zn    0.83333   0.83333   0.88437   0.00000  Uiso   1.00
Zn1512 Zn    0.83333   0.83334   0.78229   0.00000  Uiso   1.00
loop_
_geom_bond_atom_site_label_1
_geom_bond_atom_site_label_2
_geom_bond_distance
_geom_bond_site_symmetry_2
_ccdc_geom_bond_type
C1     O48     1.286   .     A
C1     C4      1.433   .     S
C1     O45     1.297   .     A
C2     C4      1.396   .     A
C2     H33     1.083   .     S
C2     C359    1.370   1_545 S
C3     C12     1.433   .     S
C3     C23     1.411   .     A
C3     C24     1.396   .     A
C4     C22     1.411   .     A
C5     O54     1.384   .     S
C5     N40     1.370   .     A
C5     C1015   1.428   1_554 S
C6     O46     1.384   .     S
C6     N39     1.370   .     A
C6     C512    1.428   .     S
C7     C16     1.440   .     S
C7     N39     1.373   .     A
C7     C509    1.428   .     S
C8     N40     1.373   .     A
C8     C17     1.440   .     S
C8     C1014   1.428   1_554 S
C9     N41     1.157   .     T
C9     C22     1.446   .     S
C10    C23     1.446   .     S
C10    N42     1.157   .     T
C11    H35     1.109   .     S
C11    C13     1.522   .     S
C11    O54     1.414   .     S
C11    H34     1.111   .     S
C12    O49     1.286   .     A
C12    O47     1.297   .     A
C13    H37     1.111   .     S
C13    H38     1.109   .     S
C13    H36     1.111   .     S
C14    O46     1.414   .     S
C14    H26     1.109   .     S
C14    H27     1.111   .     S
C14    C15     1.522   .     S
C15    H28     1.109   .     S
C15    H29     1.111   .     S
C15    H30     1.111   .     S
C16    N43     1.158   .     T
C17    N44     1.158   .     T
C18    O52     1.288   .     A
C18    C20     1.402   .     S
C18    O50     1.281   .     A
C19    O53     1.288   .     A
C19    C21     1.402   .     S
C19    O51     1.281   .     A
C20    C133    1.333   1_455 S
C20    H137    1.087   1_455 S
C21    C76     1.333   .     S
C21    H87     1.087   .     S
C22    C360    1.370   1_545 S
C23    C170    1.370   .     S
C24    H32     1.083   .     S
C24    C190    1.370   .     S
H25    C76     1.087   .     S
H31    C133    1.087   1_455 S
N39    Zn55    2.024   .     S
N40    Zn56    2.024   .     S
O45    Zn55    2.008   .     S
O47    Zn56    2.008   .     S
O48    Zn56    2.021   .     S
O49    Zn55    2.021   .     S
O50    Zn55    1.962   .     S
O51    Zn56    1.962   .     S
O52    Zn56    1.978   .     S
O53    Zn55    1.978   .     S
C57    O104    1.286   .     A
C57    C60     1.433   .     S
C57    O101    1.297   .     A
C58    C60     1.396   .     A
C58    H89     1.083   .     S
C58    C415    1.370   1_545 S
C59    C68     1.433   .     S
C59    C79     1.411   .     A
C59    C80     1.396   .     A
C60    C78     1.411   .     A
C61    O110    1.384   .     S
C61    N96     1.370   .     A
C61    C1071   1.428   1_554 S
C62    O102    1.384   .     S
C62    N95     1.370   .     A
C62    C568    1.428   .     S
C63    C72     1.440   .     S
C63    N95     1.373   .     A
C63    C565    1.428   .     S
C64    N96     1.373   .     A
C64    C73     1.440   .     S
C64    C1070   1.428   1_554 S
C65    N97     1.157   .     T
C65    C78     1.446   .     S
C66    C79     1.446   .     S
C66    N98     1.157   .     T
C67    H91     1.109   .     S
C67    C69     1.522   .     S
C67    O110    1.414   .     S
C67    H90     1.111   .     S
C68    O105    1.286   .     A
C68    O103    1.297   .     A
C69    H93     1.111   .     S
C69    H94     1.109   .     S
C69    H92     1.111   .     S
C70    O102    1.414   .     S
C70    H82     1.109   .     S
C70    H83     1.111   .     S
C70    C71     1.522   .     S
C71    H84     1.109   .     S
C71    H85     1.111   .     S
C71    H86     1.111   .     S
C72    N99     1.158   .     T
C73    N100    1.158   .     T
C74    O108    1.288   .     A
C74    C76     1.402   .     S
C74    O106    1.281   .     A
C75    O109    1.288   .     A
C75    C77     1.402   .     S
C75    O107    1.281   .     A
C77    C132    1.333   .     S
C77    H143    1.087   .     S
C78    C416    1.370   1_545 S
C79    C226    1.370   .     S
C80    H88     1.083   .     S
C80    C246    1.370   .     S
H81    C132    1.087   .     S
N95    Zn111   2.024   .     S
N96    Zn112   2.024   .     S
O101   Zn111   2.008   .     S
O103   Zn112   2.008   .     S
O104   Zn112   2.021   .     S
O105   Zn111   2.021   .     S
O106   Zn111   1.962   .     S
O107   Zn112   1.962   .     S
O108   Zn112   1.978   .     S
O109   Zn111   1.978   .     S
C113   O160    1.286   .     A
C113   C116    1.433   .     S
C113   O157    1.297   .     A
C114   C116    1.396   .     A
C114   H145    1.083   .     S
C114   C471    1.370   1_545 S
C115   C124    1.433   .     S
C115   C135    1.411   .     A
C115   C136    1.396   .     A
C116   C134    1.411   .     A
C117   O166    1.384   .     S
C117   N152    1.370   .     A
C117   C1127   1.428   1_554 S
C118   O158    1.384   .     S
C118   N151    1.370   .     A
C118   C624    1.428   .     S
C119   C128    1.440   .     S
C119   N151    1.373   .     A
C119   C621    1.428   .     S
C120   N152    1.373   .     A
C120   C129    1.440   .     S
C120   C1126   1.428   1_554 S
C121   N153    1.157   .     T
C121   C134    1.446   .     S
C122   C135    1.446   .     S
C122   N154    1.157   .     T
C123   H147    1.109   .     S
C123   C125    1.522   .     S
C123   O166    1.414   .     S
C123   H146    1.111   .     S
C124   O161    1.286   .     A
C124   O159    1.297   .     A
C125   H149    1.111   .     S
C125   H150    1.109   .     S
C125   H148    1.111   .     S
C126   O158    1.414   .     S
C126   H138    1.109   .     S
C126   H139    1.111   .     S
C126   C127    1.522   .     S
C127   H140    1.109   .     S
C127   H141    1.111   .     S
C127   H142    1.111   .     S
C128   N155    1.158   .     T
C129   N156    1.158   .     T
C130   O164    1.288   .     A
C130   C132    1.402   .     S
C130   O162    1.281   .     A
C131   O165    1.288   .     A
C131   C133    1.402   .     S
C131   O163    1.281   .     A
C133   C20     1.333   1_655 S
C133   H31     1.087   1_655 S
C134   C472    1.370   1_545 S
C135   C282    1.370   .     S
C136   H144    1.083   .     S
C136   C302    1.370   .     S
H137   C20     1.087   1_655 S
N151   Zn167   2.024   .     S
N152   Zn168   2.024   .     S
O157   Zn167   2.008   .     S
O159   Zn168   2.008   .     S
O160   Zn168   2.021   .     S
O161   Zn167   2.021   .     S
O162   Zn167   1.962   .     S
O163   Zn168   1.962   .     S
O164   Zn168   1.978   .     S
O165   Zn167   1.978   .     S
C169   O216    1.286   .     A
C169   C172    1.433   .     S
C169   O213    1.297   .     A
C170   C172    1.396   .     A
C170   H201    1.083   .     S
C171   C180    1.433   .     S
C171   C191    1.411   .     A
C171   C192    1.396   .     A
C172   C190    1.411   .     A
C173   O222    1.384   .     S
C173   N208    1.370   .     A
C173   C1183   1.428   1_554 S
C174   O214    1.384   .     S
C174   N207    1.370   .     A
C174   C680    1.428   .     S
C175   C184    1.440   .     S
C175   N207    1.373   .     A
C175   C677    1.428   .     S
C176   N208    1.373   .     A
C176   C185    1.440   .     S
C176   C1182   1.428   1_554 S
C177   N209    1.157   .     T
C177   C190    1.446   .     S
C178   C191    1.446   .     S
C178   N210    1.157   .     T
C179   H203    1.109   .     S
C179   C181    1.522   .     S
C179   O222    1.414   .     S
C179   H202    1.111   .     S
C180   O217    1.286   .     A
C180   O215    1.297   .     A
C181   H205    1.111   .     S
C181   H206    1.109   .     S
C181   H204    1.111   .     S
C182   O214    1.414   .     S
C182   H194    1.109   .     S
C182   H195    1.111   .     S
C182   C183    1.522   .     S
C183   H196    1.109   .     S
C183   H197    1.111   .     S
C183   H198    1.111   .     S
C184   N211    1.158   .     T
C185   N212    1.158   .     T
C186   O220    1.288   .     A
C186   C188    1.402   .     S
C186   O218    1.281   .     A
C187   O221    1.288   .     A
C187   C189    1.402   .     S
C187   O219    1.281   .     A
C188   C301    1.333   1_455 S
C188   H305    1.087   1_455 S
C189   C244    1.333   .     S
C189   H255    1.087   .     S
C191   C338    1.370   .     S
C192   H200    1.083   .     S
C192   C358    1.370   .     S
H193   C244    1.087   .     S
H199   C301    1.087   1_455 S
N207   Zn223   2.024   .     S
N208   Zn224   2.024   .     S
O213   Zn223   2.008   .     S
O215   Zn224   2.008   .     S
O216   Zn224   2.021   .     S
O217   Zn223   2.021   .     S
O218   Zn223   1.962   .     S
O219   Zn224   1.962   .     S
O220   Zn224   1.978   .     S
O221   Zn223   1.978   .     S
C225   O272    1.286   .     A
C225   C228    1.433   .     S
C225   O269    1.297   .     A
C226   C228    1.396   .     A
C226   H257    1.083   .     S
C227   C236    1.433   .     S
C227   C247    1.411   .     A
C227   C248    1.396   .     A
C228   C246    1.411   .     A
C229   O278    1.384   .     S
C229   N264    1.370   .     A
C229   C1239   1.428   1_554 S
C230   O270    1.384   .     S
C230   N263    1.370   .     A
C230   C736    1.428   .     S
C231   C240    1.440   .     S
C231   N263    1.373   .     A
C231   C733    1.428   .     S
C232   N264    1.373   .     A
C232   C241    1.440   .     S
C232   C1238   1.428   1_554 S
C233   N265    1.157   .     T
C233   C246    1.446   .     S
C234   C247    1.446   .     S
C234   N266    1.157   .     T
C235   H259    1.109   .     S
C235   C237    1.522   .     S
C235   O278    1.414   .     S
C235   H258    1.111   .     S
C236   O273    1.286   .     A
C236   O271    1.297   .     A
C237   H261    1.111   .     S
C237   H262    1.109   .     S
C237   H260    1.111   .     S
C238   O270    1.414   .     S
C238   H250    1.109   .     S
C238   H251    1.111   .     S
C238   C239    1.522   .     S
C239   H252    1.109   .     S
C239   H253    1.111   .     S
C239   H254    1.111   .     S
C240   N267    1.158   .     T
C241   N268    1.158   .     T
C242   O276    1.288   .     A
C242   C244    1.402   .     S
C242   O274    1.281   .     A
C243   O277    1.288   .     A
C243   C245    1.402   .     S
C243   O275    1.281   .     A
C245   C300    1.333   .     S
C245   H311    1.087   .     S
C247   C394    1.370   .     S
C248   H256    1.083   .     S
C248   C414    1.370   .     S
H249   C300    1.087   .     S
N263   Zn279   2.024   .     S
N264   Zn280   2.024   .     S
O269   Zn279   2.008   .     S
O271   Zn280   2.008   .     S
O272   Zn280   2.021   .     S
O273   Zn279   2.021   .     S
O274   Zn279   1.962   .     S
O275   Zn280   1.962   .     S
O276   Zn280   1.978   .     S
O277   Zn279   1.978   .     S
C281   O328    1.286   .     A
C281   C284    1.433   .     S
C281   O325    1.297   .     A
C282   C284    1.396   .     A
C282   H313    1.083   .     S
C283   C292    1.433   .     S
C283   C303    1.411   .     A
C283   C304    1.396   .     A
C284   C302    1.411   .     A
C285   O334    1.384   .     S
C285   N320    1.370   .     A
C285   C1295   1.428   1_554 S
C286   O326    1.384   .     S
C286   N319    1.370   .     A
C286   C792    1.428   .     S
C287   C296    1.440   .     S
C287   N319    1.373   .     A
C287   C789    1.428   .     S
C288   N320    1.373   .     A
C288   C297    1.440   .     S
C288   C1294   1.428   1_554 S
C289   N321    1.157   .     T
C289   C302    1.446   .     S
C290   C303    1.446   .     S
C290   N322    1.157   .     T
C291   H315    1.109   .     S
C291   C293    1.522   .     S
C291   O334    1.414   .     S
C291   H314    1.111   .     S
C292   O329    1.286   .     A
C292   O327    1.297   .     A
C293   H317    1.111   .     S
C293   H318    1.109   .     S
C293   H316    1.111   .     S
C294   O326    1.414   .     S
C294   H306    1.109   .     S
C294   H307    1.111   .     S
C294   C295    1.522   .     S
C295   H308    1.109   .     S
C295   H309    1.111   .     S
C295   H310    1.111   .     S
C296   N323    1.158   .     T
C297   N324    1.158   .     T
C298   O332    1.288   .     A
C298   C300    1.402   .     S
C298   O330    1.281   .     A
C299   O333    1.288   .     A
C299   C301    1.402   .     S
C299   O331    1.281   .     A
C301   C188    1.333   1_655 S
C301   H199    1.087   1_655 S
C303   C450    1.370   .     S
C304   H312    1.083   .     S
C304   C470    1.370   .     S
H305   C188    1.087   1_655 S
N319   Zn335   2.024   .     S
N320   Zn336   2.024   .     S
O325   Zn335   2.008   .     S
O327   Zn336   2.008   .     S
O328   Zn336   2.021   .     S
O329   Zn335   2.021   .     S
O330   Zn335   1.962   .     S
O331   Zn336   1.962   .     S
O332   Zn336   1.978   .     S
O333   Zn335   1.978   .     S
C337   O384    1.286   .     A
C337   C340    1.433   .     S
C337   O381    1.297   .     A
C338   C340    1.396   .     A
C338   H369    1.083   .     S
C339   C348    1.433   .     S
C339   C359    1.411   .     A
C339   C360    1.396   .     A
C340   C358    1.411   .     A
C341   O390    1.384   .     S
C341   N376    1.370   .     A
C341   C1351   1.428   1_554 S
C342   O382    1.384   .     S
C342   N375    1.370   .     A
C342   C848    1.428   .     S
C343   C352    1.440   .     S
C343   N375    1.373   .     A
C343   C845    1.428   .     S
C344   N376    1.373   .     A
C344   C353    1.440   .     S
C344   C1350   1.428   1_554 S
C345   N377    1.157   .     T
C345   C358    1.446   .     S
C346   C359    1.446   .     S
C346   N378    1.157   .     T
C347   H371    1.109   .     S
C347   C349    1.522   .     S
C347   O390    1.414   .     S
C347   H370    1.111   .     S
C348   O385    1.286   .     A
C348   O383    1.297   .     A
C349   H373    1.111   .     S
C349   H374    1.109   .     S
C349   H372    1.111   .     S
C350   O382    1.414   .     S
C350   H362    1.109   .     S
C350   H363    1.111   .     S
C350   C351    1.522   .     S
C351   H364    1.109   .     S
C351   H365    1.111   .     S
C351   H366    1.111   .     S
C352   N379    1.158   .     T
C353   N380    1.158   .     T
C354   O388    1.288   .     A
C354   C356    1.402   .     S
C354   O386    1.281   .     A
C355   O389    1.288   .     A
C355   C357    1.402   .     S
C355   O387    1.281   .     A
C356   C469    1.333   1_455 S
C356   H473    1.087   1_455 S
C357   C412    1.333   .     S
C357   H423    1.087   .     S
C359   C2      1.370   1_565 S
C360   H368    1.083   .     S
C360   C22     1.370   1_565 S
H361   C412    1.087   .     S
H367   C469    1.087   1_455 S
N375   Zn391   2.024   .     S
N376   Zn392   2.024   .     S
O381   Zn391   2.008   .     S
O383   Zn392   2.008   .     S
O384   Zn392   2.021   .     S
O385   Zn391   2.021   .     S
O386   Zn391   1.962   .     S
O387   Zn392   1.962   .     S
O388   Zn392   1.978   .     S
O389   Zn391   1.978   .     S
C393   O440    1.286   .     A
C393   C396    1.433   .     S
C393   O437    1.297   .     A
C394   C396    1.396   .     A
C394   H425    1.083   .     S
C395   C404    1.433   .     S
C395   C415    1.411   .     A
C395   C416    1.396   .     A
C396   C414    1.411   .     A
C397   O446    1.384   .     S
C397   N432    1.370   .     A
C397   C1407   1.428   1_554 S
C398   O438    1.384   .     S
C398   N431    1.370   .     A
C398   C904    1.428   .     S
C399   C408    1.440   .     S
C399   N431    1.373   .     A
C399   C901    1.428   .     S
C400   N432    1.373   .     A
C400   C409    1.440   .     S
C400   C1406   1.428   1_554 S
C401   N433    1.157   .     T
C401   C414    1.446   .     S
C402   C415    1.446   .     S
C402   N434    1.157   .     T
C403   H427    1.109   .     S
C403   C405    1.522   .     S
C403   O446    1.414   .     S
C403   H426    1.111   .     S
C404   O441    1.286   .     A
C404   O439    1.297   .     A
C405   H429    1.111   .     S
C405   H430    1.109   .     S
C405   H428    1.111   .     S
C406   O438    1.414   .     S
C406   H418    1.109   .     S
C406   H419    1.111   .     S
C406   C407    1.522   .     S
C407   H420    1.109   .     S
C407   H421    1.111   .     S
C407   H422    1.111   .     S
C408   N435    1.158   .     T
C409   N436    1.158   .     T
C410   O444    1.288   .     A
C410   C412    1.402   .     S
C410   O442    1.281   .     A
C411   O445    1.288   .     A
C411   C413    1.402   .     S
C411   O443    1.281   .     A
C413   C468    1.333   .     S
C413   H479    1.087   .     S
C415   C58     1.370   1_565 S
C416   H424    1.083   .     S
C416   C78     1.370   1_565 S
H417   C468    1.087   .     S
N431   Zn447   2.024   .     S
N432   Zn448   2.024   .     S
O437   Zn447   2.008   .     S
O439   Zn448   2.008   .     S
O440   Zn448   2.021   .     S
O441   Zn447   2.021   .     S
O442   Zn447   1.962   .     S
O443   Zn448   1.962   .     S
O444   Zn448   1.978   .     S
O445   Zn447   1.978   .     S
C449   O496    1.286   .     A
C449   C452    1.433   .     S
C449   O493    1.297   .     A
C450   C452    1.396   .     A
C450   H481    1.083   .     S
C451   C460    1.433   .     S
C451   C471    1.411   .     A
C451   C472    1.396   .     A
C452   C470    1.411   .     A
C453   O502    1.384   .     S
C453   N488    1.370   .     A
C453   C1463   1.428   1_554 S
C454   O494    1.384   .     S
C454   N487    1.370   .     A
C454   C960    1.428   .     S
C455   C464    1.440   .     S
C455   N487    1.373   .     A
C455   C957    1.428   .     S
C456   N488    1.373   .     A
C456   C465    1.440   .     S
C456   C1462   1.428   1_554 S
C457   N489    1.157   .     T
C457   C470    1.446   .     S
C458   C471    1.446   .     S
C458   N490    1.157   .     T
C459   H483    1.109   .     S
C459   C461    1.522   .     S
C459   O502    1.414   .     S
C459   H482    1.111   .     S
C460   O497    1.286   .     A
C460   O495    1.297   .     A
C461   H485    1.111   .     S
C461   H486    1.109   .     S
C461   H484    1.111   .     S
C462   O494    1.414   .     S
C462   H474    1.109   .     S
C462   H475    1.111   .     S
C462   C463    1.522   .     S
C463   H476    1.109   .     S
C463   H477    1.111   .     S
C463   H478    1.111   .     S
C464   N491    1.158   .     T
C465   N492    1.158   .     T
C466   O500    1.288   .     A
C466   C468    1.402   .     S
C466   O498    1.281   .     A
C467   O501    1.288   .     A
C467   C469    1.402   .     S
C467   O499    1.281   .     A
C469   C356    1.333   1_655 S
C469   H367    1.087   1_655 S
C471   C114    1.370   1_565 S
C472   H480    1.083   .     S
C472   C134    1.370   1_565 S
H473   C356    1.087   1_655 S
N487   Zn503   2.024   .     S
N488   Zn504   2.024   .     S
O493   Zn503   2.008   .     S
O495   Zn504   2.008   .     S
O496   Zn504   2.021   .     S
O497   Zn503   2.021   .     S
O498   Zn503   1.962   .     S
O499   Zn504   1.962   .     S
O500   Zn504   1.978   .     S
O501   Zn503   1.978   .     S
C505   O552    1.286   .     A
C505   C508    1.433   .     S
C505   O549    1.297   .     A
C506   C508    1.396   .     A
C506   H537    1.083   .     S
C506   C863    1.370   1_545 S
C507   C516    1.433   .     S
C507   C527    1.411   .     A
C507   C528    1.396   .     A
C508   C526    1.411   .     A
C509   O558    1.384   .     S
C509   N544    1.370   .     A
C510   O550    1.384   .     S
C510   N543    1.370   .     A
C510   C1016   1.428   .     S
C511   C520    1.440   .     S
C511   N543    1.373   .     A
C511   C1013   1.428   .     S
C512   N544    1.373   .     A
C512   C521    1.440   .     S
C513   N545    1.157   .     T
C513   C526    1.446   .     S
C514   C527    1.446   .     S
C514   N546    1.157   .     T
C515   H539    1.109   .     S
C515   C517    1.522   .     S
C515   O558    1.414   .     S
C515   H538    1.111   .     S
C516   O553    1.286   .     A
C516   O551    1.297   .     A
C517   H541    1.111   .     S
C517   H542    1.109   .     S
C517   H540    1.111   .     S
C518   O550    1.414   .     S
C518   H530    1.109   .     S
C518   H531    1.111   .     S
C518   C519    1.522   .     S
C519   H532    1.109   .     S
C519   H533    1.111   .     S
C519   H534    1.111   .     S
C520   N547    1.158   .     T
C521   N548    1.158   .     T
C522   O556    1.288   .     A
C522   C524    1.402   .     S
C522   O554    1.281   .     A
C523   O557    1.288   .     A
C523   C525    1.402   .     S
C523   O555    1.281   .     A
C524   C637    1.333   1_455 S
C524   H641    1.087   1_455 S
C525   C580    1.333   .     S
C525   H591    1.087   .     S
C526   C864    1.370   1_545 S
C527   C674    1.370   .     S
C528   H536    1.083   .     S
C528   C694    1.370   .     S
H529   C580    1.087   .     S
H535   C637    1.087   1_455 S
N543   Zn559   2.024   .     S
N544   Zn560   2.024   .     S
O549   Zn559   2.008   .     S
O551   Zn560   2.008   .     S
O552   Zn560   2.021   .     S
O553   Zn559   2.021   .     S
O554   Zn559   1.962   .     S
O555   Zn560   1.962   .     S
O556   Zn560   1.978   .     S
O557   Zn559   1.978   .     S
C561   O608    1.286   .     A
C561   C564    1.433   .     S
C561   O605    1.297   .     A
C562   C564    1.396   .     A
C562   H593    1.083   .     S
C562   C919    1.370   1_545 S
C563   C572    1.433   .     S
C563   C583    1.411   .     A
C563   C584    1.396   .     A
C564   C582    1.411   .     A
C565   O614    1.384   .     S
C565   N600    1.370   .     A
C566   O606    1.384   .     S
C566   N599    1.370   .     A
C566   C1072   1.428   .     S
C567   C576    1.440   .     S
C567   N599    1.373   .     A
C567   C1069   1.428   .     S
C568   N600    1.373   .     A
C568   C577    1.440   .     S
C569   N601    1.157   .     T
C569   C582    1.446   .     S
C570   C583    1.446   .     S
C570   N602    1.157   .     T
C571   H595    1.109   .     S
C571   C573    1.522   .     S
C571   O614    1.414   .     S
C571   H594    1.111   .     S
C572   O609    1.286   .     A
C572   O607    1.297   .     A
C573   H597    1.111   .     S
C573   H598    1.109   .     S
C573   H596    1.111   .     S
C574   O606    1.414   .     S
C574   H586    1.109   .     S
C574   H587    1.111   .     S
C574   C575    1.522   .     S
C575   H588    1.109   .     S
C575   H589    1.111   .     S
C575   H590    1.111   .     S
C576   N603    1.158   .     T
C577   N604    1.158   .     T
C578   O612    1.288   .     A
C578   C580    1.402   .     S
C578   O610    1.281   .     A
C579   O613    1.288   .     A
C579   C581    1.402   .     S
C579   O611    1.281   .     A
C581   C636    1.333   .     S
C581   H647    1.087   .     S
C582   C920    1.370   1_545 S
C583   C730    1.370   .     S
C584   H592    1.083   .     S
C584   C750    1.370   .     S
H585   C636    1.087   .     S
N599   Zn615   2.024   .     S
N600   Zn616   2.024   .     S
O605   Zn615   2.008   .     S
O607   Zn616   2.008   .     S
O608   Zn616   2.021   .     S
O609   Zn615   2.021   .     S
O610   Zn615   1.962   .     S
O611   Zn616   1.962   .     S
O612   Zn616   1.978   .     S
O613   Zn615   1.978   .     S
C617   O664    1.286   .     A
C617   C620    1.433   .     S
C617   O661    1.297   .     A
C618   C620    1.396   .     A
C618   H649    1.083   .     S
C618   C975    1.370   1_545 S
C619   C628    1.433   .     S
C619   C639    1.411   .     A
C619   C640    1.396   .     A
C620   C638    1.411   .     A
C621   O670    1.384   .     S
C621   N656    1.370   .     A
C622   O662    1.384   .     S
C622   N655    1.370   .     A
C622   C1128   1.428   .     S
C623   C632    1.440   .     S
C623   N655    1.373   .     A
C623   C1125   1.428   .     S
C624   N656    1.373   .     A
C624   C633    1.440   .     S
C625   N657    1.157   .     T
C625   C638    1.446   .     S
C626   C639    1.446   .     S
C626   N658    1.157   .     T
C627   H651    1.109   .     S
C627   C629    1.522   .     S
C627   O670    1.414   .     S
C627   H650    1.111   .     S
C628   O665    1.286   .     A
C628   O663    1.297   .     A
C629   H653    1.111   .     S
C629   H654    1.109   .     S
C629   H652    1.111   .     S
C630   O662    1.414   .     S
C630   H642    1.109   .     S
C630   H643    1.111   .     S
C630   C631    1.522   .     S
C631   H644    1.109   .     S
C631   H645    1.111   .     S
C631   H646    1.111   .     S
C632   N659    1.158   .     T
C633   N660    1.158   .     T
C634   O668    1.288   .     A
C634   C636    1.402   .     S
C634   O666    1.281   .     A
C635   O669    1.288   .     A
C635   C637    1.402   .     S
C635   O667    1.281   .     A
C637   C524    1.333   1_655 S
C637   H535    1.087   1_655 S
C638   C976    1.370   1_545 S
C639   C786    1.370   .     S
C640   H648    1.083   .     S
C640   C806    1.370   .     S
H641   C524    1.087   1_655 S
N655   Zn671   2.024   .     S
N656   Zn672   2.024   .     S
O661   Zn671   2.008   .     S
O663   Zn672   2.008   .     S
O664   Zn672   2.021   .     S
O665   Zn671   2.021   .     S
O666   Zn671   1.962   .     S
O667   Zn672   1.962   .     S
O668   Zn672   1.978   .     S
O669   Zn671   1.978   .     S
C673   O720    1.286   .     A
C673   C676    1.433   .     S
C673   O717    1.297   .     A
C674   C676    1.396   .     A
C674   H705    1.083   .     S
C675   C684    1.433   .     S
C675   C695    1.411   .     A
C675   C696    1.396   .     A
C676   C694    1.411   .     A
C677   O726    1.384   .     S
C677   N712    1.370   .     A
C678   O718    1.384   .     S
C678   N711    1.370   .     A
C678   C1184   1.428   .     S
C679   C688    1.440   .     S
C679   N711    1.373   .     A
C679   C1181   1.428   .     S
C680   N712    1.373   .     A
C680   C689    1.440   .     S
C681   N713    1.157   .     T
C681   C694    1.446   .     S
C682   C695    1.446   .     S
C682   N714    1.157   .     T
C683   H707    1.109   .     S
C683   C685    1.522   .     S
C683   O726    1.414   .     S
C683   H706    1.111   .     S
C684   O721    1.286   .     A
C684   O719    1.297   .     A
C685   H709    1.111   .     S
C685   H710    1.109   .     S
C685   H708    1.111   .     S
C686   O718    1.414   .     S
C686   H698    1.109   .     S
C686   H699    1.111   .     S
C686   C687    1.522   .     S
C687   H700    1.109   .     S
C687   H701    1.111   .     S
C687   H702    1.111   .     S
C688   N715    1.158   .     T
C689   N716    1.158   .     T
C690   O724    1.288   .     A
C690   C692    1.402   .     S
C690   O722    1.281   .     A
C691   O725    1.288   .     A
C691   C693    1.402   .     S
C691   O723    1.281   .     A
C692   C805    1.333   1_455 S
C692   H809    1.087   1_455 S
C693   C748    1.333   .     S
C693   H759    1.087   .     S
C695   C842    1.370   .     S
C696   H704    1.083   .     S
C696   C862    1.370   .     S
H697   C748    1.087   .     S
H703   C805    1.087   1_455 S
N711   Zn727   2.024   .     S
N712   Zn728   2.024   .     S
O717   Zn727   2.008   .     S
O719   Zn728   2.008   .     S
O720   Zn728   2.021   .     S
O721   Zn727   2.021   .     S
O722   Zn727   1.962   .     S
O723   Zn728   1.962   .     S
O724   Zn728   1.978   .     S
O725   Zn727   1.978   .     S
C729   O776    1.286   .     A
C729   C732    1.433   .     S
C729   O773    1.297   .     A
C730   C732    1.396   .     A
C730   H761    1.083   .     S
C731   C740    1.433   .     S
C731   C751    1.411   .     A
C731   C752    1.396   .     A
C732   C750    1.411   .     A
C733   O782    1.384   .     S
C733   N768    1.370   .     A
C734   O774    1.384   .     S
C734   N767    1.370   .     A
C734   C1240   1.428   .     S
C735   C744    1.440   .     S
C735   N767    1.373   .     A
C735   C1237   1.428   .     S
C736   N768    1.373   .     A
C736   C745    1.440   .     S
C737   N769    1.157   .     T
C737   C750    1.446   .     S
C738   C751    1.446   .     S
C738   N770    1.157   .     T
C739   H763    1.109   .     S
C739   C741    1.522   .     S
C739   O782    1.414   .     S
C739   H762    1.111   .     S
C740   O777    1.286   .     A
C740   O775    1.297   .     A
C741   H765    1.111   .     S
C741   H766    1.109   .     S
C741   H764    1.111   .     S
C742   O774    1.414   .     S
C742   H754    1.109   .     S
C742   H755    1.111   .     S
C742   C743    1.522   .     S
C743   H756    1.109   .     S
C743   H757    1.111   .     S
C743   H758    1.111   .     S
C744   N771    1.158   .     T
C745   N772    1.158   .     T
C746   O780    1.288   .     A
C746   C748    1.402   .     S
C746   O778    1.281   .     A
C747   O781    1.288   .     A
C747   C749    1.402   .     S
C747   O779    1.281   .     A
C749   C804    1.333   .     S
C749   H815    1.087   .     S
C751   C898    1.370   .     S
C752   H760    1.083   .     S
C752   C918    1.370   .     S
H753   C804    1.087   .     S
N767   Zn783   2.024   .     S
N768   Zn784   2.024   .     S
O773   Zn783   2.008   .     S
O775   Zn784   2.008   .     S
O776   Zn784   2.021   .     S
O777   Zn783   2.021   .     S
O778   Zn783   1.962   .     S
O779   Zn784   1.962   .     S
O780   Zn784   1.978   .     S
O781   Zn783   1.978   .     S
C785   O832    1.286   .     A
C785   C788    1.433   .     S
C785   O829    1.297   .     A
C786   C788    1.396   .     A
C786   H817    1.083   .     S
C787   C796    1.433   .     S
C787   C807    1.411   .     A
C787   C808    1.396   .     A
C788   C806    1.411   .     A
C789   O838    1.384   .     S
C789   N824    1.370   .     A
C790   O830    1.384   .     S
C790   N823    1.370   .     A
C790   C1296   1.428   .     S
C791   C800    1.440   .     S
C791   N823    1.373   .     A
C791   C1293   1.428   .     S
C792   N824    1.373   .     A
C792   C801    1.440   .     S
C793   N825    1.157   .     T
C793   C806    1.446   .     S
C794   C807    1.446   .     S
C794   N826    1.157   .     T
C795   H819    1.109   .     S
C795   C797    1.522   .     S
C795   O838    1.414   .     S
C795   H818    1.111   .     S
C796   O833    1.286   .     A
C796   O831    1.297   .     A
C797   H821    1.111   .     S
C797   H822    1.109   .     S
C797   H820    1.111   .     S
C798   O830    1.414   .     S
C798   H810    1.109   .     S
C798   H811    1.111   .     S
C798   C799    1.522   .     S
C799   H812    1.109   .     S
C799   H813    1.111   .     S
C799   H814    1.111   .     S
C800   N827    1.158   .     T
C801   N828    1.158   .     T
C802   O836    1.288   .     A
C802   C804    1.402   .     S
C802   O834    1.281   .     A
C803   O837    1.288   .     A
C803   C805    1.402   .     S
C803   O835    1.281   .     A
C805   C692    1.333   1_655 S
C805   H703    1.087   1_655 S
C807   C954    1.370   .     S
C808   H816    1.083   .     S
C808   C974    1.370   .     S
H809   C692    1.087   1_655 S
N823   Zn839   2.024   .     S
N824   Zn840   2.024   .     S
O829   Zn839   2.008   .     S
O831   Zn840   2.008   .     S
O832   Zn840   2.021   .     S
O833   Zn839   2.021   .     S
O834   Zn839   1.962   .     S
O835   Zn840   1.962   .     S
O836   Zn840   1.978   .     S
O837   Zn839   1.978   .     S
C841   O888    1.286   .     A
C841   C844    1.433   .     S
C841   O885    1.297   .     A
C842   C844    1.396   .     A
C842   H873    1.083   .     S
C843   C852    1.433   .     S
C843   C863    1.411   .     A
C843   C864    1.396   .     A
C844   C862    1.411   .     A
C845   O894    1.384   .     S
C845   N880    1.370   .     A
C846   O886    1.384   .     S
C846   N879    1.370   .     A
C846   C1352   1.428   .     S
C847   C856    1.440   .     S
C847   N879    1.373   .     A
C847   C1349   1.428   .     S
C848   N880    1.373   .     A
C848   C857    1.440   .     S
C849   N881    1.157   .     T
C849   C862    1.446   .     S
C850   C863    1.446   .     S
C850   N882    1.157   .     T
C851   H875    1.109   .     S
C851   C853    1.522   .     S
C851   O894    1.414   .     S
C851   H874    1.111   .     S
C852   O889    1.286   .     A
C852   O887    1.297   .     A
C853   H877    1.111   .     S
C853   H878    1.109   .     S
C853   H876    1.111   .     S
C854   O886    1.414   .     S
C854   H866    1.109   .     S
C854   H867    1.111   .     S
C854   C855    1.522   .     S
C855   H868    1.109   .     S
C855   H869    1.111   .     S
C855   H870    1.111   .     S
C856   N883    1.158   .     T
C857   N884    1.158   .     T
C858   O892    1.288   .     A
C858   C860    1.402   .     S
C858   O890    1.281   .     A
C859   O893    1.288   .     A
C859   C861    1.402   .     S
C859   O891    1.281   .     A
C860   C973    1.333   1_455 S
C860   H977    1.087   1_455 S
C861   C916    1.333   .     S
C861   H927    1.087   .     S
C863   C506    1.370   1_565 S
C864   H872    1.083   .     S
C864   C526    1.370   1_565 S
H865   C916    1.087   .     S
H871   C973    1.087   1_455 S
N879   Zn895   2.024   .     S
N880   Zn896   2.024   .     S
O885   Zn895   2.008   .     S
O887   Zn896   2.008   .     S
O888   Zn896   2.021   .     S
O889   Zn895   2.021   .     S
O890   Zn895   1.962   .     S
O891   Zn896   1.962   .     S
O892   Zn896   1.978   .     S
O893   Zn895   1.978   .     S
C897   O944    1.286   .     A
C897   C900    1.433   .     S
C897   O941    1.297   .     A
C898   C900    1.396   .     A
C898   H929    1.083   .     S
C899   C908    1.433   .     S
C899   C919    1.411   .     A
C899   C920    1.396   .     A
C900   C918    1.411   .     A
C901   O950    1.384   .     S
C901   N936    1.370   .     A
C902   O942    1.384   .     S
C902   N935    1.370   .     A
C902   C1408   1.428   .     S
C903   C912    1.440   .     S
C903   N935    1.373   .     A
C903   C1405   1.428   .     S
C904   N936    1.373   .     A
C904   C913    1.440   .     S
C905   N937    1.157   .     T
C905   C918    1.446   .     S
C906   C919    1.446   .     S
C906   N938    1.157   .     T
C907   H931    1.109   .     S
C907   C909    1.522   .     S
C907   O950    1.414   .     S
C907   H930    1.111   .     S
C908   O945    1.286   .     A
C908   O943    1.297   .     A
C909   H933    1.111   .     S
C909   H934    1.109   .     S
C909   H932    1.111   .     S
C910   O942    1.414   .     S
C910   H922    1.109   .     S
C910   H923    1.111   .     S
C910   C911    1.522   .     S
C911   H924    1.109   .     S
C911   H925    1.111   .     S
C911   H926    1.111   .     S
C912   N939    1.158   .     T
C913   N940    1.158   .     T
C914   O948    1.288   .     A
C914   C916    1.402   .     S
C914   O946    1.281   .     A
C915   O949    1.288   .     A
C915   C917    1.402   .     S
C915   O947    1.281   .     A
C917   C972    1.333   .     S
C917   H983    1.087   .     S
C919   C562    1.370   1_565 S
C920   H928    1.083   .     S
C920   C582    1.370   1_565 S
H921   C972    1.087   .     S
N935   Zn951   2.024   .     S
N936   Zn952   2.024   .     S
O941   Zn951   2.008   .     S
O943   Zn952   2.008   .     S
O944   Zn952   2.021   .     S
O945   Zn951   2.021   .     S
O946   Zn951   1.962   .     S
O947   Zn952   1.962   .     S
O948   Zn952   1.978   .     S
O949   Zn951   1.978   .     S
C953   O1000   1.286   .     A
C953   C956    1.433   .     S
C953   O997    1.297   .     A
C954   C956    1.396   .     A
C954   H985    1.083   .     S
C955   C964    1.433   .     S
C955   C975    1.411   .     A
C955   C976    1.396   .     A
C956   C974    1.411   .     A
C957   O1006   1.384   .     S
C957   N992    1.370   .     A
C958   O998    1.384   .     S
C958   N991    1.370   .     A
C958   C1464   1.428   .     S
C959   C968    1.440   .     S
C959   N991    1.373   .     A
C959   C1461   1.428   .     S
C960   N992    1.373   .     A
C960   C969    1.440   .     S
C961   N993    1.157   .     T
C961   C974    1.446   .     S
C962   C975    1.446   .     S
C962   N994    1.157   .     T
C963   H987    1.109   .     S
C963   C965    1.522   .     S
C963   O1006   1.414   .     S
C963   H986    1.111   .     S
C964   O1001   1.286   .     A
C964   O999    1.297   .     A
C965   H989    1.111   .     S
C965   H990    1.109   .     S
C965   H988    1.111   .     S
C966   O998    1.414   .     S
C966   H978    1.109   .     S
C966   H979    1.111   .     S
C966   C967    1.522   .     S
C967   H980    1.109   .     S
C967   H981    1.111   .     S
C967   H982    1.111   .     S
C968   N995    1.158   .     T
C969   N996    1.158   .     T
C970   O1004   1.288   .     A
C970   C972    1.402   .     S
C970   O1002   1.281   .     A
C971   O1005   1.288   .     A
C971   C973    1.402   .     S
C971   O1003   1.281   .     A
C973   C860    1.333   1_655 S
C973   H871    1.087   1_655 S
C975   C618    1.370   1_565 S
C976   H984    1.083   .     S
C976   C638    1.370   1_565 S
H977   C860    1.087   1_655 S
N991   Zn1007  2.024   .     S
N992   Zn1008  2.024   .     S
O997   Zn1007  2.008   .     S
O999   Zn1008  2.008   .     S
O1000  Zn1008  2.021   .     S
O1001  Zn1007  2.021   .     S
O1002  Zn1007  1.962   .     S
O1003  Zn1008  1.962   .     S
O1004  Zn1008  1.978   .     S
O1005  Zn1007  1.978   .     S
C1009  O1056   1.286   .     A
C1009  C1012   1.433   .     S
C1009  O1053   1.297   .     A
C1010  C1012   1.396   .     A
C1010  H1041   1.083   .     S
C1010  C1367   1.370   1_545 S
C1011  C1020   1.433   .     S
C1011  C1031   1.411   .     A
C1011  C1032   1.396   .     A
C1012  C1030   1.411   .     A
C1013  O1062   1.384   .     S
C1013  N1048   1.370   .     A
C1014  O1054   1.384   .     S
C1014  N1047   1.370   .     A
C1014  C8      1.428   1_556 S
C1015  C1024   1.440   .     S
C1015  N1047   1.373   .     A
C1015  C5      1.428   1_556 S
C1016  N1048   1.373   .     A
C1016  C1025   1.440   .     S
C1017  N1049   1.157   .     T
C1017  C1030   1.446   .     S
C1018  C1031   1.446   .     S
C1018  N1050   1.157   .     T
C1019  H1043   1.109   .     S
C1019  C1021   1.522   .     S
C1019  O1062   1.414   .     S
C1019  H1042   1.111   .     S
C1020  O1057   1.286   .     A
C1020  O1055   1.297   .     A
C1021  H1045   1.111   .     S
C1021  H1046   1.109   .     S
C1021  H1044   1.111   .     S
C1022  O1054   1.414   .     S
C1022  H1034   1.109   .     S
C1022  H1035   1.111   .     S
C1022  C1023   1.522   .     S
C1023  H1036   1.109   .     S
C1023  H1037   1.111   .     S
C1023  H1038   1.111   .     S
C1024  N1051   1.158   .     T
C1025  N1052   1.158   .     T
C1026  O1060   1.288   .     A
C1026  C1028   1.402   .     S
C1026  O1058   1.281   .     A
C1027  O1061   1.288   .     A
C1027  C1029   1.402   .     S
C1027  O1059   1.281   .     A
C1028  C1141   1.333   1_455 S
C1028  H1145   1.087   1_455 S
C1029  C1084   1.333   .     S
C1029  H1095   1.087   .     S
C1030  C1368   1.370   1_545 S
C1031  C1178   1.370   .     S
C1032  H1040   1.083   .     S
C1032  C1198   1.370   .     S
H1033  C1084   1.087   .     S
H1039  C1141   1.087   1_455 S
N1047  Zn1063  2.024   .     S
N1048  Zn1064  2.024   .     S
O1053  Zn1063  2.008   .     S
O1055  Zn1064  2.008   .     S
O1056  Zn1064  2.021   .     S
O1057  Zn1063  2.021   .     S
O1058  Zn1063  1.962   .     S
O1059  Zn1064  1.962   .     S
O1060  Zn1064  1.978   .     S
O1061  Zn1063  1.978   .     S
C1065  O1112   1.286   .     A
C1065  C1068   1.433   .     S
C1065  O1109   1.297   .     A
C1066  C1068   1.396   .     A
C1066  H1097   1.083   .     S
C1066  C1423   1.370   1_545 S
C1067  C1076   1.433   .     S
C1067  C1087   1.411   .     A
C1067  C1088   1.396   .     A
C1068  C1086   1.411   .     A
C1069  O1118   1.384   .     S
C1069  N1104   1.370   .     A
C1070  O1110   1.384   .     S
C1070  N1103   1.370   .     A
C1070  C64     1.428   1_556 S
C1071  C1080   1.440   .     S
C1071  N1103   1.373   .     A
C1071  C61     1.428   1_556 S
C1072  N1104   1.373   .     A
C1072  C1081   1.440   .     S
C1073  N1105   1.157   .     T
C1073  C1086   1.446   .     S
C1074  C1087   1.446   .     S
C1074  N1106   1.157   .     T
C1075  H1099   1.109   .     S
C1075  C1077   1.522   .     S
C1075  O1118   1.414   .     S
C1075  H1098   1.111   .     S
C1076  O1113   1.286   .     A
C1076  O1111   1.297   .     A
C1077  H1101   1.111   .     S
C1077  H1102   1.109   .     S
C1077  H1100   1.111   .     S
C1078  O1110   1.414   .     S
C1078  H1090   1.109   .     S
C1078  H1091   1.111   .     S
C1078  C1079   1.522   .     S
C1079  H1092   1.109   .     S
C1079  H1093   1.111   .     S
C1079  H1094   1.111   .     S
C1080  N1107   1.158   .     T
C1081  N1108   1.158   .     T
C1082  O1116   1.288   .     A
C1082  C1084   1.402   .     S
C1082  O1114   1.281   .     A
C1083  O1117   1.288   .     A
C1083  C1085   1.402   .     S
C1083  O1115   1.281   .     A
C1085  C1140   1.333   .     S
C1085  H1151   1.087   .     S
C1086  C1424   1.370   1_545 S
C1087  C1234   1.370   .     S
C1088  H1096   1.083   .     S
C1088  C1254   1.370   .     S
H1089  C1140   1.087   .     S
N1103  Zn1119  2.024   .     S
N1104  Zn1120  2.024   .     S
O1109  Zn1119  2.008   .     S
O1111  Zn1120  2.008   .     S
O1112  Zn1120  2.021   .     S
O1113  Zn1119  2.021   .     S
O1114  Zn1119  1.962   .     S
O1115  Zn1120  1.962   .     S
O1116  Zn1120  1.978   .     S
O1117  Zn1119  1.978   .     S
C1121  O1168   1.286   .     A
C1121  C1124   1.433   .     S
C1121  O1165   1.297   .     A
C1122  C1124   1.396   .     A
C1122  H1153   1.083   .     S
C1122  C1479   1.370   1_545 S
C1123  C1132   1.433   .     S
C1123  C1143   1.411   .     A
C1123  C1144   1.396   .     A
C1124  C1142   1.411   .     A
C1125  O1174   1.384   .     S
C1125  N1160   1.370   .     A
C1126  O1166   1.384   .     S
C1126  N1159   1.370   .     A
C1126  C120    1.428   1_556 S
C1127  C1136   1.440   .     S
C1127  N1159   1.373   .     A
C1127  C117    1.428   1_556 S
C1128  N1160   1.373   .     A
C1128  C1137   1.440   .     S
C1129  N1161   1.157   .     T
C1129  C1142   1.446   .     S
C1130  C1143   1.446   .     S
C1130  N1162   1.157   .     T
C1131  H1155   1.109   .     S
C1131  C1133   1.522   .     S
C1131  O1174   1.414   .     S
C1131  H1154   1.111   .     S
C1132  O1169   1.286   .     A
C1132  O1167   1.297   .     A
C1133  H1157   1.111   .     S
C1133  H1158   1.109   .     S
C1133  H1156   1.111   .     S
C1134  O1166   1.414   .     S
C1134  H1146   1.109   .     S
C1134  H1147   1.111   .     S
C1134  C1135   1.522   .     S
C1135  H1148   1.109   .     S
C1135  H1149   1.111   .     S
C1135  H1150   1.111   .     S
C1136  N1163   1.158   .     T
C1137  N1164   1.158   .     T
C1138  O1172   1.288   .     A
C1138  C1140   1.402   .     S
C1138  O1170   1.281   .     A
C1139  O1173   1.288   .     A
C1139  C1141   1.402   .     S
C1139  O1171   1.281   .     A
C1141  C1028   1.333   1_655 S
C1141  H1039   1.087   1_655 S
C1142  C1480   1.370   1_545 S
C1143  C1290   1.370   .     S
C1144  H1152   1.083   .     S
C1144  C1310   1.370   .     S
H1145  C1028   1.087   1_655 S
N1159  Zn1175  2.024   .     S
N1160  Zn1176  2.024   .     S
O1165  Zn1175  2.008   .     S
O1167  Zn1176  2.008   .     S
O1168  Zn1176  2.021   .     S
O1169  Zn1175  2.021   .     S
O1170  Zn1175  1.962   .     S
O1171  Zn1176  1.962   .     S
O1172  Zn1176  1.978   .     S
O1173  Zn1175  1.978   .     S
C1177  O1224   1.286   .     A
C1177  C1180   1.433   .     S
C1177  O1221   1.297   .     A
C1178  C1180   1.396   .     A
C1178  H1209   1.083   .     S
C1179  C1188   1.433   .     S
C1179  C1199   1.411   .     A
C1179  C1200   1.396   .     A
C1180  C1198   1.411   .     A
C1181  O1230   1.384   .     S
C1181  N1216   1.370   .     A
C1182  O1222   1.384   .     S
C1182  N1215   1.370   .     A
C1182  C176    1.428   1_556 S
C1183  C1192   1.440   .     S
C1183  N1215   1.373   .     A
C1183  C173    1.428   1_556 S
C1184  N1216   1.373   .     A
C1184  C1193   1.440   .     S
C1185  N1217   1.157   .     T
C1185  C1198   1.446   .     S
C1186  C1199   1.446   .     S
C1186  N1218   1.157   .     T
C1187  H1211   1.109   .     S
C1187  C1189   1.522   .     S
C1187  O1230   1.414   .     S
C1187  H1210   1.111   .     S
C1188  O1225   1.286   .     A
C1188  O1223   1.297   .     A
C1189  H1213   1.111   .     S
C1189  H1214   1.109   .     S
C1189  H1212   1.111   .     S
C1190  O1222   1.414   .     S
C1190  H1202   1.109   .     S
C1190  H1203   1.111   .     S
C1190  C1191   1.522   .     S
C1191  H1204   1.109   .     S
C1191  H1205   1.111   .     S
C1191  H1206   1.111   .     S
C1192  N1219   1.158   .     T
C1193  N1220   1.158   .     T
C1194  O1228   1.288   .     A
C1194  C1196   1.402   .     S
C1194  O1226   1.281   .     A
C1195  O1229   1.288   .     A
C1195  C1197   1.402   .     S
C1195  O1227   1.281   .     A
C1196  C1309   1.333   1_455 S
C1196  H1313   1.087   1_455 S
C1197  C1252   1.333   .     S
C1197  H1263   1.087   .     S
C1199  C1346   1.370   .     S
C1200  H1208   1.083   .     S
C1200  C1366   1.370   .     S
H1201  C1252   1.087   .     S
H1207  C1309   1.087   1_455 S
N1215  Zn1231  2.024   .     S
N1216  Zn1232  2.024   .     S
O1221  Zn1231  2.008   .     S
O1223  Zn1232  2.008   .     S
O1224  Zn1232  2.021   .     S
O1225  Zn1231  2.021   .     S
O1226  Zn1231  1.962   .     S
O1227  Zn1232  1.962   .     S
O1228  Zn1232  1.978   .     S
O1229  Zn1231  1.978   .     S
C1233  O1280   1.286   .     A
C1233  C1236   1.433   .     S
C1233  O1277   1.297   .     A
C1234  C1236   1.396   .     A
C1234  H1265   1.083   .     S
C1235  C1244   1.433   .     S
C1235  C1255   1.411   .     A
C1235  C1256   1.396   .     A
C1236  C1254   1.411   .     A
C1237  O1286   1.384   .     S
C1237  N1272   1.370   .     A
C1238  O1278   1.384   .     S
C1238  N1271   1.370   .     A
C1238  C232    1.428   1_556 S
C1239  C1248   1.440   .     S
C1239  N1271   1.373   .     A
C1239  C229    1.428   1_556 S
C1240  N1272   1.373   .     A
C1240  C1249   1.440   .     S
C1241  N1273   1.157   .     T
C1241  C1254   1.446   .     S
C1242  C1255   1.446   .     S
C1242  N1274   1.157   .     T
C1243  H1267   1.109   .     S
C1243  C1245   1.522   .     S
C1243  O1286   1.414   .     S
C1243  H1266   1.111   .     S
C1244  O1281   1.286   .     A
C1244  O1279   1.297   .     A
C1245  H1269   1.111   .     S
C1245  H1270   1.109   .     S
C1245  H1268   1.111   .     S
C1246  O1278   1.414   .     S
C1246  H1258   1.109   .     S
C1246  H1259   1.111   .     S
C1246  C1247   1.522   .     S
C1247  H1260   1.109   .     S
C1247  H1261   1.111   .     S
C1247  H1262   1.111   .     S
C1248  N1275   1.158   .     T
C1249  N1276   1.158   .     T
C1250  O1284   1.288   .     A
C1250  C1252   1.402   .     S
C1250  O1282   1.281   .     A
C1251  O1285   1.288   .     A
C1251  C1253   1.402   .     S
C1251  O1283   1.281   .     A
C1253  C1308   1.333   .     S
C1253  H1319   1.087   .     S
C1255  C1402   1.370   .     S
C1256  H1264   1.083   .     S
C1256  C1422   1.370   .     S
H1257  C1308   1.087   .     S
N1271  Zn1287  2.024   .     S
N1272  Zn1288  2.024   .     S
O1277  Zn1287  2.008   .     S
O1279  Zn1288  2.008   .     S
O1280  Zn1288  2.021   .     S
O1281  Zn1287  2.021   .     S
O1282  Zn1287  1.962   .     S
O1283  Zn1288  1.962   .     S
O1284  Zn1288  1.978   .     S
O1285  Zn1287  1.978   .     S
C1289  O1336   1.286   .     A
C1289  C1292   1.433   .     S
C1289  O1333   1.297   .     A
C1290  C1292   1.396   .     A
C1290  H1321   1.083   .     S
C1291  C1300   1.433   .     S
C1291  C1311   1.411   .     A
C1291  C1312   1.396   .     A
C1292  C1310   1.411   .     A
C1293  O1342   1.384   .     S
C1293  N1328   1.370   .     A
C1294  O1334   1.384   .     S
C1294  N1327   1.370   .     A
C1294  C288    1.428   1_556 S
C1295  C1304   1.440   .     S
C1295  N1327   1.373   .     A
C1295  C285    1.428   1_556 S
C1296  N1328   1.373   .     A
C1296  C1305   1.440   .     S
C1297  N1329   1.157   .     T
C1297  C1310   1.446   .     S
C1298  C1311   1.446   .     S
C1298  N1330   1.157   .     T
C1299  H1323   1.109   .     S
C1299  C1301   1.522   .     S
C1299  O1342   1.414   .     S
C1299  H1322   1.111   .     S
C1300  O1337   1.286   .     A
C1300  O1335   1.297   .     A
C1301  H1325   1.111   .     S
C1301  H1326   1.109   .     S
C1301  H1324   1.111   .     S
C1302  O1334   1.414   .     S
C1302  H1314   1.109   .     S
C1302  H1315   1.111   .     S
C1302  C1303   1.522   .     S
C1303  H1316   1.109   .     S
C1303  H1317   1.111   .     S
C1303  H1318   1.111   .     S
C1304  N1331   1.158   .     T
C1305  N1332   1.158   .     T
C1306  O1340   1.288   .     A
C1306  C1308   1.402   .     S
C1306  O1338   1.281   .     A
C1307  O1341   1.288   .     A
C1307  C1309   1.402   .     S
C1307  O1339   1.281   .     A
C1309  C1196   1.333   1_655 S
C1309  H1207   1.087   1_655 S
C1311  C1458   1.370   .     S
C1312  H1320   1.083   .     S
C1312  C1478   1.370   .     S
H1313  C1196   1.087   1_655 S
N1327  Zn1343  2.024   .     S
N1328  Zn1344  2.024   .     S
O1333  Zn1343  2.008   .     S
O1335  Zn1344  2.008   .     S
O1336  Zn1344  2.021   .     S
O1337  Zn1343  2.021   .     S
O1338  Zn1343  1.962   .     S
O1339  Zn1344  1.962   .     S
O1340  Zn1344  1.978   .     S
O1341  Zn1343  1.978   .     S
C1345  O1392   1.286   .     A
C1345  C1348   1.433   .     S
C1345  O1389   1.297   .     A
C1346  C1348   1.396   .     A
C1346  H1377   1.083   .     S
C1347  C1356   1.433   .     S
C1347  C1367   1.411   .     A
C1347  C1368   1.396   .     A
C1348  C1366   1.411   .     A
C1349  O1398   1.384   .     S
C1349  N1384   1.370   .     A
C1350  O1390   1.384   .     S
C1350  N1383   1.370   .     A
C1350  C344    1.428   1_556 S
C1351  C1360   1.440   .     S
C1351  N1383   1.373   .     A
C1351  C341    1.428   1_556 S
C1352  N1384   1.373   .     A
C1352  C1361   1.440   .     S
C1353  N1385   1.157   .     T
C1353  C1366   1.446   .     S
C1354  C1367   1.446   .     S
C1354  N1386   1.157   .     T
C1355  H1379   1.109   .     S
C1355  C1357   1.522   .     S
C1355  O1398   1.414   .     S
C1355  H1378   1.111   .     S
C1356  O1393   1.286   .     A
C1356  O1391   1.297   .     A
C1357  H1381   1.111   .     S
C1357  H1382   1.109   .     S
C1357  H1380   1.111   .     S
C1358  O1390   1.414   .     S
C1358  H1370   1.109   .     S
C1358  H1371   1.111   .     S
C1358  C1359   1.522   .     S
C1359  H1372   1.109   .     S
C1359  H1373   1.111   .     S
C1359  H1374   1.111   .     S
C1360  N1387   1.158   .     T
C1361  N1388   1.158   .     T
C1362  O1396   1.288   .     A
C1362  C1364   1.402   .     S
C1362  O1394   1.281   .     A
C1363  O1397   1.288   .     A
C1363  C1365   1.402   .     S
C1363  O1395   1.281   .     A
C1364  C1477   1.333   1_455 S
C1364  H1481   1.087   1_455 S
C1365  C1420   1.333   .     S
C1365  H1431   1.087   .     S
C1367  C1010   1.370   1_565 S
C1368  H1376   1.083   .     S
C1368  C1030   1.370   1_565 S
H1369  C1420   1.087   .     S
H1375  C1477   1.087   1_455 S
N1383  Zn1399  2.024   .     S
N1384  Zn1400  2.024   .     S
O1389  Zn1399  2.008   .     S
O1391  Zn1400  2.008   .     S
O1392  Zn1400  2.021   .     S
O1393  Zn1399  2.021   .     S
O1394  Zn1399  1.962   .     S
O1395  Zn1400  1.962   .     S
O1396  Zn1400  1.978   .     S
O1397  Zn1399  1.978   .     S
C1401  O1448   1.286   .     A
C1401  C1404   1.433   .     S
C1401  O1445   1.297   .     A
C1402  C1404   1.396   .     A
C1402  H1433   1.083   .     S
C1403  C1412   1.433   .     S
C1403  C1423   1.411   .     A
C1403  C1424   1.396   .     A
C1404  C1422   1.411   .     A
C1405  O1454   1.384   .     S
C1405  N1440   1.370   .     A
C1406  O1446   1.384   .     S
C1406  N1439   1.370   .     A
C1406  C400    1.428   1_556 S
C1407  C1416   1.440   .     S
C1407  N1439   1.373   .     A
C1407  C397    1.428   1_556 S
C1408  N1440   1.373   .     A
C1408  C1417   1.440   .     S
C1409  N1441   1.157   .     T
C1409  C1422   1.446   .     S
C1410  C1423   1.446   .     S
C1410  N1442   1.157   .     T
C1411  H1435   1.109   .     S
C1411  C1413   1.522   .     S
C1411  O1454   1.414   .     S
C1411  H1434   1.111   .     S
C1412  O1449   1.286   .     A
C1412  O1447   1.297   .     A
C1413  H1437   1.111   .     S
C1413  H1438   1.109   .     S
C1413  H1436   1.111   .     S
C1414  O1446   1.414   .     S
C1414  H1426   1.109   .     S
C1414  H1427   1.111   .     S
C1414  C1415   1.522   .     S
C1415  H1428   1.109   .     S
C1415  H1429   1.111   .     S
C1415  H1430   1.111   .     S
C1416  N1443   1.158   .     T
C1417  N1444   1.158   .     T
C1418  O1452   1.288   .     A
C1418  C1420   1.402   .     S
C1418  O1450   1.281   .     A
C1419  O1453   1.288   .     A
C1419  C1421   1.402   .     S
C1419  O1451   1.281   .     A
C1421  C1476   1.333   .     S
C1421  H1487   1.087   .     S
C1423  C1066   1.370   1_565 S
C1424  H1432   1.083   .     S
C1424  C1086   1.370   1_565 S
H1425  C1476   1.087   .     S
N1439  Zn1455  2.024   .     S
N1440  Zn1456  2.024   .     S
O1445  Zn1455  2.008   .     S
O1447  Zn1456  2.008   .     S
O1448  Zn1456  2.021   .     S
O1449  Zn1455  2.021   .     S
O1450  Zn1455  1.962   .     S
O1451  Zn1456  1.962   .     S
O1452  Zn1456  1.978   .     S
O1453  Zn1455  1.978   .     S
C1457  O1504   1.286   .     A
C1457  C1460   1.433   .     S
C1457  O1501   1.297   .     A
C1458  C1460   1.396   .     A
C1458  H1489   1.083   .     S
C1459  C1468   1.433   .     S
C1459  C1479   1.411   .     A
C1459  C1480   1.396   .     A
C1460  C1478   1.411   .     A
C1461  O1510   1.384   .     S
C1461  N1496   1.370   .     A
C1462  O1502   1.384   .     S
C1462  N1495   1.370   .     A
C1462  C456    1.428   1_556 S
C1463  C1472   1.440   .     S
C1463  N1495   1.373   .     A
C1463  C453    1.428   1_556 S
C1464  N1496   1.373   .     A
C1464  C1473   1.440   .     S
C1465  N1497   1.157   .     T
C1465  C1478   1.446   .     S
C1466  C1479   1.446   .     S
C1466  N1498   1.157   .     T
C1467  H1491   1.109   .     S
C1467  C1469   1.522   .     S
C1467  O1510   1.414   .     S
C1467  H1490   1.111   .     S
C1468  O1505   1.286   .     A
C1468  O1503   1.297   .     A
C1469  H1493   1.111   .     S
C1469  H1494   1.109   .     S
C1469  H1492   1.111   .     S
C1470  O1502   1.414   .     S
C1470  H1482   1.109   .     S
C1470  H1483   1.111   .     S
C1470  C1471   1.522   .     S
C1471  H1484   1.109   .     S
C1471  H1485   1.111   .     S
C1471  H1486   1.111   .     S
C1472  N1499   1.158   .     T
C1473  N1500   1.158   .     T
C1474  O1508   1.288   .     A
C1474  C1476   1.402   .     S
C1474  O1506   1.281   .     A
C1475  O1509   1.288   .     A
C1475  C1477   1.402   .     S
C1475  O1507   1.281   .     A
C1477  C1364   1.333   1_655 S
C1477  H1375   1.087   1_655 S
C1479  C1122   1.370   1_565 S
C1480  H1488   1.083   .     S
C1480  C1142   1.370   1_565 S
H1481  C1364   1.087   1_655 S
N1495  Zn1511  2.024   .     S
N1496  Zn1512  2.024   .     S
O1501  Zn1511  2.008   .     S
O1503  Zn1512  2.008   .     S
O1504  Zn1512  2.021   .     S
O1505  Zn1511  2.021   .     S
O1506  Zn1511  1.962   .     S
O1507  Zn1512  1.962   .     S
O1508  Zn1512  1.978   .     S
O1509  Zn1511  1.978   .     S
