data_str_m3_o1_o10_pcu_sym.57
_audit_creation_date              2020-01-03
_audit_creation_method            'Materials Studio'
_symmetry_space_group_name_H-M    'P1'
_symmetry_Int_Tables_number       1
_symmetry_cell_setting            triclinic
loop_
_symmetry_equiv_pos_as_xyz
  x,y,z
_cell_length_a                    25.7650
_cell_length_b                    31.7417
_cell_length_c                    30.0541
_cell_angle_alpha                 90.7130
_cell_angle_beta                  97.8745
_cell_angle_gamma                 91.5845
loop_
_atom_site_label
_atom_site_type_symbol
_atom_site_fract_x
_atom_site_fract_y
_atom_site_fract_z
_atom_site_U_iso_or_equiv
_atom_site_adp_type
_atom_site_occupancy
C1     C     0.16650   0.08687   0.16643   0.00000  Uiso   1.00
C2     C     0.20703   0.02294   0.19367   0.00000  Uiso   1.00
C3     C     0.16718   0.29052   0.16715   0.00000  Uiso   1.00
C4     C     0.16720   0.04263   0.16618   0.00000  Uiso   1.00
C5     C     0.19448   0.19682   0.02748   0.00000  Uiso   1.00
C6     C     0.13934   0.13624   0.30587   0.00000  Uiso   1.00
C7     C     0.19194   0.19809   0.31295   0.00000  Uiso   1.00
C8     C     0.13748   0.13754   0.01991   0.00000  Uiso   1.00
C9     C     0.32968   0.11104   0.13286   0.00000  Uiso   1.00
C10    C     0.00897   0.21340   0.20808   0.00000  Uiso   1.00
C11    C     0.22986   0.22741   0.05496   0.00000  Uiso   1.00
C12    C     0.16720   0.24640   0.16695   0.00000  Uiso   1.00
C13    C     0.28276   0.21789   0.06672   0.00000  Uiso   1.00
C14    C     0.31836   0.24843   0.08754   0.00000  Uiso   1.00
C15    C     0.30147   0.28871   0.09673   0.00000  Uiso   1.00
C16    C     0.24907   0.29870   0.08421   0.00000  Uiso   1.00
C17    C     0.21352   0.26840   0.06278   0.00000  Uiso   1.00
C18    C     0.10906   0.10245   0.27863   0.00000  Uiso   1.00
C19    C     0.12958   0.06200   0.27655   0.00000  Uiso   1.00
C20    C     0.09887   0.02892   0.25453   0.00000  Uiso   1.00
C21    C     0.04724   0.03577   0.23553   0.00000  Uiso   1.00
C22    C     0.02600   0.07544   0.23928   0.00000  Uiso   1.00
C23    C     0.06750   0.16445   0.15540   0.00000  Uiso   1.00
C24    C     0.05661   0.10853   0.26106   0.00000  Uiso   1.00
C25    C     0.21370   0.23548   0.29299   0.00000  Uiso   1.00
C26    C     0.09973   0.10911   0.03755   0.00000  Uiso   1.00
C27    C     0.26587   0.16821   0.17811   0.00000  Uiso   1.00
C28    C     0.01340   0.15373   0.15300   0.00000  Uiso   1.00
C29    C     0.32041   0.17523   0.18164   0.00000  Uiso   1.00
C30    C     0.12745   0.02000   0.13926   0.00000  Uiso   1.00
C31    C     0.20736   0.31299   0.19375   0.00000  Uiso   1.00
C32    C     0.12754   0.31018   0.13960   0.00000  Uiso   1.00
H33    H     0.09601   0.03550   0.11904   0.00000  Uiso   1.00
H34    H     0.23600   0.33000   0.09070   0.00000  Uiso   1.00
H35    H     0.17325   0.27677   0.05231   0.00000  Uiso   1.00
H36    H     0.16928   0.05622   0.29176   0.00000  Uiso   1.00
H37    H     0.11502   0.33131   0.25231   0.00000  Uiso   1.00
H38    H     0.02339   0.01026   0.21851   0.00000  Uiso   1.00
H39    H     0.31898   0.08056   0.22579   0.00000  Uiso   1.00
H40    H     0.03917   0.13863   0.26519   0.00000  Uiso   1.00
H41    H     0.21109   0.29860   0.28595   0.00000  Uiso   1.00
H42    H     0.02270   0.09394   0.03362   0.00000  Uiso   1.00
H43    H     0.23892   0.29710   0.21373   0.00000  Uiso   1.00
H44    H     0.09681   0.29216   0.11890   0.00000  Uiso   1.00
H45    H     0.23761   0.04099   0.21450   0.00000  Uiso   1.00
H46    H     0.27606   0.06300   0.12353   0.00000  Uiso   1.00
H47    H     0.04730   0.26970   0.20856   0.00000  Uiso   1.00
H48    H     0.29654   0.18704   0.05906   0.00000  Uiso   1.00
H49    H     0.02578   0.24085   0.09624   0.00000  Uiso   1.00
H50    H     0.32905   0.31228   0.11308   0.00000  Uiso   1.00
N51    N     0.16665   0.16666   0.28573   0.00000  Uiso   1.00
N52    N     0.16668   0.16668   0.04760   0.00000  Uiso   1.00
O53    O     0.16666   0.10558   0.20487   0.00000  Uiso   1.00
O54    O     0.28101   0.09232   0.13747   0.00000  Uiso   1.00
O55    O     0.00923   0.21466   0.24871   0.00000  Uiso   1.00
O56    O     0.03182   0.24659   0.18676   0.00000  Uiso   1.00
O57    O     0.25303   0.23300   0.27496   0.00000  Uiso   1.00
O58    O     0.19015   0.27427   0.29678   0.00000  Uiso   1.00
O59    O     0.11317   0.07441   0.05092   0.00000  Uiso   1.00
O60    O     0.04685   0.11926   0.03103   0.00000  Uiso   1.00
O61    O     0.16667   0.22775   0.12846   0.00000  Uiso   1.00
O62    O     0.16666   0.10559   0.12843   0.00000  Uiso   1.00
O63    O     0.16667   0.22774   0.20490   0.00000  Uiso   1.00
O64    O     0.09058   0.16666   0.19595   0.00000  Uiso   1.00
O65    O     0.24275   0.16667   0.13739   0.00000  Uiso   1.00
O66    O     0.09058   0.16667   0.11950   0.00000  Uiso   1.00
O67    O     0.24275   0.16666   0.21383   0.00000  Uiso   1.00
O68    O     0.02737   0.09057   0.11496   0.00000  Uiso   1.00
Zn69   Zn    0.16667   0.16666   0.21771   0.00000  Uiso   1.00
Zn70   Zn    0.16667   0.16667   0.11563   0.00000  Uiso   1.00
C71    C     0.49983   0.08687   0.16643   0.00000  Uiso   1.00
C72    C     0.54036   0.02294   0.19367   0.00000  Uiso   1.00
C73    C     0.50051   0.29052   0.16715   0.00000  Uiso   1.00
C74    C     0.50053   0.04263   0.16618   0.00000  Uiso   1.00
C75    C     0.52781   0.19682   0.02748   0.00000  Uiso   1.00
C76    C     0.47267   0.13624   0.30587   0.00000  Uiso   1.00
C77    C     0.52527   0.19809   0.31295   0.00000  Uiso   1.00
C78    C     0.47081   0.13754   0.01991   0.00000  Uiso   1.00
C79    C     0.66301   0.11104   0.13286   0.00000  Uiso   1.00
C80    C     0.34231   0.21340   0.20808   0.00000  Uiso   1.00
C81    C     0.56319   0.22741   0.05496   0.00000  Uiso   1.00
C82    C     0.50053   0.24640   0.16695   0.00000  Uiso   1.00
C83    C     0.61609   0.21789   0.06672   0.00000  Uiso   1.00
C84    C     0.65170   0.24843   0.08754   0.00000  Uiso   1.00
C85    C     0.63480   0.28871   0.09673   0.00000  Uiso   1.00
C86    C     0.58240   0.29870   0.08421   0.00000  Uiso   1.00
C87    C     0.54685   0.26840   0.06278   0.00000  Uiso   1.00
C88    C     0.44239   0.10245   0.27863   0.00000  Uiso   1.00
C89    C     0.46291   0.06200   0.27655   0.00000  Uiso   1.00
C90    C     0.43220   0.02892   0.25453   0.00000  Uiso   1.00
C91    C     0.38057   0.03577   0.23553   0.00000  Uiso   1.00
C92    C     0.35933   0.07544   0.23928   0.00000  Uiso   1.00
C93    C     0.40083   0.16445   0.15540   0.00000  Uiso   1.00
C94    C     0.38995   0.10853   0.26106   0.00000  Uiso   1.00
C95    C     0.54703   0.23548   0.29299   0.00000  Uiso   1.00
C96    C     0.43307   0.10911   0.03755   0.00000  Uiso   1.00
C97    C     0.59921   0.16821   0.17811   0.00000  Uiso   1.00
C98    C     0.34673   0.15373   0.15300   0.00000  Uiso   1.00
C99    C     0.65375   0.17523   0.18164   0.00000  Uiso   1.00
C100   C     0.46078   0.02000   0.13926   0.00000  Uiso   1.00
C101   C     0.54069   0.31299   0.19375   0.00000  Uiso   1.00
C102   C     0.46088   0.31018   0.13960   0.00000  Uiso   1.00
H103   H     0.42934   0.03550   0.11904   0.00000  Uiso   1.00
H104   H     0.56934   0.33000   0.09070   0.00000  Uiso   1.00
H105   H     0.50659   0.27677   0.05231   0.00000  Uiso   1.00
H106   H     0.50261   0.05622   0.29176   0.00000  Uiso   1.00
H107   H     0.44835   0.33131   0.25231   0.00000  Uiso   1.00
H108   H     0.35673   0.01026   0.21851   0.00000  Uiso   1.00
H109   H     0.65231   0.08056   0.22579   0.00000  Uiso   1.00
H110   H     0.37251   0.13863   0.26519   0.00000  Uiso   1.00
H111   H     0.54442   0.29860   0.28595   0.00000  Uiso   1.00
H112   H     0.35604   0.09394   0.03362   0.00000  Uiso   1.00
H113   H     0.57225   0.29710   0.21373   0.00000  Uiso   1.00
H114   H     0.43015   0.29216   0.11890   0.00000  Uiso   1.00
H115   H     0.57094   0.04099   0.21450   0.00000  Uiso   1.00
H116   H     0.60940   0.06300   0.12353   0.00000  Uiso   1.00
H117   H     0.38063   0.26970   0.20856   0.00000  Uiso   1.00
H118   H     0.62987   0.18704   0.05906   0.00000  Uiso   1.00
H119   H     0.35912   0.24085   0.09624   0.00000  Uiso   1.00
H120   H     0.66238   0.31228   0.11308   0.00000  Uiso   1.00
N121   N     0.49999   0.16666   0.28573   0.00000  Uiso   1.00
N122   N     0.50001   0.16668   0.04760   0.00000  Uiso   1.00
O123   O     0.50000   0.10558   0.20487   0.00000  Uiso   1.00
O124   O     0.61434   0.09232   0.13747   0.00000  Uiso   1.00
O125   O     0.34256   0.21466   0.24871   0.00000  Uiso   1.00
O126   O     0.36515   0.24659   0.18676   0.00000  Uiso   1.00
O127   O     0.58636   0.23300   0.27496   0.00000  Uiso   1.00
O128   O     0.52349   0.27427   0.29678   0.00000  Uiso   1.00
O129   O     0.44651   0.07441   0.05092   0.00000  Uiso   1.00
O130   O     0.38018   0.11926   0.03103   0.00000  Uiso   1.00
O131   O     0.50000   0.22775   0.12846   0.00000  Uiso   1.00
O132   O     0.50000   0.10559   0.12843   0.00000  Uiso   1.00
O133   O     0.50000   0.22774   0.20490   0.00000  Uiso   1.00
O134   O     0.42392   0.16666   0.19595   0.00000  Uiso   1.00
O135   O     0.57608   0.16667   0.13739   0.00000  Uiso   1.00
O136   O     0.42392   0.16667   0.11950   0.00000  Uiso   1.00
O137   O     0.57608   0.16666   0.21383   0.00000  Uiso   1.00
O138   O     0.36070   0.09057   0.11496   0.00000  Uiso   1.00
Zn139  Zn    0.50000   0.16666   0.21771   0.00000  Uiso   1.00
Zn140  Zn    0.50000   0.16667   0.11563   0.00000  Uiso   1.00
C141   C     0.83317   0.08687   0.16643   0.00000  Uiso   1.00
C142   C     0.87370   0.02294   0.19367   0.00000  Uiso   1.00
C143   C     0.83385   0.29052   0.16715   0.00000  Uiso   1.00
C144   C     0.83386   0.04263   0.16618   0.00000  Uiso   1.00
C145   C     0.86115   0.19682   0.02748   0.00000  Uiso   1.00
C146   C     0.80601   0.13624   0.30587   0.00000  Uiso   1.00
C147   C     0.85861   0.19809   0.31295   0.00000  Uiso   1.00
C148   C     0.80414   0.13754   0.01991   0.00000  Uiso   1.00
C149   C     0.99634   0.11104   0.13286   0.00000  Uiso   1.00
C150   C     0.67564   0.21340   0.20808   0.00000  Uiso   1.00
C151   C     0.89653   0.22741   0.05496   0.00000  Uiso   1.00
C152   C     0.83387   0.24640   0.16695   0.00000  Uiso   1.00
C153   C     0.94942   0.21789   0.06672   0.00000  Uiso   1.00
C154   C     0.98503   0.24843   0.08754   0.00000  Uiso   1.00
C155   C     0.96814   0.28871   0.09673   0.00000  Uiso   1.00
C156   C     0.91574   0.29870   0.08421   0.00000  Uiso   1.00
C157   C     0.88018   0.26840   0.06278   0.00000  Uiso   1.00
C158   C     0.77573   0.10245   0.27863   0.00000  Uiso   1.00
C159   C     0.79624   0.06200   0.27655   0.00000  Uiso   1.00
C160   C     0.76554   0.02892   0.25453   0.00000  Uiso   1.00
C161   C     0.71390   0.03577   0.23553   0.00000  Uiso   1.00
C162   C     0.69267   0.07544   0.23928   0.00000  Uiso   1.00
C163   C     0.73417   0.16445   0.15540   0.00000  Uiso   1.00
C164   C     0.72328   0.10853   0.26106   0.00000  Uiso   1.00
C165   C     0.88036   0.23548   0.29299   0.00000  Uiso   1.00
C166   C     0.76640   0.10911   0.03755   0.00000  Uiso   1.00
C167   C     0.93254   0.16821   0.17811   0.00000  Uiso   1.00
C168   C     0.68007   0.15373   0.15300   0.00000  Uiso   1.00
C169   C     0.98708   0.17523   0.18164   0.00000  Uiso   1.00
C170   C     0.79412   0.02000   0.13926   0.00000  Uiso   1.00
C171   C     0.87403   0.31299   0.19375   0.00000  Uiso   1.00
C172   C     0.79421   0.31018   0.13960   0.00000  Uiso   1.00
H173   H     0.76268   0.03550   0.11904   0.00000  Uiso   1.00
H174   H     0.90267   0.33000   0.09070   0.00000  Uiso   1.00
H175   H     0.83992   0.27677   0.05231   0.00000  Uiso   1.00
H176   H     0.83594   0.05622   0.29176   0.00000  Uiso   1.00
H177   H     0.78169   0.33131   0.25231   0.00000  Uiso   1.00
H178   H     0.69006   0.01026   0.21851   0.00000  Uiso   1.00
H179   H     0.98564   0.08056   0.22579   0.00000  Uiso   1.00
H180   H     0.70584   0.13863   0.26519   0.00000  Uiso   1.00
H181   H     0.87776   0.29860   0.28595   0.00000  Uiso   1.00
H182   H     0.68937   0.09394   0.03362   0.00000  Uiso   1.00
H183   H     0.90559   0.29710   0.21373   0.00000  Uiso   1.00
H184   H     0.76348   0.29216   0.11890   0.00000  Uiso   1.00
H185   H     0.90427   0.04099   0.21450   0.00000  Uiso   1.00
H186   H     0.94273   0.06300   0.12353   0.00000  Uiso   1.00
H187   H     0.71397   0.26970   0.20856   0.00000  Uiso   1.00
H188   H     0.96321   0.18704   0.05906   0.00000  Uiso   1.00
H189   H     0.69245   0.24085   0.09624   0.00000  Uiso   1.00
H190   H     0.99571   0.31228   0.11308   0.00000  Uiso   1.00
N191   N     0.83332   0.16666   0.28573   0.00000  Uiso   1.00
N192   N     0.83335   0.16668   0.04760   0.00000  Uiso   1.00
O193   O     0.83333   0.10558   0.20487   0.00000  Uiso   1.00
O194   O     0.94768   0.09232   0.13747   0.00000  Uiso   1.00
O195   O     0.67589   0.21466   0.24871   0.00000  Uiso   1.00
O196   O     0.69849   0.24659   0.18676   0.00000  Uiso   1.00
O197   O     0.91969   0.23300   0.27496   0.00000  Uiso   1.00
O198   O     0.85682   0.27427   0.29678   0.00000  Uiso   1.00
O199   O     0.77984   0.07441   0.05092   0.00000  Uiso   1.00
O200   O     0.71351   0.11926   0.03103   0.00000  Uiso   1.00
O201   O     0.83334   0.22775   0.12846   0.00000  Uiso   1.00
O202   O     0.83333   0.10559   0.12843   0.00000  Uiso   1.00
O203   O     0.83334   0.22774   0.20490   0.00000  Uiso   1.00
O204   O     0.75725   0.16666   0.19595   0.00000  Uiso   1.00
O205   O     0.90942   0.16667   0.13739   0.00000  Uiso   1.00
O206   O     0.75725   0.16667   0.11950   0.00000  Uiso   1.00
O207   O     0.90942   0.16666   0.21383   0.00000  Uiso   1.00
O208   O     0.69403   0.09057   0.11496   0.00000  Uiso   1.00
Zn209  Zn    0.83333   0.16666   0.21771   0.00000  Uiso   1.00
Zn210  Zn    0.83333   0.16667   0.11563   0.00000  Uiso   1.00
C211   C     0.16650   0.42020   0.16643   0.00000  Uiso   1.00
C212   C     0.20703   0.35627   0.19367   0.00000  Uiso   1.00
C213   C     0.16718   0.62386   0.16715   0.00000  Uiso   1.00
C214   C     0.16720   0.37596   0.16618   0.00000  Uiso   1.00
C215   C     0.19448   0.53015   0.02748   0.00000  Uiso   1.00
C216   C     0.13934   0.46958   0.30587   0.00000  Uiso   1.00
C217   C     0.19194   0.53142   0.31295   0.00000  Uiso   1.00
C218   C     0.13748   0.47087   0.01991   0.00000  Uiso   1.00
C219   C     0.32968   0.44437   0.13286   0.00000  Uiso   1.00
C220   C     0.00897   0.54674   0.20808   0.00000  Uiso   1.00
C221   C     0.22986   0.56075   0.05496   0.00000  Uiso   1.00
C222   C     0.16720   0.57973   0.16695   0.00000  Uiso   1.00
C223   C     0.28276   0.55122   0.06672   0.00000  Uiso   1.00
C224   C     0.31836   0.58177   0.08754   0.00000  Uiso   1.00
C225   C     0.30147   0.62204   0.09673   0.00000  Uiso   1.00
C226   C     0.24907   0.63204   0.08421   0.00000  Uiso   1.00
C227   C     0.21352   0.60173   0.06278   0.00000  Uiso   1.00
C228   C     0.10906   0.43578   0.27863   0.00000  Uiso   1.00
C229   C     0.12958   0.39533   0.27655   0.00000  Uiso   1.00
C230   C     0.09887   0.36225   0.25453   0.00000  Uiso   1.00
C231   C     0.04724   0.36910   0.23553   0.00000  Uiso   1.00
C232   C     0.02600   0.40878   0.23928   0.00000  Uiso   1.00
C233   C     0.06750   0.49778   0.15540   0.00000  Uiso   1.00
C234   C     0.05661   0.44187   0.26106   0.00000  Uiso   1.00
C235   C     0.21370   0.56882   0.29299   0.00000  Uiso   1.00
C236   C     0.09973   0.44244   0.03755   0.00000  Uiso   1.00
C237   C     0.26587   0.50154   0.17811   0.00000  Uiso   1.00
C238   C     0.01340   0.48706   0.15300   0.00000  Uiso   1.00
C239   C     0.32041   0.50857   0.18164   0.00000  Uiso   1.00
C240   C     0.12745   0.35333   0.13926   0.00000  Uiso   1.00
C241   C     0.20736   0.64633   0.19375   0.00000  Uiso   1.00
C242   C     0.12754   0.64351   0.13960   0.00000  Uiso   1.00
H243   H     0.09601   0.36883   0.11904   0.00000  Uiso   1.00
H244   H     0.23600   0.66333   0.09070   0.00000  Uiso   1.00
H245   H     0.17325   0.61010   0.05231   0.00000  Uiso   1.00
H246   H     0.16928   0.38955   0.29176   0.00000  Uiso   1.00
H247   H     0.11502   0.66464   0.25231   0.00000  Uiso   1.00
H248   H     0.02339   0.34360   0.21851   0.00000  Uiso   1.00
H249   H     0.31898   0.41389   0.22579   0.00000  Uiso   1.00
H250   H     0.03917   0.47197   0.26519   0.00000  Uiso   1.00
H251   H     0.21109   0.63193   0.28595   0.00000  Uiso   1.00
H252   H     0.02270   0.42728   0.03362   0.00000  Uiso   1.00
H253   H     0.23892   0.63043   0.21373   0.00000  Uiso   1.00
H254   H     0.09681   0.62549   0.11890   0.00000  Uiso   1.00
H255   H     0.23761   0.37432   0.21450   0.00000  Uiso   1.00
H256   H     0.27606   0.39633   0.12353   0.00000  Uiso   1.00
H257   H     0.04730   0.60303   0.20856   0.00000  Uiso   1.00
H258   H     0.29654   0.52037   0.05906   0.00000  Uiso   1.00
H259   H     0.02578   0.57418   0.09624   0.00000  Uiso   1.00
H260   H     0.32905   0.64562   0.11308   0.00000  Uiso   1.00
N261   N     0.16665   0.49999   0.28573   0.00000  Uiso   1.00
N262   N     0.16668   0.50001   0.04760   0.00000  Uiso   1.00
O263   O     0.16666   0.43892   0.20487   0.00000  Uiso   1.00
O264   O     0.28101   0.42565   0.13747   0.00000  Uiso   1.00
O265   O     0.00923   0.54800   0.24871   0.00000  Uiso   1.00
O266   O     0.03182   0.57992   0.18676   0.00000  Uiso   1.00
O267   O     0.25303   0.56633   0.27496   0.00000  Uiso   1.00
O268   O     0.19015   0.60760   0.29678   0.00000  Uiso   1.00
O269   O     0.11317   0.40774   0.05092   0.00000  Uiso   1.00
O270   O     0.04685   0.45259   0.03103   0.00000  Uiso   1.00
O271   O     0.16667   0.56108   0.12846   0.00000  Uiso   1.00
O272   O     0.16666   0.43893   0.12843   0.00000  Uiso   1.00
O273   O     0.16667   0.56107   0.20490   0.00000  Uiso   1.00
O274   O     0.09058   0.50000   0.19595   0.00000  Uiso   1.00
O275   O     0.24275   0.50000   0.13739   0.00000  Uiso   1.00
O276   O     0.09058   0.50000   0.11950   0.00000  Uiso   1.00
O277   O     0.24275   0.50000   0.21383   0.00000  Uiso   1.00
O278   O     0.02737   0.42391   0.11496   0.00000  Uiso   1.00
Zn279  Zn    0.16667   0.49999   0.21771   0.00000  Uiso   1.00
Zn280  Zn    0.16667   0.50001   0.11563   0.00000  Uiso   1.00
C281   C     0.49983   0.42020   0.16643   0.00000  Uiso   1.00
C282   C     0.54036   0.35627   0.19367   0.00000  Uiso   1.00
C283   C     0.50051   0.62386   0.16715   0.00000  Uiso   1.00
C284   C     0.50053   0.37596   0.16618   0.00000  Uiso   1.00
C285   C     0.52781   0.53015   0.02748   0.00000  Uiso   1.00
C286   C     0.47267   0.46958   0.30587   0.00000  Uiso   1.00
C287   C     0.52527   0.53142   0.31295   0.00000  Uiso   1.00
C288   C     0.47081   0.47087   0.01991   0.00000  Uiso   1.00
C289   C     0.66301   0.44437   0.13286   0.00000  Uiso   1.00
C290   C     0.34231   0.54674   0.20808   0.00000  Uiso   1.00
C291   C     0.56319   0.56075   0.05496   0.00000  Uiso   1.00
C292   C     0.50053   0.57973   0.16695   0.00000  Uiso   1.00
C293   C     0.61609   0.55122   0.06672   0.00000  Uiso   1.00
C294   C     0.65170   0.58177   0.08754   0.00000  Uiso   1.00
C295   C     0.63480   0.62204   0.09673   0.00000  Uiso   1.00
C296   C     0.58240   0.63204   0.08421   0.00000  Uiso   1.00
C297   C     0.54685   0.60173   0.06278   0.00000  Uiso   1.00
C298   C     0.44239   0.43578   0.27863   0.00000  Uiso   1.00
C299   C     0.46291   0.39533   0.27655   0.00000  Uiso   1.00
C300   C     0.43220   0.36225   0.25453   0.00000  Uiso   1.00
C301   C     0.38057   0.36910   0.23553   0.00000  Uiso   1.00
C302   C     0.35933   0.40878   0.23928   0.00000  Uiso   1.00
C303   C     0.40083   0.49778   0.15540   0.00000  Uiso   1.00
C304   C     0.38995   0.44187   0.26106   0.00000  Uiso   1.00
C305   C     0.54703   0.56882   0.29299   0.00000  Uiso   1.00
C306   C     0.43307   0.44244   0.03755   0.00000  Uiso   1.00
C307   C     0.59921   0.50154   0.17811   0.00000  Uiso   1.00
C308   C     0.34673   0.48706   0.15300   0.00000  Uiso   1.00
C309   C     0.65375   0.50857   0.18164   0.00000  Uiso   1.00
C310   C     0.46078   0.35333   0.13926   0.00000  Uiso   1.00
C311   C     0.54069   0.64633   0.19375   0.00000  Uiso   1.00
C312   C     0.46088   0.64351   0.13960   0.00000  Uiso   1.00
H313   H     0.42934   0.36883   0.11904   0.00000  Uiso   1.00
H314   H     0.56934   0.66333   0.09070   0.00000  Uiso   1.00
H315   H     0.50659   0.61010   0.05231   0.00000  Uiso   1.00
H316   H     0.50261   0.38955   0.29176   0.00000  Uiso   1.00
H317   H     0.44835   0.66464   0.25231   0.00000  Uiso   1.00
H318   H     0.35673   0.34360   0.21851   0.00000  Uiso   1.00
H319   H     0.65231   0.41389   0.22579   0.00000  Uiso   1.00
H320   H     0.37251   0.47197   0.26519   0.00000  Uiso   1.00
H321   H     0.54442   0.63193   0.28595   0.00000  Uiso   1.00
H322   H     0.35604   0.42728   0.03362   0.00000  Uiso   1.00
H323   H     0.57225   0.63043   0.21373   0.00000  Uiso   1.00
H324   H     0.43015   0.62549   0.11890   0.00000  Uiso   1.00
H325   H     0.57094   0.37432   0.21450   0.00000  Uiso   1.00
H326   H     0.60940   0.39633   0.12353   0.00000  Uiso   1.00
H327   H     0.38063   0.60303   0.20856   0.00000  Uiso   1.00
H328   H     0.62987   0.52037   0.05906   0.00000  Uiso   1.00
H329   H     0.35912   0.57418   0.09624   0.00000  Uiso   1.00
H330   H     0.66238   0.64562   0.11308   0.00000  Uiso   1.00
N331   N     0.49999   0.49999   0.28573   0.00000  Uiso   1.00
N332   N     0.50001   0.50001   0.04760   0.00000  Uiso   1.00
O333   O     0.50000   0.43892   0.20487   0.00000  Uiso   1.00
O334   O     0.61434   0.42565   0.13747   0.00000  Uiso   1.00
O335   O     0.34256   0.54800   0.24871   0.00000  Uiso   1.00
O336   O     0.36515   0.57992   0.18676   0.00000  Uiso   1.00
O337   O     0.58636   0.56633   0.27496   0.00000  Uiso   1.00
O338   O     0.52349   0.60760   0.29678   0.00000  Uiso   1.00
O339   O     0.44651   0.40774   0.05092   0.00000  Uiso   1.00
O340   O     0.38018   0.45259   0.03103   0.00000  Uiso   1.00
O341   O     0.50000   0.56108   0.12846   0.00000  Uiso   1.00
O342   O     0.50000   0.43893   0.12843   0.00000  Uiso   1.00
O343   O     0.50000   0.56107   0.20490   0.00000  Uiso   1.00
O344   O     0.42392   0.50000   0.19595   0.00000  Uiso   1.00
O345   O     0.57608   0.50000   0.13739   0.00000  Uiso   1.00
O346   O     0.42392   0.50000   0.11950   0.00000  Uiso   1.00
O347   O     0.57608   0.50000   0.21383   0.00000  Uiso   1.00
O348   O     0.36070   0.42391   0.11496   0.00000  Uiso   1.00
Zn349  Zn    0.50000   0.49999   0.21771   0.00000  Uiso   1.00
Zn350  Zn    0.50000   0.50001   0.11563   0.00000  Uiso   1.00
C351   C     0.83317   0.42020   0.16643   0.00000  Uiso   1.00
C352   C     0.87370   0.35627   0.19367   0.00000  Uiso   1.00
C353   C     0.83385   0.62386   0.16715   0.00000  Uiso   1.00
C354   C     0.83386   0.37596   0.16618   0.00000  Uiso   1.00
C355   C     0.86115   0.53015   0.02748   0.00000  Uiso   1.00
C356   C     0.80601   0.46958   0.30587   0.00000  Uiso   1.00
C357   C     0.85861   0.53142   0.31295   0.00000  Uiso   1.00
C358   C     0.80414   0.47087   0.01991   0.00000  Uiso   1.00
C359   C     0.99634   0.44437   0.13286   0.00000  Uiso   1.00
C360   C     0.67564   0.54674   0.20808   0.00000  Uiso   1.00
C361   C     0.89653   0.56075   0.05496   0.00000  Uiso   1.00
C362   C     0.83387   0.57973   0.16695   0.00000  Uiso   1.00
C363   C     0.94942   0.55122   0.06672   0.00000  Uiso   1.00
C364   C     0.98503   0.58177   0.08754   0.00000  Uiso   1.00
C365   C     0.96814   0.62204   0.09673   0.00000  Uiso   1.00
C366   C     0.91574   0.63204   0.08421   0.00000  Uiso   1.00
C367   C     0.88018   0.60173   0.06278   0.00000  Uiso   1.00
C368   C     0.77573   0.43578   0.27863   0.00000  Uiso   1.00
C369   C     0.79624   0.39533   0.27655   0.00000  Uiso   1.00
C370   C     0.76554   0.36225   0.25453   0.00000  Uiso   1.00
C371   C     0.71390   0.36910   0.23553   0.00000  Uiso   1.00
C372   C     0.69267   0.40878   0.23928   0.00000  Uiso   1.00
C373   C     0.73417   0.49778   0.15540   0.00000  Uiso   1.00
C374   C     0.72328   0.44187   0.26106   0.00000  Uiso   1.00
C375   C     0.88036   0.56882   0.29299   0.00000  Uiso   1.00
C376   C     0.76640   0.44244   0.03755   0.00000  Uiso   1.00
C377   C     0.93254   0.50154   0.17811   0.00000  Uiso   1.00
C378   C     0.68007   0.48706   0.15300   0.00000  Uiso   1.00
C379   C     0.98708   0.50857   0.18164   0.00000  Uiso   1.00
C380   C     0.79412   0.35333   0.13926   0.00000  Uiso   1.00
C381   C     0.87403   0.64633   0.19375   0.00000  Uiso   1.00
C382   C     0.79421   0.64351   0.13960   0.00000  Uiso   1.00
H383   H     0.76268   0.36883   0.11904   0.00000  Uiso   1.00
H384   H     0.90267   0.66333   0.09070   0.00000  Uiso   1.00
H385   H     0.83992   0.61010   0.05231   0.00000  Uiso   1.00
H386   H     0.83594   0.38955   0.29176   0.00000  Uiso   1.00
H387   H     0.78169   0.66464   0.25231   0.00000  Uiso   1.00
H388   H     0.69006   0.34360   0.21851   0.00000  Uiso   1.00
H389   H     0.98564   0.41389   0.22579   0.00000  Uiso   1.00
H390   H     0.70584   0.47197   0.26519   0.00000  Uiso   1.00
H391   H     0.87776   0.63193   0.28595   0.00000  Uiso   1.00
H392   H     0.68937   0.42728   0.03362   0.00000  Uiso   1.00
H393   H     0.90559   0.63043   0.21373   0.00000  Uiso   1.00
H394   H     0.76348   0.62549   0.11890   0.00000  Uiso   1.00
H395   H     0.90427   0.37432   0.21450   0.00000  Uiso   1.00
H396   H     0.94273   0.39633   0.12353   0.00000  Uiso   1.00
H397   H     0.71397   0.60303   0.20856   0.00000  Uiso   1.00
H398   H     0.96321   0.52037   0.05906   0.00000  Uiso   1.00
H399   H     0.69245   0.57418   0.09624   0.00000  Uiso   1.00
H400   H     0.99571   0.64562   0.11308   0.00000  Uiso   1.00
N401   N     0.83332   0.49999   0.28573   0.00000  Uiso   1.00
N402   N     0.83335   0.50001   0.04760   0.00000  Uiso   1.00
O403   O     0.83333   0.43892   0.20487   0.00000  Uiso   1.00
O404   O     0.94768   0.42565   0.13747   0.00000  Uiso   1.00
O405   O     0.67589   0.54800   0.24871   0.00000  Uiso   1.00
O406   O     0.69849   0.57992   0.18676   0.00000  Uiso   1.00
O407   O     0.91969   0.56633   0.27496   0.00000  Uiso   1.00
O408   O     0.85682   0.60760   0.29678   0.00000  Uiso   1.00
O409   O     0.77984   0.40774   0.05092   0.00000  Uiso   1.00
O410   O     0.71351   0.45259   0.03103   0.00000  Uiso   1.00
O411   O     0.83334   0.56108   0.12846   0.00000  Uiso   1.00
O412   O     0.83333   0.43893   0.12843   0.00000  Uiso   1.00
O413   O     0.83334   0.56107   0.20490   0.00000  Uiso   1.00
O414   O     0.75725   0.50000   0.19595   0.00000  Uiso   1.00
O415   O     0.90942   0.50000   0.13739   0.00000  Uiso   1.00
O416   O     0.75725   0.50000   0.11950   0.00000  Uiso   1.00
O417   O     0.90942   0.50000   0.21383   0.00000  Uiso   1.00
O418   O     0.69403   0.42391   0.11496   0.00000  Uiso   1.00
Zn419  Zn    0.83333   0.49999   0.21771   0.00000  Uiso   1.00
Zn420  Zn    0.83333   0.50001   0.11563   0.00000  Uiso   1.00
C421   C     0.16650   0.75353   0.16643   0.00000  Uiso   1.00
C422   C     0.20703   0.68961   0.19367   0.00000  Uiso   1.00
C423   C     0.16718   0.95719   0.16715   0.00000  Uiso   1.00
C424   C     0.16720   0.70930   0.16618   0.00000  Uiso   1.00
C425   C     0.19448   0.86348   0.02748   0.00000  Uiso   1.00
C426   C     0.13934   0.80291   0.30587   0.00000  Uiso   1.00
C427   C     0.19194   0.86475   0.31295   0.00000  Uiso   1.00
C428   C     0.13748   0.80420   0.01991   0.00000  Uiso   1.00
C429   C     0.32968   0.77770   0.13286   0.00000  Uiso   1.00
C430   C     0.00897   0.88007   0.20808   0.00000  Uiso   1.00
C431   C     0.22986   0.89408   0.05496   0.00000  Uiso   1.00
C432   C     0.16720   0.91307   0.16695   0.00000  Uiso   1.00
C433   C     0.28276   0.88455   0.06672   0.00000  Uiso   1.00
C434   C     0.31836   0.91510   0.08754   0.00000  Uiso   1.00
C435   C     0.30147   0.95538   0.09673   0.00000  Uiso   1.00
C436   C     0.24907   0.96537   0.08421   0.00000  Uiso   1.00
C437   C     0.21352   0.93506   0.06278   0.00000  Uiso   1.00
C438   C     0.10906   0.76911   0.27863   0.00000  Uiso   1.00
C439   C     0.12958   0.72866   0.27655   0.00000  Uiso   1.00
C440   C     0.09887   0.69558   0.25453   0.00000  Uiso   1.00
C441   C     0.04724   0.70243   0.23553   0.00000  Uiso   1.00
C442   C     0.02600   0.74211   0.23928   0.00000  Uiso   1.00
C443   C     0.06750   0.83112   0.15540   0.00000  Uiso   1.00
C444   C     0.05661   0.77520   0.26106   0.00000  Uiso   1.00
C445   C     0.21370   0.90215   0.29299   0.00000  Uiso   1.00
C446   C     0.09973   0.77577   0.03755   0.00000  Uiso   1.00
C447   C     0.26587   0.83487   0.17811   0.00000  Uiso   1.00
C448   C     0.01340   0.82040   0.15300   0.00000  Uiso   1.00
C449   C     0.32041   0.84190   0.18164   0.00000  Uiso   1.00
C450   C     0.12745   0.68667   0.13926   0.00000  Uiso   1.00
C451   C     0.20736   0.97966   0.19375   0.00000  Uiso   1.00
C452   C     0.12754   0.97684   0.13960   0.00000  Uiso   1.00
H453   H     0.09601   0.70216   0.11904   0.00000  Uiso   1.00
H454   H     0.23600   0.99667   0.09070   0.00000  Uiso   1.00
H455   H     0.17325   0.94344   0.05231   0.00000  Uiso   1.00
H456   H     0.16928   0.72288   0.29176   0.00000  Uiso   1.00
H457   H     0.11502   0.99797   0.25231   0.00000  Uiso   1.00
H458   H     0.02339   0.67693   0.21851   0.00000  Uiso   1.00
H459   H     0.31898   0.74722   0.22579   0.00000  Uiso   1.00
H460   H     0.03917   0.80530   0.26519   0.00000  Uiso   1.00
H461   H     0.21109   0.96527   0.28595   0.00000  Uiso   1.00
H462   H     0.02270   0.76061   0.03362   0.00000  Uiso   1.00
H463   H     0.23892   0.96377   0.21373   0.00000  Uiso   1.00
H464   H     0.09681   0.95882   0.11890   0.00000  Uiso   1.00
H465   H     0.23761   0.70765   0.21450   0.00000  Uiso   1.00
H466   H     0.27606   0.72967   0.12353   0.00000  Uiso   1.00
H467   H     0.04730   0.93636   0.20856   0.00000  Uiso   1.00
H468   H     0.29654   0.85370   0.05906   0.00000  Uiso   1.00
H469   H     0.02578   0.90752   0.09624   0.00000  Uiso   1.00
H470   H     0.32905   0.97895   0.11308   0.00000  Uiso   1.00
N471   N     0.16665   0.83332   0.28573   0.00000  Uiso   1.00
N472   N     0.16668   0.83334   0.04760   0.00000  Uiso   1.00
O473   O     0.16666   0.77225   0.20487   0.00000  Uiso   1.00
O474   O     0.28101   0.75898   0.13747   0.00000  Uiso   1.00
O475   O     0.00923   0.88133   0.24871   0.00000  Uiso   1.00
O476   O     0.03182   0.91326   0.18676   0.00000  Uiso   1.00
O477   O     0.25303   0.89967   0.27496   0.00000  Uiso   1.00
O478   O     0.19015   0.94093   0.29678   0.00000  Uiso   1.00
O479   O     0.11317   0.74107   0.05092   0.00000  Uiso   1.00
O480   O     0.04685   0.78593   0.03103   0.00000  Uiso   1.00
O481   O     0.16667   0.89442   0.12846   0.00000  Uiso   1.00
O482   O     0.16666   0.77226   0.12843   0.00000  Uiso   1.00
O483   O     0.16667   0.89441   0.20490   0.00000  Uiso   1.00
O484   O     0.09058   0.83333   0.19595   0.00000  Uiso   1.00
O485   O     0.24275   0.83334   0.13739   0.00000  Uiso   1.00
O486   O     0.09058   0.83334   0.11950   0.00000  Uiso   1.00
O487   O     0.24275   0.83333   0.21383   0.00000  Uiso   1.00
O488   O     0.02737   0.75724   0.11496   0.00000  Uiso   1.00
Zn489  Zn    0.16667   0.83333   0.21771   0.00000  Uiso   1.00
Zn490  Zn    0.16667   0.83334   0.11563   0.00000  Uiso   1.00
C491   C     0.49983   0.75353   0.16643   0.00000  Uiso   1.00
C492   C     0.54036   0.68961   0.19367   0.00000  Uiso   1.00
C493   C     0.50051   0.95719   0.16715   0.00000  Uiso   1.00
C494   C     0.50053   0.70930   0.16618   0.00000  Uiso   1.00
C495   C     0.52781   0.86348   0.02748   0.00000  Uiso   1.00
C496   C     0.47267   0.80291   0.30587   0.00000  Uiso   1.00
C497   C     0.52527   0.86475   0.31295   0.00000  Uiso   1.00
C498   C     0.47081   0.80420   0.01991   0.00000  Uiso   1.00
C499   C     0.66301   0.77770   0.13286   0.00000  Uiso   1.00
C500   C     0.34231   0.88007   0.20808   0.00000  Uiso   1.00
C501   C     0.56319   0.89408   0.05496   0.00000  Uiso   1.00
C502   C     0.50053   0.91307   0.16695   0.00000  Uiso   1.00
C503   C     0.61609   0.88455   0.06672   0.00000  Uiso   1.00
C504   C     0.65170   0.91510   0.08754   0.00000  Uiso   1.00
C505   C     0.63480   0.95538   0.09673   0.00000  Uiso   1.00
C506   C     0.58240   0.96537   0.08421   0.00000  Uiso   1.00
C507   C     0.54685   0.93506   0.06278   0.00000  Uiso   1.00
C508   C     0.44239   0.76911   0.27863   0.00000  Uiso   1.00
C509   C     0.46291   0.72866   0.27655   0.00000  Uiso   1.00
C510   C     0.43220   0.69558   0.25453   0.00000  Uiso   1.00
C511   C     0.38057   0.70243   0.23553   0.00000  Uiso   1.00
C512   C     0.35933   0.74211   0.23928   0.00000  Uiso   1.00
C513   C     0.40083   0.83112   0.15540   0.00000  Uiso   1.00
C514   C     0.38995   0.77520   0.26106   0.00000  Uiso   1.00
C515   C     0.54703   0.90215   0.29299   0.00000  Uiso   1.00
C516   C     0.43307   0.77577   0.03755   0.00000  Uiso   1.00
C517   C     0.59921   0.83487   0.17811   0.00000  Uiso   1.00
C518   C     0.34673   0.82040   0.15300   0.00000  Uiso   1.00
C519   C     0.65375   0.84190   0.18164   0.00000  Uiso   1.00
C520   C     0.46078   0.68667   0.13926   0.00000  Uiso   1.00
C521   C     0.54069   0.97966   0.19375   0.00000  Uiso   1.00
C522   C     0.46088   0.97684   0.13960   0.00000  Uiso   1.00
H523   H     0.42934   0.70216   0.11904   0.00000  Uiso   1.00
H524   H     0.56934   0.99667   0.09070   0.00000  Uiso   1.00
H525   H     0.50659   0.94344   0.05231   0.00000  Uiso   1.00
H526   H     0.50261   0.72288   0.29176   0.00000  Uiso   1.00
H527   H     0.44835   0.99797   0.25231   0.00000  Uiso   1.00
H528   H     0.35673   0.67693   0.21851   0.00000  Uiso   1.00
H529   H     0.65231   0.74722   0.22579   0.00000  Uiso   1.00
H530   H     0.37251   0.80530   0.26519   0.00000  Uiso   1.00
H531   H     0.54442   0.96527   0.28595   0.00000  Uiso   1.00
H532   H     0.35604   0.76061   0.03362   0.00000  Uiso   1.00
H533   H     0.57225   0.96377   0.21373   0.00000  Uiso   1.00
H534   H     0.43015   0.95882   0.11890   0.00000  Uiso   1.00
H535   H     0.57094   0.70765   0.21450   0.00000  Uiso   1.00
H536   H     0.60940   0.72967   0.12353   0.00000  Uiso   1.00
H537   H     0.38063   0.93636   0.20856   0.00000  Uiso   1.00
H538   H     0.62987   0.85370   0.05906   0.00000  Uiso   1.00
H539   H     0.35912   0.90752   0.09624   0.00000  Uiso   1.00
H540   H     0.66238   0.97895   0.11308   0.00000  Uiso   1.00
N541   N     0.49999   0.83332   0.28573   0.00000  Uiso   1.00
N542   N     0.50001   0.83334   0.04760   0.00000  Uiso   1.00
O543   O     0.50000   0.77225   0.20487   0.00000  Uiso   1.00
O544   O     0.61434   0.75898   0.13747   0.00000  Uiso   1.00
O545   O     0.34256   0.88133   0.24871   0.00000  Uiso   1.00
O546   O     0.36515   0.91326   0.18676   0.00000  Uiso   1.00
O547   O     0.58636   0.89967   0.27496   0.00000  Uiso   1.00
O548   O     0.52349   0.94093   0.29678   0.00000  Uiso   1.00
O549   O     0.44651   0.74107   0.05092   0.00000  Uiso   1.00
O550   O     0.38018   0.78593   0.03103   0.00000  Uiso   1.00
O551   O     0.50000   0.89442   0.12846   0.00000  Uiso   1.00
O552   O     0.50000   0.77226   0.12843   0.00000  Uiso   1.00
O553   O     0.50000   0.89441   0.20490   0.00000  Uiso   1.00
O554   O     0.42392   0.83333   0.19595   0.00000  Uiso   1.00
O555   O     0.57608   0.83334   0.13739   0.00000  Uiso   1.00
O556   O     0.42392   0.83334   0.11950   0.00000  Uiso   1.00
O557   O     0.57608   0.83333   0.21383   0.00000  Uiso   1.00
O558   O     0.36070   0.75724   0.11496   0.00000  Uiso   1.00
Zn559  Zn    0.50000   0.83333   0.21771   0.00000  Uiso   1.00
Zn560  Zn    0.50000   0.83334   0.11563   0.00000  Uiso   1.00
C561   C     0.83317   0.75353   0.16643   0.00000  Uiso   1.00
C562   C     0.87370   0.68961   0.19367   0.00000  Uiso   1.00
C563   C     0.83385   0.95719   0.16715   0.00000  Uiso   1.00
C564   C     0.83386   0.70930   0.16618   0.00000  Uiso   1.00
C565   C     0.86115   0.86348   0.02748   0.00000  Uiso   1.00
C566   C     0.80601   0.80291   0.30587   0.00000  Uiso   1.00
C567   C     0.85861   0.86475   0.31295   0.00000  Uiso   1.00
C568   C     0.80414   0.80420   0.01991   0.00000  Uiso   1.00
C569   C     0.99634   0.77770   0.13286   0.00000  Uiso   1.00
C570   C     0.67564   0.88007   0.20808   0.00000  Uiso   1.00
C571   C     0.89653   0.89408   0.05496   0.00000  Uiso   1.00
C572   C     0.83387   0.91307   0.16695   0.00000  Uiso   1.00
C573   C     0.94942   0.88455   0.06672   0.00000  Uiso   1.00
C574   C     0.98503   0.91510   0.08754   0.00000  Uiso   1.00
C575   C     0.96814   0.95538   0.09673   0.00000  Uiso   1.00
C576   C     0.91574   0.96537   0.08421   0.00000  Uiso   1.00
C577   C     0.88018   0.93506   0.06278   0.00000  Uiso   1.00
C578   C     0.77573   0.76911   0.27863   0.00000  Uiso   1.00
C579   C     0.79624   0.72866   0.27655   0.00000  Uiso   1.00
C580   C     0.76554   0.69558   0.25453   0.00000  Uiso   1.00
C581   C     0.71390   0.70243   0.23553   0.00000  Uiso   1.00
C582   C     0.69267   0.74211   0.23928   0.00000  Uiso   1.00
C583   C     0.73417   0.83112   0.15540   0.00000  Uiso   1.00
C584   C     0.72328   0.77520   0.26106   0.00000  Uiso   1.00
C585   C     0.88036   0.90215   0.29299   0.00000  Uiso   1.00
C586   C     0.76640   0.77577   0.03755   0.00000  Uiso   1.00
C587   C     0.93254   0.83487   0.17811   0.00000  Uiso   1.00
C588   C     0.68007   0.82040   0.15300   0.00000  Uiso   1.00
C589   C     0.98708   0.84190   0.18164   0.00000  Uiso   1.00
C590   C     0.79412   0.68667   0.13926   0.00000  Uiso   1.00
C591   C     0.87403   0.97966   0.19375   0.00000  Uiso   1.00
C592   C     0.79421   0.97684   0.13960   0.00000  Uiso   1.00
H593   H     0.76268   0.70216   0.11904   0.00000  Uiso   1.00
H594   H     0.90267   0.99667   0.09070   0.00000  Uiso   1.00
H595   H     0.83992   0.94344   0.05231   0.00000  Uiso   1.00
H596   H     0.83594   0.72288   0.29176   0.00000  Uiso   1.00
H597   H     0.78169   0.99797   0.25231   0.00000  Uiso   1.00
H598   H     0.69006   0.67693   0.21851   0.00000  Uiso   1.00
H599   H     0.98564   0.74722   0.22579   0.00000  Uiso   1.00
H600   H     0.70584   0.80530   0.26519   0.00000  Uiso   1.00
H601   H     0.87776   0.96527   0.28595   0.00000  Uiso   1.00
H602   H     0.68937   0.76061   0.03362   0.00000  Uiso   1.00
H603   H     0.90559   0.96377   0.21373   0.00000  Uiso   1.00
H604   H     0.76348   0.95882   0.11890   0.00000  Uiso   1.00
H605   H     0.90427   0.70765   0.21450   0.00000  Uiso   1.00
H606   H     0.94273   0.72967   0.12353   0.00000  Uiso   1.00
H607   H     0.71397   0.93636   0.20856   0.00000  Uiso   1.00
H608   H     0.96321   0.85370   0.05906   0.00000  Uiso   1.00
H609   H     0.69245   0.90752   0.09624   0.00000  Uiso   1.00
H610   H     0.99571   0.97895   0.11308   0.00000  Uiso   1.00
N611   N     0.83332   0.83332   0.28573   0.00000  Uiso   1.00
N612   N     0.83335   0.83334   0.04760   0.00000  Uiso   1.00
O613   O     0.83333   0.77225   0.20487   0.00000  Uiso   1.00
O614   O     0.94768   0.75898   0.13747   0.00000  Uiso   1.00
O615   O     0.67589   0.88133   0.24871   0.00000  Uiso   1.00
O616   O     0.69849   0.91326   0.18676   0.00000  Uiso   1.00
O617   O     0.91969   0.89967   0.27496   0.00000  Uiso   1.00
O618   O     0.85682   0.94093   0.29678   0.00000  Uiso   1.00
O619   O     0.77984   0.74107   0.05092   0.00000  Uiso   1.00
O620   O     0.71351   0.78593   0.03103   0.00000  Uiso   1.00
O621   O     0.83334   0.89442   0.12846   0.00000  Uiso   1.00
O622   O     0.83333   0.77226   0.12843   0.00000  Uiso   1.00
O623   O     0.83334   0.89441   0.20490   0.00000  Uiso   1.00
O624   O     0.75725   0.83333   0.19595   0.00000  Uiso   1.00
O625   O     0.90942   0.83334   0.13739   0.00000  Uiso   1.00
O626   O     0.75725   0.83334   0.11950   0.00000  Uiso   1.00
O627   O     0.90942   0.83333   0.21383   0.00000  Uiso   1.00
O628   O     0.69403   0.75724   0.11496   0.00000  Uiso   1.00
Zn629  Zn    0.83333   0.83333   0.21771   0.00000  Uiso   1.00
Zn630  Zn    0.83333   0.83334   0.11563   0.00000  Uiso   1.00
C631   C     0.16650   0.08687   0.49976   0.00000  Uiso   1.00
C632   C     0.20703   0.02294   0.52701   0.00000  Uiso   1.00
C633   C     0.16718   0.29052   0.50049   0.00000  Uiso   1.00
C634   C     0.16720   0.04263   0.49951   0.00000  Uiso   1.00
C635   C     0.19448   0.19682   0.36081   0.00000  Uiso   1.00
C636   C     0.13934   0.13624   0.63920   0.00000  Uiso   1.00
C637   C     0.19194   0.19809   0.64628   0.00000  Uiso   1.00
C638   C     0.13748   0.13754   0.35324   0.00000  Uiso   1.00
C639   C     0.32968   0.11104   0.46620   0.00000  Uiso   1.00
C640   C     0.00897   0.21340   0.54141   0.00000  Uiso   1.00
C641   C     0.22986   0.22741   0.38829   0.00000  Uiso   1.00
C642   C     0.16720   0.24640   0.50028   0.00000  Uiso   1.00
C643   C     0.28276   0.21789   0.40005   0.00000  Uiso   1.00
C644   C     0.31836   0.24843   0.42087   0.00000  Uiso   1.00
C645   C     0.30147   0.28871   0.43006   0.00000  Uiso   1.00
C646   C     0.24907   0.29870   0.41754   0.00000  Uiso   1.00
C647   C     0.21352   0.26840   0.39611   0.00000  Uiso   1.00
C648   C     0.10906   0.10245   0.61196   0.00000  Uiso   1.00
C649   C     0.12958   0.06200   0.60988   0.00000  Uiso   1.00
C650   C     0.09887   0.02892   0.58787   0.00000  Uiso   1.00
C651   C     0.04724   0.03577   0.56886   0.00000  Uiso   1.00
C652   C     0.02600   0.07544   0.57261   0.00000  Uiso   1.00
C653   C     0.06750   0.16445   0.48873   0.00000  Uiso   1.00
C654   C     0.05661   0.10853   0.59439   0.00000  Uiso   1.00
C655   C     0.21370   0.23548   0.62632   0.00000  Uiso   1.00
C656   C     0.09973   0.10911   0.37089   0.00000  Uiso   1.00
C657   C     0.26587   0.16821   0.51144   0.00000  Uiso   1.00
C658   C     0.01340   0.15373   0.48634   0.00000  Uiso   1.00
C659   C     0.32041   0.17523   0.51497   0.00000  Uiso   1.00
C660   C     0.12745   0.02000   0.47260   0.00000  Uiso   1.00
C661   C     0.20736   0.31299   0.52708   0.00000  Uiso   1.00
C662   C     0.12754   0.31018   0.47293   0.00000  Uiso   1.00
H663   H     0.09601   0.03550   0.45237   0.00000  Uiso   1.00
H664   H     0.23600   0.33000   0.42403   0.00000  Uiso   1.00
H665   H     0.17325   0.27677   0.38564   0.00000  Uiso   1.00
H666   H     0.16928   0.05622   0.62509   0.00000  Uiso   1.00
H667   H     0.11502   0.33131   0.58565   0.00000  Uiso   1.00
H668   H     0.02339   0.01026   0.55184   0.00000  Uiso   1.00
H669   H     0.31898   0.08056   0.55912   0.00000  Uiso   1.00
H670   H     0.03917   0.13863   0.59852   0.00000  Uiso   1.00
H671   H     0.21109   0.29860   0.61928   0.00000  Uiso   1.00
H672   H     0.02270   0.09394   0.36695   0.00000  Uiso   1.00
H673   H     0.23892   0.29710   0.54706   0.00000  Uiso   1.00
H674   H     0.09681   0.29216   0.45223   0.00000  Uiso   1.00
H675   H     0.23761   0.04099   0.54783   0.00000  Uiso   1.00
H676   H     0.27606   0.06300   0.45687   0.00000  Uiso   1.00
H677   H     0.04730   0.26970   0.54190   0.00000  Uiso   1.00
H678   H     0.29654   0.18704   0.39239   0.00000  Uiso   1.00
H679   H     0.02578   0.24085   0.42958   0.00000  Uiso   1.00
H680   H     0.32905   0.31228   0.44641   0.00000  Uiso   1.00
N681   N     0.16665   0.16666   0.61907   0.00000  Uiso   1.00
N682   N     0.16668   0.16668   0.38093   0.00000  Uiso   1.00
O683   O     0.16666   0.10558   0.53821   0.00000  Uiso   1.00
O684   O     0.28101   0.09232   0.47081   0.00000  Uiso   1.00
O685   O     0.00923   0.21466   0.58204   0.00000  Uiso   1.00
O686   O     0.03182   0.24659   0.52010   0.00000  Uiso   1.00
O687   O     0.25303   0.23300   0.60829   0.00000  Uiso   1.00
O688   O     0.19015   0.27427   0.63011   0.00000  Uiso   1.00
O689   O     0.11317   0.07441   0.38425   0.00000  Uiso   1.00
O690   O     0.04685   0.11926   0.36436   0.00000  Uiso   1.00
O691   O     0.16667   0.22775   0.46179   0.00000  Uiso   1.00
O692   O     0.16666   0.10559   0.46176   0.00000  Uiso   1.00
O693   O     0.16667   0.22774   0.53824   0.00000  Uiso   1.00
O694   O     0.09058   0.16666   0.52928   0.00000  Uiso   1.00
O695   O     0.24275   0.16667   0.47072   0.00000  Uiso   1.00
O696   O     0.09058   0.16667   0.45284   0.00000  Uiso   1.00
O697   O     0.24275   0.16666   0.54716   0.00000  Uiso   1.00
O698   O     0.02737   0.09057   0.44829   0.00000  Uiso   1.00
Zn699  Zn    0.16667   0.16666   0.55104   0.00000  Uiso   1.00
Zn700  Zn    0.16667   0.16667   0.44896   0.00000  Uiso   1.00
C701   C     0.49983   0.08687   0.49976   0.00000  Uiso   1.00
C702   C     0.54036   0.02294   0.52701   0.00000  Uiso   1.00
C703   C     0.50051   0.29052   0.50049   0.00000  Uiso   1.00
C704   C     0.50053   0.04263   0.49951   0.00000  Uiso   1.00
C705   C     0.52781   0.19682   0.36081   0.00000  Uiso   1.00
C706   C     0.47267   0.13624   0.63920   0.00000  Uiso   1.00
C707   C     0.52527   0.19809   0.64628   0.00000  Uiso   1.00
C708   C     0.47081   0.13754   0.35324   0.00000  Uiso   1.00
C709   C     0.66301   0.11104   0.46620   0.00000  Uiso   1.00
C710   C     0.34231   0.21340   0.54141   0.00000  Uiso   1.00
C711   C     0.56319   0.22741   0.38829   0.00000  Uiso   1.00
C712   C     0.50053   0.24640   0.50028   0.00000  Uiso   1.00
C713   C     0.61609   0.21789   0.40005   0.00000  Uiso   1.00
C714   C     0.65170   0.24843   0.42087   0.00000  Uiso   1.00
C715   C     0.63480   0.28871   0.43006   0.00000  Uiso   1.00
C716   C     0.58240   0.29870   0.41754   0.00000  Uiso   1.00
C717   C     0.54685   0.26840   0.39611   0.00000  Uiso   1.00
C718   C     0.44239   0.10245   0.61196   0.00000  Uiso   1.00
C719   C     0.46291   0.06200   0.60988   0.00000  Uiso   1.00
C720   C     0.43220   0.02892   0.58787   0.00000  Uiso   1.00
C721   C     0.38057   0.03577   0.56886   0.00000  Uiso   1.00
C722   C     0.35933   0.07544   0.57261   0.00000  Uiso   1.00
C723   C     0.40083   0.16445   0.48873   0.00000  Uiso   1.00
C724   C     0.38995   0.10853   0.59439   0.00000  Uiso   1.00
C725   C     0.54703   0.23548   0.62632   0.00000  Uiso   1.00
C726   C     0.43307   0.10911   0.37089   0.00000  Uiso   1.00
C727   C     0.59921   0.16821   0.51144   0.00000  Uiso   1.00
C728   C     0.34673   0.15373   0.48634   0.00000  Uiso   1.00
C729   C     0.65375   0.17523   0.51497   0.00000  Uiso   1.00
C730   C     0.46078   0.02000   0.47260   0.00000  Uiso   1.00
C731   C     0.54069   0.31299   0.52708   0.00000  Uiso   1.00
C732   C     0.46088   0.31018   0.47293   0.00000  Uiso   1.00
H733   H     0.42934   0.03550   0.45237   0.00000  Uiso   1.00
H734   H     0.56934   0.33000   0.42403   0.00000  Uiso   1.00
H735   H     0.50659   0.27677   0.38564   0.00000  Uiso   1.00
H736   H     0.50261   0.05622   0.62509   0.00000  Uiso   1.00
H737   H     0.44835   0.33131   0.58565   0.00000  Uiso   1.00
H738   H     0.35673   0.01026   0.55184   0.00000  Uiso   1.00
H739   H     0.65231   0.08056   0.55912   0.00000  Uiso   1.00
H740   H     0.37251   0.13863   0.59852   0.00000  Uiso   1.00
H741   H     0.54442   0.29860   0.61928   0.00000  Uiso   1.00
H742   H     0.35604   0.09394   0.36695   0.00000  Uiso   1.00
H743   H     0.57225   0.29710   0.54706   0.00000  Uiso   1.00
H744   H     0.43015   0.29216   0.45223   0.00000  Uiso   1.00
H745   H     0.57094   0.04099   0.54783   0.00000  Uiso   1.00
H746   H     0.60940   0.06300   0.45687   0.00000  Uiso   1.00
H747   H     0.38063   0.26970   0.54190   0.00000  Uiso   1.00
H748   H     0.62987   0.18704   0.39239   0.00000  Uiso   1.00
H749   H     0.35912   0.24085   0.42958   0.00000  Uiso   1.00
H750   H     0.66238   0.31228   0.44641   0.00000  Uiso   1.00
N751   N     0.49999   0.16666   0.61907   0.00000  Uiso   1.00
N752   N     0.50001   0.16668   0.38093   0.00000  Uiso   1.00
O753   O     0.50000   0.10558   0.53821   0.00000  Uiso   1.00
O754   O     0.61434   0.09232   0.47081   0.00000  Uiso   1.00
O755   O     0.34256   0.21466   0.58204   0.00000  Uiso   1.00
O756   O     0.36515   0.24659   0.52010   0.00000  Uiso   1.00
O757   O     0.58636   0.23300   0.60829   0.00000  Uiso   1.00
O758   O     0.52349   0.27427   0.63011   0.00000  Uiso   1.00
O759   O     0.44651   0.07441   0.38425   0.00000  Uiso   1.00
O760   O     0.38018   0.11926   0.36436   0.00000  Uiso   1.00
O761   O     0.50000   0.22775   0.46179   0.00000  Uiso   1.00
O762   O     0.50000   0.10559   0.46176   0.00000  Uiso   1.00
O763   O     0.50000   0.22774   0.53824   0.00000  Uiso   1.00
O764   O     0.42392   0.16666   0.52928   0.00000  Uiso   1.00
O765   O     0.57608   0.16667   0.47072   0.00000  Uiso   1.00
O766   O     0.42392   0.16667   0.45284   0.00000  Uiso   1.00
O767   O     0.57608   0.16666   0.54716   0.00000  Uiso   1.00
O768   O     0.36070   0.09057   0.44829   0.00000  Uiso   1.00
Zn769  Zn    0.50000   0.16666   0.55104   0.00000  Uiso   1.00
Zn770  Zn    0.50000   0.16667   0.44896   0.00000  Uiso   1.00
C771   C     0.83317   0.08687   0.49976   0.00000  Uiso   1.00
C772   C     0.87370   0.02294   0.52701   0.00000  Uiso   1.00
C773   C     0.83385   0.29052   0.50049   0.00000  Uiso   1.00
C774   C     0.83386   0.04263   0.49951   0.00000  Uiso   1.00
C775   C     0.86115   0.19682   0.36081   0.00000  Uiso   1.00
C776   C     0.80601   0.13624   0.63920   0.00000  Uiso   1.00
C777   C     0.85861   0.19809   0.64628   0.00000  Uiso   1.00
C778   C     0.80414   0.13754   0.35324   0.00000  Uiso   1.00
C779   C     0.99634   0.11104   0.46620   0.00000  Uiso   1.00
C780   C     0.67564   0.21340   0.54141   0.00000  Uiso   1.00
C781   C     0.89653   0.22741   0.38829   0.00000  Uiso   1.00
C782   C     0.83387   0.24640   0.50028   0.00000  Uiso   1.00
C783   C     0.94942   0.21789   0.40005   0.00000  Uiso   1.00
C784   C     0.98503   0.24843   0.42087   0.00000  Uiso   1.00
C785   C     0.96814   0.28871   0.43006   0.00000  Uiso   1.00
C786   C     0.91574   0.29870   0.41754   0.00000  Uiso   1.00
C787   C     0.88018   0.26840   0.39611   0.00000  Uiso   1.00
C788   C     0.77573   0.10245   0.61196   0.00000  Uiso   1.00
C789   C     0.79624   0.06200   0.60988   0.00000  Uiso   1.00
C790   C     0.76554   0.02892   0.58787   0.00000  Uiso   1.00
C791   C     0.71390   0.03577   0.56886   0.00000  Uiso   1.00
C792   C     0.69267   0.07544   0.57261   0.00000  Uiso   1.00
C793   C     0.73417   0.16445   0.48873   0.00000  Uiso   1.00
C794   C     0.72328   0.10853   0.59439   0.00000  Uiso   1.00
C795   C     0.88036   0.23548   0.62632   0.00000  Uiso   1.00
C796   C     0.76640   0.10911   0.37089   0.00000  Uiso   1.00
C797   C     0.93254   0.16821   0.51144   0.00000  Uiso   1.00
C798   C     0.68007   0.15373   0.48634   0.00000  Uiso   1.00
C799   C     0.98708   0.17523   0.51497   0.00000  Uiso   1.00
C800   C     0.79412   0.02000   0.47260   0.00000  Uiso   1.00
C801   C     0.87403   0.31299   0.52708   0.00000  Uiso   1.00
C802   C     0.79421   0.31018   0.47293   0.00000  Uiso   1.00
H803   H     0.76268   0.03550   0.45237   0.00000  Uiso   1.00
H804   H     0.90267   0.33000   0.42403   0.00000  Uiso   1.00
H805   H     0.83992   0.27677   0.38564   0.00000  Uiso   1.00
H806   H     0.83594   0.05622   0.62509   0.00000  Uiso   1.00
H807   H     0.78169   0.33131   0.58565   0.00000  Uiso   1.00
H808   H     0.69006   0.01026   0.55184   0.00000  Uiso   1.00
H809   H     0.98564   0.08056   0.55912   0.00000  Uiso   1.00
H810   H     0.70584   0.13863   0.59852   0.00000  Uiso   1.00
H811   H     0.87776   0.29860   0.61928   0.00000  Uiso   1.00
H812   H     0.68937   0.09394   0.36695   0.00000  Uiso   1.00
H813   H     0.90559   0.29710   0.54706   0.00000  Uiso   1.00
H814   H     0.76348   0.29216   0.45223   0.00000  Uiso   1.00
H815   H     0.90427   0.04099   0.54783   0.00000  Uiso   1.00
H816   H     0.94273   0.06300   0.45687   0.00000  Uiso   1.00
H817   H     0.71397   0.26970   0.54190   0.00000  Uiso   1.00
H818   H     0.96321   0.18704   0.39239   0.00000  Uiso   1.00
H819   H     0.69245   0.24085   0.42958   0.00000  Uiso   1.00
H820   H     0.99571   0.31228   0.44641   0.00000  Uiso   1.00
N821   N     0.83332   0.16666   0.61907   0.00000  Uiso   1.00
N822   N     0.83335   0.16668   0.38093   0.00000  Uiso   1.00
O823   O     0.83333   0.10558   0.53821   0.00000  Uiso   1.00
O824   O     0.94768   0.09232   0.47081   0.00000  Uiso   1.00
O825   O     0.67589   0.21466   0.58204   0.00000  Uiso   1.00
O826   O     0.69849   0.24659   0.52010   0.00000  Uiso   1.00
O827   O     0.91969   0.23300   0.60829   0.00000  Uiso   1.00
O828   O     0.85682   0.27427   0.63011   0.00000  Uiso   1.00
O829   O     0.77984   0.07441   0.38425   0.00000  Uiso   1.00
O830   O     0.71351   0.11926   0.36436   0.00000  Uiso   1.00
O831   O     0.83334   0.22775   0.46179   0.00000  Uiso   1.00
O832   O     0.83333   0.10559   0.46176   0.00000  Uiso   1.00
O833   O     0.83334   0.22774   0.53824   0.00000  Uiso   1.00
O834   O     0.75725   0.16666   0.52928   0.00000  Uiso   1.00
O835   O     0.90942   0.16667   0.47072   0.00000  Uiso   1.00
O836   O     0.75725   0.16667   0.45284   0.00000  Uiso   1.00
O837   O     0.90942   0.16666   0.54716   0.00000  Uiso   1.00
O838   O     0.69403   0.09057   0.44829   0.00000  Uiso   1.00
Zn839  Zn    0.83333   0.16666   0.55104   0.00000  Uiso   1.00
Zn840  Zn    0.83333   0.16667   0.44896   0.00000  Uiso   1.00
C841   C     0.16650   0.42020   0.49976   0.00000  Uiso   1.00
C842   C     0.20703   0.35627   0.52701   0.00000  Uiso   1.00
C843   C     0.16718   0.62386   0.50049   0.00000  Uiso   1.00
C844   C     0.16720   0.37596   0.49951   0.00000  Uiso   1.00
C845   C     0.19448   0.53015   0.36081   0.00000  Uiso   1.00
C846   C     0.13934   0.46958   0.63920   0.00000  Uiso   1.00
C847   C     0.19194   0.53142   0.64628   0.00000  Uiso   1.00
C848   C     0.13748   0.47087   0.35324   0.00000  Uiso   1.00
C849   C     0.32968   0.44437   0.46620   0.00000  Uiso   1.00
C850   C     0.00897   0.54674   0.54141   0.00000  Uiso   1.00
C851   C     0.22986   0.56075   0.38829   0.00000  Uiso   1.00
C852   C     0.16720   0.57973   0.50028   0.00000  Uiso   1.00
C853   C     0.28276   0.55122   0.40005   0.00000  Uiso   1.00
C854   C     0.31836   0.58177   0.42087   0.00000  Uiso   1.00
C855   C     0.30147   0.62204   0.43006   0.00000  Uiso   1.00
C856   C     0.24907   0.63204   0.41754   0.00000  Uiso   1.00
C857   C     0.21352   0.60173   0.39611   0.00000  Uiso   1.00
C858   C     0.10906   0.43578   0.61196   0.00000  Uiso   1.00
C859   C     0.12958   0.39533   0.60988   0.00000  Uiso   1.00
C860   C     0.09887   0.36225   0.58787   0.00000  Uiso   1.00
C861   C     0.04724   0.36910   0.56886   0.00000  Uiso   1.00
C862   C     0.02600   0.40878   0.57261   0.00000  Uiso   1.00
C863   C     0.06750   0.49778   0.48873   0.00000  Uiso   1.00
C864   C     0.05661   0.44187   0.59439   0.00000  Uiso   1.00
C865   C     0.21370   0.56882   0.62632   0.00000  Uiso   1.00
C866   C     0.09973   0.44244   0.37089   0.00000  Uiso   1.00
C867   C     0.26587   0.50154   0.51144   0.00000  Uiso   1.00
C868   C     0.01340   0.48706   0.48634   0.00000  Uiso   1.00
C869   C     0.32041   0.50857   0.51497   0.00000  Uiso   1.00
C870   C     0.12745   0.35333   0.47260   0.00000  Uiso   1.00
C871   C     0.20736   0.64633   0.52708   0.00000  Uiso   1.00
C872   C     0.12754   0.64351   0.47293   0.00000  Uiso   1.00
H873   H     0.09601   0.36883   0.45237   0.00000  Uiso   1.00
H874   H     0.23600   0.66333   0.42403   0.00000  Uiso   1.00
H875   H     0.17325   0.61010   0.38564   0.00000  Uiso   1.00
H876   H     0.16928   0.38955   0.62509   0.00000  Uiso   1.00
H877   H     0.11502   0.66464   0.58565   0.00000  Uiso   1.00
H878   H     0.02339   0.34360   0.55184   0.00000  Uiso   1.00
H879   H     0.31898   0.41389   0.55912   0.00000  Uiso   1.00
H880   H     0.03917   0.47197   0.59852   0.00000  Uiso   1.00
H881   H     0.21109   0.63193   0.61928   0.00000  Uiso   1.00
H882   H     0.02270   0.42728   0.36695   0.00000  Uiso   1.00
H883   H     0.23892   0.63043   0.54706   0.00000  Uiso   1.00
H884   H     0.09681   0.62549   0.45223   0.00000  Uiso   1.00
H885   H     0.23761   0.37432   0.54783   0.00000  Uiso   1.00
H886   H     0.27606   0.39633   0.45687   0.00000  Uiso   1.00
H887   H     0.04730   0.60303   0.54190   0.00000  Uiso   1.00
H888   H     0.29654   0.52037   0.39239   0.00000  Uiso   1.00
H889   H     0.02578   0.57418   0.42958   0.00000  Uiso   1.00
H890   H     0.32905   0.64562   0.44641   0.00000  Uiso   1.00
N891   N     0.16665   0.49999   0.61907   0.00000  Uiso   1.00
N892   N     0.16668   0.50001   0.38093   0.00000  Uiso   1.00
O893   O     0.16666   0.43892   0.53821   0.00000  Uiso   1.00
O894   O     0.28101   0.42565   0.47081   0.00000  Uiso   1.00
O895   O     0.00923   0.54800   0.58204   0.00000  Uiso   1.00
O896   O     0.03182   0.57992   0.52010   0.00000  Uiso   1.00
O897   O     0.25303   0.56633   0.60829   0.00000  Uiso   1.00
O898   O     0.19015   0.60760   0.63011   0.00000  Uiso   1.00
O899   O     0.11317   0.40774   0.38425   0.00000  Uiso   1.00
O900   O     0.04685   0.45259   0.36436   0.00000  Uiso   1.00
O901   O     0.16667   0.56108   0.46179   0.00000  Uiso   1.00
O902   O     0.16666   0.43893   0.46176   0.00000  Uiso   1.00
O903   O     0.16667   0.56107   0.53824   0.00000  Uiso   1.00
O904   O     0.09058   0.50000   0.52928   0.00000  Uiso   1.00
O905   O     0.24275   0.50000   0.47072   0.00000  Uiso   1.00
O906   O     0.09058   0.50000   0.45284   0.00000  Uiso   1.00
O907   O     0.24275   0.50000   0.54716   0.00000  Uiso   1.00
O908   O     0.02737   0.42391   0.44829   0.00000  Uiso   1.00
Zn909  Zn    0.16667   0.49999   0.55104   0.00000  Uiso   1.00
Zn910  Zn    0.16667   0.50001   0.44896   0.00000  Uiso   1.00
C911   C     0.49983   0.42020   0.49976   0.00000  Uiso   1.00
C912   C     0.54036   0.35627   0.52701   0.00000  Uiso   1.00
C913   C     0.50051   0.62386   0.50049   0.00000  Uiso   1.00
C914   C     0.50053   0.37596   0.49951   0.00000  Uiso   1.00
C915   C     0.52781   0.53015   0.36081   0.00000  Uiso   1.00
C916   C     0.47267   0.46958   0.63920   0.00000  Uiso   1.00
C917   C     0.52527   0.53142   0.64628   0.00000  Uiso   1.00
C918   C     0.47081   0.47087   0.35324   0.00000  Uiso   1.00
C919   C     0.66301   0.44437   0.46620   0.00000  Uiso   1.00
C920   C     0.34231   0.54674   0.54141   0.00000  Uiso   1.00
C921   C     0.56319   0.56075   0.38829   0.00000  Uiso   1.00
C922   C     0.50053   0.57973   0.50028   0.00000  Uiso   1.00
C923   C     0.61609   0.55122   0.40005   0.00000  Uiso   1.00
C924   C     0.65170   0.58177   0.42087   0.00000  Uiso   1.00
C925   C     0.63480   0.62204   0.43006   0.00000  Uiso   1.00
C926   C     0.58240   0.63204   0.41754   0.00000  Uiso   1.00
C927   C     0.54685   0.60173   0.39611   0.00000  Uiso   1.00
C928   C     0.44239   0.43578   0.61196   0.00000  Uiso   1.00
C929   C     0.46291   0.39533   0.60988   0.00000  Uiso   1.00
C930   C     0.43220   0.36225   0.58787   0.00000  Uiso   1.00
C931   C     0.38057   0.36910   0.56886   0.00000  Uiso   1.00
C932   C     0.35933   0.40878   0.57261   0.00000  Uiso   1.00
C933   C     0.40083   0.49778   0.48873   0.00000  Uiso   1.00
C934   C     0.38995   0.44187   0.59439   0.00000  Uiso   1.00
C935   C     0.54703   0.56882   0.62632   0.00000  Uiso   1.00
C936   C     0.43307   0.44244   0.37089   0.00000  Uiso   1.00
C937   C     0.59921   0.50154   0.51144   0.00000  Uiso   1.00
C938   C     0.34673   0.48706   0.48634   0.00000  Uiso   1.00
C939   C     0.65375   0.50857   0.51497   0.00000  Uiso   1.00
C940   C     0.46078   0.35333   0.47260   0.00000  Uiso   1.00
C941   C     0.54069   0.64633   0.52708   0.00000  Uiso   1.00
C942   C     0.46088   0.64351   0.47293   0.00000  Uiso   1.00
H943   H     0.42934   0.36883   0.45237   0.00000  Uiso   1.00
H944   H     0.56934   0.66333   0.42403   0.00000  Uiso   1.00
H945   H     0.50659   0.61010   0.38564   0.00000  Uiso   1.00
H946   H     0.50261   0.38955   0.62509   0.00000  Uiso   1.00
H947   H     0.44835   0.66464   0.58565   0.00000  Uiso   1.00
H948   H     0.35673   0.34360   0.55184   0.00000  Uiso   1.00
H949   H     0.65231   0.41389   0.55912   0.00000  Uiso   1.00
H950   H     0.37251   0.47197   0.59852   0.00000  Uiso   1.00
H951   H     0.54442   0.63193   0.61928   0.00000  Uiso   1.00
H952   H     0.35604   0.42728   0.36695   0.00000  Uiso   1.00
H953   H     0.57225   0.63043   0.54706   0.00000  Uiso   1.00
H954   H     0.43015   0.62549   0.45223   0.00000  Uiso   1.00
H955   H     0.57094   0.37432   0.54783   0.00000  Uiso   1.00
H956   H     0.60940   0.39633   0.45687   0.00000  Uiso   1.00
H957   H     0.38063   0.60303   0.54190   0.00000  Uiso   1.00
H958   H     0.62987   0.52037   0.39239   0.00000  Uiso   1.00
H959   H     0.35912   0.57418   0.42958   0.00000  Uiso   1.00
H960   H     0.66238   0.64562   0.44641   0.00000  Uiso   1.00
N961   N     0.49999   0.49999   0.61907   0.00000  Uiso   1.00
N962   N     0.50001   0.50001   0.38093   0.00000  Uiso   1.00
O963   O     0.50000   0.43892   0.53821   0.00000  Uiso   1.00
O964   O     0.61434   0.42565   0.47081   0.00000  Uiso   1.00
O965   O     0.34256   0.54800   0.58204   0.00000  Uiso   1.00
O966   O     0.36515   0.57992   0.52010   0.00000  Uiso   1.00
O967   O     0.58636   0.56633   0.60829   0.00000  Uiso   1.00
O968   O     0.52349   0.60760   0.63011   0.00000  Uiso   1.00
O969   O     0.44651   0.40774   0.38425   0.00000  Uiso   1.00
O970   O     0.38018   0.45259   0.36436   0.00000  Uiso   1.00
O971   O     0.50000   0.56108   0.46179   0.00000  Uiso   1.00
O972   O     0.50000   0.43893   0.46176   0.00000  Uiso   1.00
O973   O     0.50000   0.56107   0.53824   0.00000  Uiso   1.00
O974   O     0.42392   0.50000   0.52928   0.00000  Uiso   1.00
O975   O     0.57608   0.50000   0.47072   0.00000  Uiso   1.00
O976   O     0.42392   0.50000   0.45284   0.00000  Uiso   1.00
O977   O     0.57608   0.50000   0.54716   0.00000  Uiso   1.00
O978   O     0.36070   0.42391   0.44829   0.00000  Uiso   1.00
Zn979  Zn    0.50000   0.49999   0.55104   0.00000  Uiso   1.00
Zn980  Zn    0.50000   0.50001   0.44896   0.00000  Uiso   1.00
C981   C     0.83317   0.42020   0.49976   0.00000  Uiso   1.00
C982   C     0.87370   0.35627   0.52701   0.00000  Uiso   1.00
C983   C     0.83385   0.62386   0.50049   0.00000  Uiso   1.00
C984   C     0.83386   0.37596   0.49951   0.00000  Uiso   1.00
C985   C     0.86115   0.53015   0.36081   0.00000  Uiso   1.00
C986   C     0.80601   0.46958   0.63920   0.00000  Uiso   1.00
C987   C     0.85861   0.53142   0.64628   0.00000  Uiso   1.00
C988   C     0.80414   0.47087   0.35324   0.00000  Uiso   1.00
C989   C     0.99634   0.44437   0.46620   0.00000  Uiso   1.00
C990   C     0.67564   0.54674   0.54141   0.00000  Uiso   1.00
C991   C     0.89653   0.56075   0.38829   0.00000  Uiso   1.00
C992   C     0.83387   0.57973   0.50028   0.00000  Uiso   1.00
C993   C     0.94942   0.55122   0.40005   0.00000  Uiso   1.00
C994   C     0.98503   0.58177   0.42087   0.00000  Uiso   1.00
C995   C     0.96814   0.62204   0.43006   0.00000  Uiso   1.00
C996   C     0.91574   0.63204   0.41754   0.00000  Uiso   1.00
C997   C     0.88018   0.60173   0.39611   0.00000  Uiso   1.00
C998   C     0.77573   0.43578   0.61196   0.00000  Uiso   1.00
C999   C     0.79624   0.39533   0.60988   0.00000  Uiso   1.00
C1000  C     0.76554   0.36225   0.58787   0.00000  Uiso   1.00
C1001  C     0.71390   0.36910   0.56886   0.00000  Uiso   1.00
C1002  C     0.69267   0.40878   0.57261   0.00000  Uiso   1.00
C1003  C     0.73417   0.49778   0.48873   0.00000  Uiso   1.00
C1004  C     0.72328   0.44187   0.59439   0.00000  Uiso   1.00
C1005  C     0.88036   0.56882   0.62632   0.00000  Uiso   1.00
C1006  C     0.76640   0.44244   0.37089   0.00000  Uiso   1.00
C1007  C     0.93254   0.50154   0.51144   0.00000  Uiso   1.00
C1008  C     0.68007   0.48706   0.48634   0.00000  Uiso   1.00
C1009  C     0.98708   0.50857   0.51497   0.00000  Uiso   1.00
C1010  C     0.79412   0.35333   0.47260   0.00000  Uiso   1.00
C1011  C     0.87403   0.64633   0.52708   0.00000  Uiso   1.00
C1012  C     0.79421   0.64351   0.47293   0.00000  Uiso   1.00
H1013  H     0.76268   0.36883   0.45237   0.00000  Uiso   1.00
H1014  H     0.90267   0.66333   0.42403   0.00000  Uiso   1.00
H1015  H     0.83992   0.61010   0.38564   0.00000  Uiso   1.00
H1016  H     0.83594   0.38955   0.62509   0.00000  Uiso   1.00
H1017  H     0.78169   0.66464   0.58565   0.00000  Uiso   1.00
H1018  H     0.69006   0.34360   0.55184   0.00000  Uiso   1.00
H1019  H     0.98564   0.41389   0.55912   0.00000  Uiso   1.00
H1020  H     0.70584   0.47197   0.59852   0.00000  Uiso   1.00
H1021  H     0.87776   0.63193   0.61928   0.00000  Uiso   1.00
H1022  H     0.68937   0.42728   0.36695   0.00000  Uiso   1.00
H1023  H     0.90559   0.63043   0.54706   0.00000  Uiso   1.00
H1024  H     0.76348   0.62549   0.45223   0.00000  Uiso   1.00
H1025  H     0.90427   0.37432   0.54783   0.00000  Uiso   1.00
H1026  H     0.94273   0.39633   0.45687   0.00000  Uiso   1.00
H1027  H     0.71397   0.60303   0.54190   0.00000  Uiso   1.00
H1028  H     0.96321   0.52037   0.39239   0.00000  Uiso   1.00
H1029  H     0.69245   0.57418   0.42958   0.00000  Uiso   1.00
H1030  H     0.99571   0.64562   0.44641   0.00000  Uiso   1.00
N1031  N     0.83332   0.49999   0.61907   0.00000  Uiso   1.00
N1032  N     0.83335   0.50001   0.38093   0.00000  Uiso   1.00
O1033  O     0.83333   0.43892   0.53821   0.00000  Uiso   1.00
O1034  O     0.94768   0.42565   0.47081   0.00000  Uiso   1.00
O1035  O     0.67589   0.54800   0.58204   0.00000  Uiso   1.00
O1036  O     0.69849   0.57992   0.52010   0.00000  Uiso   1.00
O1037  O     0.91969   0.56633   0.60829   0.00000  Uiso   1.00
O1038  O     0.85682   0.60760   0.63011   0.00000  Uiso   1.00
O1039  O     0.77984   0.40774   0.38425   0.00000  Uiso   1.00
O1040  O     0.71351   0.45259   0.36436   0.00000  Uiso   1.00
O1041  O     0.83334   0.56108   0.46179   0.00000  Uiso   1.00
O1042  O     0.83333   0.43893   0.46176   0.00000  Uiso   1.00
O1043  O     0.83334   0.56107   0.53824   0.00000  Uiso   1.00
O1044  O     0.75725   0.50000   0.52928   0.00000  Uiso   1.00
O1045  O     0.90942   0.50000   0.47072   0.00000  Uiso   1.00
O1046  O     0.75725   0.50000   0.45284   0.00000  Uiso   1.00
O1047  O     0.90942   0.50000   0.54716   0.00000  Uiso   1.00
O1048  O     0.69403   0.42391   0.44829   0.00000  Uiso   1.00
Zn1049 Zn    0.83333   0.49999   0.55104   0.00000  Uiso   1.00
Zn1050 Zn    0.83333   0.50001   0.44896   0.00000  Uiso   1.00
C1051  C     0.16650   0.75353   0.49976   0.00000  Uiso   1.00
C1052  C     0.20703   0.68961   0.52701   0.00000  Uiso   1.00
C1053  C     0.16718   0.95719   0.50049   0.00000  Uiso   1.00
C1054  C     0.16720   0.70930   0.49951   0.00000  Uiso   1.00
C1055  C     0.19448   0.86348   0.36081   0.00000  Uiso   1.00
C1056  C     0.13934   0.80291   0.63920   0.00000  Uiso   1.00
C1057  C     0.19194   0.86475   0.64628   0.00000  Uiso   1.00
C1058  C     0.13748   0.80420   0.35324   0.00000  Uiso   1.00
C1059  C     0.32968   0.77770   0.46620   0.00000  Uiso   1.00
C1060  C     0.00897   0.88007   0.54141   0.00000  Uiso   1.00
C1061  C     0.22986   0.89408   0.38829   0.00000  Uiso   1.00
C1062  C     0.16720   0.91307   0.50028   0.00000  Uiso   1.00
C1063  C     0.28276   0.88455   0.40005   0.00000  Uiso   1.00
C1064  C     0.31836   0.91510   0.42087   0.00000  Uiso   1.00
C1065  C     0.30147   0.95538   0.43006   0.00000  Uiso   1.00
C1066  C     0.24907   0.96537   0.41754   0.00000  Uiso   1.00
C1067  C     0.21352   0.93506   0.39611   0.00000  Uiso   1.00
C1068  C     0.10906   0.76911   0.61196   0.00000  Uiso   1.00
C1069  C     0.12958   0.72866   0.60988   0.00000  Uiso   1.00
C1070  C     0.09887   0.69558   0.58787   0.00000  Uiso   1.00
C1071  C     0.04724   0.70243   0.56886   0.00000  Uiso   1.00
C1072  C     0.02600   0.74211   0.57261   0.00000  Uiso   1.00
C1073  C     0.06750   0.83112   0.48873   0.00000  Uiso   1.00
C1074  C     0.05661   0.77520   0.59439   0.00000  Uiso   1.00
C1075  C     0.21370   0.90215   0.62632   0.00000  Uiso   1.00
C1076  C     0.09973   0.77577   0.37089   0.00000  Uiso   1.00
C1077  C     0.26587   0.83487   0.51144   0.00000  Uiso   1.00
C1078  C     0.01340   0.82040   0.48634   0.00000  Uiso   1.00
C1079  C     0.32041   0.84190   0.51497   0.00000  Uiso   1.00
C1080  C     0.12745   0.68667   0.47260   0.00000  Uiso   1.00
C1081  C     0.20736   0.97966   0.52708   0.00000  Uiso   1.00
C1082  C     0.12754   0.97684   0.47293   0.00000  Uiso   1.00
H1083  H     0.09601   0.70216   0.45237   0.00000  Uiso   1.00
H1084  H     0.23600   0.99667   0.42403   0.00000  Uiso   1.00
H1085  H     0.17325   0.94344   0.38564   0.00000  Uiso   1.00
H1086  H     0.16928   0.72288   0.62509   0.00000  Uiso   1.00
H1087  H     0.11502   0.99797   0.58565   0.00000  Uiso   1.00
H1088  H     0.02339   0.67693   0.55184   0.00000  Uiso   1.00
H1089  H     0.31898   0.74722   0.55912   0.00000  Uiso   1.00
H1090  H     0.03917   0.80530   0.59852   0.00000  Uiso   1.00
H1091  H     0.21109   0.96527   0.61928   0.00000  Uiso   1.00
H1092  H     0.02270   0.76061   0.36695   0.00000  Uiso   1.00
H1093  H     0.23892   0.96377   0.54706   0.00000  Uiso   1.00
H1094  H     0.09681   0.95882   0.45223   0.00000  Uiso   1.00
H1095  H     0.23761   0.70765   0.54783   0.00000  Uiso   1.00
H1096  H     0.27606   0.72967   0.45687   0.00000  Uiso   1.00
H1097  H     0.04730   0.93636   0.54190   0.00000  Uiso   1.00
H1098  H     0.29654   0.85370   0.39239   0.00000  Uiso   1.00
H1099  H     0.02578   0.90752   0.42958   0.00000  Uiso   1.00
H1100  H     0.32905   0.97895   0.44641   0.00000  Uiso   1.00
N1101  N     0.16665   0.83332   0.61907   0.00000  Uiso   1.00
N1102  N     0.16668   0.83334   0.38093   0.00000  Uiso   1.00
O1103  O     0.16666   0.77225   0.53821   0.00000  Uiso   1.00
O1104  O     0.28101   0.75898   0.47081   0.00000  Uiso   1.00
O1105  O     0.00923   0.88133   0.58204   0.00000  Uiso   1.00
O1106  O     0.03182   0.91326   0.52010   0.00000  Uiso   1.00
O1107  O     0.25303   0.89967   0.60829   0.00000  Uiso   1.00
O1108  O     0.19015   0.94093   0.63011   0.00000  Uiso   1.00
O1109  O     0.11317   0.74107   0.38425   0.00000  Uiso   1.00
O1110  O     0.04685   0.78593   0.36436   0.00000  Uiso   1.00
O1111  O     0.16667   0.89442   0.46179   0.00000  Uiso   1.00
O1112  O     0.16666   0.77226   0.46176   0.00000  Uiso   1.00
O1113  O     0.16667   0.89441   0.53824   0.00000  Uiso   1.00
O1114  O     0.09058   0.83333   0.52928   0.00000  Uiso   1.00
O1115  O     0.24275   0.83334   0.47072   0.00000  Uiso   1.00
O1116  O     0.09058   0.83334   0.45284   0.00000  Uiso   1.00
O1117  O     0.24275   0.83333   0.54716   0.00000  Uiso   1.00
O1118  O     0.02737   0.75724   0.44829   0.00000  Uiso   1.00
Zn1119 Zn    0.16667   0.83333   0.55104   0.00000  Uiso   1.00
Zn1120 Zn    0.16667   0.83334   0.44896   0.00000  Uiso   1.00
C1121  C     0.49983   0.75353   0.49976   0.00000  Uiso   1.00
C1122  C     0.54036   0.68961   0.52701   0.00000  Uiso   1.00
C1123  C     0.50051   0.95719   0.50049   0.00000  Uiso   1.00
C1124  C     0.50053   0.70930   0.49951   0.00000  Uiso   1.00
C1125  C     0.52781   0.86348   0.36081   0.00000  Uiso   1.00
C1126  C     0.47267   0.80291   0.63920   0.00000  Uiso   1.00
C1127  C     0.52527   0.86475   0.64628   0.00000  Uiso   1.00
C1128  C     0.47081   0.80420   0.35324   0.00000  Uiso   1.00
C1129  C     0.66301   0.77770   0.46620   0.00000  Uiso   1.00
C1130  C     0.34231   0.88007   0.54141   0.00000  Uiso   1.00
C1131  C     0.56319   0.89408   0.38829   0.00000  Uiso   1.00
C1132  C     0.50053   0.91307   0.50028   0.00000  Uiso   1.00
C1133  C     0.61609   0.88455   0.40005   0.00000  Uiso   1.00
C1134  C     0.65170   0.91510   0.42087   0.00000  Uiso   1.00
C1135  C     0.63480   0.95538   0.43006   0.00000  Uiso   1.00
C1136  C     0.58240   0.96537   0.41754   0.00000  Uiso   1.00
C1137  C     0.54685   0.93506   0.39611   0.00000  Uiso   1.00
C1138  C     0.44239   0.76911   0.61196   0.00000  Uiso   1.00
C1139  C     0.46291   0.72866   0.60988   0.00000  Uiso   1.00
C1140  C     0.43220   0.69558   0.58787   0.00000  Uiso   1.00
C1141  C     0.38057   0.70243   0.56886   0.00000  Uiso   1.00
C1142  C     0.35933   0.74211   0.57261   0.00000  Uiso   1.00
C1143  C     0.40083   0.83112   0.48873   0.00000  Uiso   1.00
C1144  C     0.38995   0.77520   0.59439   0.00000  Uiso   1.00
C1145  C     0.54703   0.90215   0.62632   0.00000  Uiso   1.00
C1146  C     0.43307   0.77577   0.37089   0.00000  Uiso   1.00
C1147  C     0.59921   0.83487   0.51144   0.00000  Uiso   1.00
C1148  C     0.34673   0.82040   0.48634   0.00000  Uiso   1.00
C1149  C     0.65375   0.84190   0.51497   0.00000  Uiso   1.00
C1150  C     0.46078   0.68667   0.47260   0.00000  Uiso   1.00
C1151  C     0.54069   0.97966   0.52708   0.00000  Uiso   1.00
C1152  C     0.46088   0.97684   0.47293   0.00000  Uiso   1.00
H1153  H     0.42934   0.70216   0.45237   0.00000  Uiso   1.00
H1154  H     0.56934   0.99667   0.42403   0.00000  Uiso   1.00
H1155  H     0.50659   0.94344   0.38564   0.00000  Uiso   1.00
H1156  H     0.50261   0.72288   0.62509   0.00000  Uiso   1.00
H1157  H     0.44835   0.99797   0.58565   0.00000  Uiso   1.00
H1158  H     0.35673   0.67693   0.55184   0.00000  Uiso   1.00
H1159  H     0.65231   0.74722   0.55912   0.00000  Uiso   1.00
H1160  H     0.37251   0.80530   0.59852   0.00000  Uiso   1.00
H1161  H     0.54442   0.96527   0.61928   0.00000  Uiso   1.00
H1162  H     0.35604   0.76061   0.36695   0.00000  Uiso   1.00
H1163  H     0.57225   0.96377   0.54706   0.00000  Uiso   1.00
H1164  H     0.43015   0.95882   0.45223   0.00000  Uiso   1.00
H1165  H     0.57094   0.70765   0.54783   0.00000  Uiso   1.00
H1166  H     0.60940   0.72967   0.45687   0.00000  Uiso   1.00
H1167  H     0.38063   0.93636   0.54190   0.00000  Uiso   1.00
H1168  H     0.62987   0.85370   0.39239   0.00000  Uiso   1.00
H1169  H     0.35912   0.90752   0.42958   0.00000  Uiso   1.00
H1170  H     0.66238   0.97895   0.44641   0.00000  Uiso   1.00
N1171  N     0.49999   0.83332   0.61907   0.00000  Uiso   1.00
N1172  N     0.50001   0.83334   0.38093   0.00000  Uiso   1.00
O1173  O     0.50000   0.77225   0.53821   0.00000  Uiso   1.00
O1174  O     0.61434   0.75898   0.47081   0.00000  Uiso   1.00
O1175  O     0.34256   0.88133   0.58204   0.00000  Uiso   1.00
O1176  O     0.36515   0.91326   0.52010   0.00000  Uiso   1.00
O1177  O     0.58636   0.89967   0.60829   0.00000  Uiso   1.00
O1178  O     0.52349   0.94093   0.63011   0.00000  Uiso   1.00
O1179  O     0.44651   0.74107   0.38425   0.00000  Uiso   1.00
O1180  O     0.38018   0.78593   0.36436   0.00000  Uiso   1.00
O1181  O     0.50000   0.89442   0.46179   0.00000  Uiso   1.00
O1182  O     0.50000   0.77226   0.46176   0.00000  Uiso   1.00
O1183  O     0.50000   0.89441   0.53824   0.00000  Uiso   1.00
O1184  O     0.42392   0.83333   0.52928   0.00000  Uiso   1.00
O1185  O     0.57608   0.83334   0.47072   0.00000  Uiso   1.00
O1186  O     0.42392   0.83334   0.45284   0.00000  Uiso   1.00
O1187  O     0.57608   0.83333   0.54716   0.00000  Uiso   1.00
O1188  O     0.36070   0.75724   0.44829   0.00000  Uiso   1.00
Zn1189 Zn    0.50000   0.83333   0.55104   0.00000  Uiso   1.00
Zn1190 Zn    0.50000   0.83334   0.44896   0.00000  Uiso   1.00
C1191  C     0.83317   0.75353   0.49976   0.00000  Uiso   1.00
C1192  C     0.87370   0.68961   0.52701   0.00000  Uiso   1.00
C1193  C     0.83385   0.95719   0.50049   0.00000  Uiso   1.00
C1194  C     0.83386   0.70930   0.49951   0.00000  Uiso   1.00
C1195  C     0.86115   0.86348   0.36081   0.00000  Uiso   1.00
C1196  C     0.80601   0.80291   0.63920   0.00000  Uiso   1.00
C1197  C     0.85861   0.86475   0.64628   0.00000  Uiso   1.00
C1198  C     0.80414   0.80420   0.35324   0.00000  Uiso   1.00
C1199  C     0.99634   0.77770   0.46620   0.00000  Uiso   1.00
C1200  C     0.67564   0.88007   0.54141   0.00000  Uiso   1.00
C1201  C     0.89653   0.89408   0.38829   0.00000  Uiso   1.00
C1202  C     0.83387   0.91307   0.50028   0.00000  Uiso   1.00
C1203  C     0.94942   0.88455   0.40005   0.00000  Uiso   1.00
C1204  C     0.98503   0.91510   0.42087   0.00000  Uiso   1.00
C1205  C     0.96814   0.95538   0.43006   0.00000  Uiso   1.00
C1206  C     0.91574   0.96537   0.41754   0.00000  Uiso   1.00
C1207  C     0.88018   0.93506   0.39611   0.00000  Uiso   1.00
C1208  C     0.77573   0.76911   0.61196   0.00000  Uiso   1.00
C1209  C     0.79624   0.72866   0.60988   0.00000  Uiso   1.00
C1210  C     0.76554   0.69558   0.58787   0.00000  Uiso   1.00
C1211  C     0.71390   0.70243   0.56886   0.00000  Uiso   1.00
C1212  C     0.69267   0.74211   0.57261   0.00000  Uiso   1.00
C1213  C     0.73417   0.83112   0.48873   0.00000  Uiso   1.00
C1214  C     0.72328   0.77520   0.59439   0.00000  Uiso   1.00
C1215  C     0.88036   0.90215   0.62632   0.00000  Uiso   1.00
C1216  C     0.76640   0.77577   0.37089   0.00000  Uiso   1.00
C1217  C     0.93254   0.83487   0.51144   0.00000  Uiso   1.00
C1218  C     0.68007   0.82040   0.48634   0.00000  Uiso   1.00
C1219  C     0.98708   0.84190   0.51497   0.00000  Uiso   1.00
C1220  C     0.79412   0.68667   0.47260   0.00000  Uiso   1.00
C1221  C     0.87403   0.97966   0.52708   0.00000  Uiso   1.00
C1222  C     0.79421   0.97684   0.47293   0.00000  Uiso   1.00
H1223  H     0.76268   0.70216   0.45237   0.00000  Uiso   1.00
H1224  H     0.90267   0.99667   0.42403   0.00000  Uiso   1.00
H1225  H     0.83992   0.94344   0.38564   0.00000  Uiso   1.00
H1226  H     0.83594   0.72288   0.62509   0.00000  Uiso   1.00
H1227  H     0.78169   0.99797   0.58565   0.00000  Uiso   1.00
H1228  H     0.69006   0.67693   0.55184   0.00000  Uiso   1.00
H1229  H     0.98564   0.74722   0.55912   0.00000  Uiso   1.00
H1230  H     0.70584   0.80530   0.59852   0.00000  Uiso   1.00
H1231  H     0.87776   0.96527   0.61928   0.00000  Uiso   1.00
H1232  H     0.68937   0.76061   0.36695   0.00000  Uiso   1.00
H1233  H     0.90559   0.96377   0.54706   0.00000  Uiso   1.00
H1234  H     0.76348   0.95882   0.45223   0.00000  Uiso   1.00
H1235  H     0.90427   0.70765   0.54783   0.00000  Uiso   1.00
H1236  H     0.94273   0.72967   0.45687   0.00000  Uiso   1.00
H1237  H     0.71397   0.93636   0.54190   0.00000  Uiso   1.00
H1238  H     0.96321   0.85370   0.39239   0.00000  Uiso   1.00
H1239  H     0.69245   0.90752   0.42958   0.00000  Uiso   1.00
H1240  H     0.99571   0.97895   0.44641   0.00000  Uiso   1.00
N1241  N     0.83332   0.83332   0.61907   0.00000  Uiso   1.00
N1242  N     0.83335   0.83334   0.38093   0.00000  Uiso   1.00
O1243  O     0.83333   0.77225   0.53821   0.00000  Uiso   1.00
O1244  O     0.94768   0.75898   0.47081   0.00000  Uiso   1.00
O1245  O     0.67589   0.88133   0.58204   0.00000  Uiso   1.00
O1246  O     0.69849   0.91326   0.52010   0.00000  Uiso   1.00
O1247  O     0.91969   0.89967   0.60829   0.00000  Uiso   1.00
O1248  O     0.85682   0.94093   0.63011   0.00000  Uiso   1.00
O1249  O     0.77984   0.74107   0.38425   0.00000  Uiso   1.00
O1250  O     0.71351   0.78593   0.36436   0.00000  Uiso   1.00
O1251  O     0.83334   0.89442   0.46179   0.00000  Uiso   1.00
O1252  O     0.83333   0.77226   0.46176   0.00000  Uiso   1.00
O1253  O     0.83334   0.89441   0.53824   0.00000  Uiso   1.00
O1254  O     0.75725   0.83333   0.52928   0.00000  Uiso   1.00
O1255  O     0.90942   0.83334   0.47072   0.00000  Uiso   1.00
O1256  O     0.75725   0.83334   0.45284   0.00000  Uiso   1.00
O1257  O     0.90942   0.83333   0.54716   0.00000  Uiso   1.00
O1258  O     0.69403   0.75724   0.44829   0.00000  Uiso   1.00
Zn1259 Zn    0.83333   0.83333   0.55104   0.00000  Uiso   1.00
Zn1260 Zn    0.83333   0.83334   0.44896   0.00000  Uiso   1.00
C1261  C     0.16650   0.08687   0.83310   0.00000  Uiso   1.00
C1262  C     0.20703   0.02294   0.86034   0.00000  Uiso   1.00
C1263  C     0.16718   0.29052   0.83382   0.00000  Uiso   1.00
C1264  C     0.16720   0.04263   0.83285   0.00000  Uiso   1.00
C1265  C     0.19448   0.19682   0.69414   0.00000  Uiso   1.00
C1266  C     0.13934   0.13624   0.97254   0.00000  Uiso   1.00
C1267  C     0.19194   0.19809   0.97961   0.00000  Uiso   1.00
C1268  C     0.13748   0.13754   0.68658   0.00000  Uiso   1.00
C1269  C     0.32968   0.11104   0.79953   0.00000  Uiso   1.00
C1270  C     0.00897   0.21340   0.87474   0.00000  Uiso   1.00
C1271  C     0.22986   0.22741   0.72163   0.00000  Uiso   1.00
C1272  C     0.16720   0.24640   0.83362   0.00000  Uiso   1.00
C1273  C     0.28276   0.21789   0.73338   0.00000  Uiso   1.00
C1274  C     0.31836   0.24843   0.75420   0.00000  Uiso   1.00
C1275  C     0.30147   0.28871   0.76339   0.00000  Uiso   1.00
C1276  C     0.24907   0.29870   0.75088   0.00000  Uiso   1.00
C1277  C     0.21352   0.26840   0.72944   0.00000  Uiso   1.00
C1278  C     0.10906   0.10245   0.94530   0.00000  Uiso   1.00
C1279  C     0.12958   0.06200   0.94321   0.00000  Uiso   1.00
C1280  C     0.09887   0.02892   0.92120   0.00000  Uiso   1.00
C1281  C     0.04724   0.03577   0.90220   0.00000  Uiso   1.00
C1282  C     0.02600   0.07544   0.90595   0.00000  Uiso   1.00
C1283  C     0.06750   0.16445   0.82207   0.00000  Uiso   1.00
C1284  C     0.05661   0.10853   0.92773   0.00000  Uiso   1.00
C1285  C     0.21370   0.23548   0.95966   0.00000  Uiso   1.00
C1286  C     0.09973   0.10911   0.70422   0.00000  Uiso   1.00
C1287  C     0.26587   0.16821   0.84477   0.00000  Uiso   1.00
C1288  C     0.01340   0.15373   0.81967   0.00000  Uiso   1.00
C1289  C     0.32041   0.17523   0.84831   0.00000  Uiso   1.00
C1290  C     0.12745   0.02000   0.80593   0.00000  Uiso   1.00
C1291  C     0.20736   0.31299   0.86042   0.00000  Uiso   1.00
C1292  C     0.12754   0.31018   0.80626   0.00000  Uiso   1.00
H1293  H     0.09601   0.03550   0.78570   0.00000  Uiso   1.00
H1294  H     0.23600   0.33000   0.75737   0.00000  Uiso   1.00
H1295  H     0.17325   0.27677   0.71898   0.00000  Uiso   1.00
H1296  H     0.16928   0.05622   0.95843   0.00000  Uiso   1.00
H1297  H     0.11502   0.33131   0.91898   0.00000  Uiso   1.00
H1298  H     0.02339   0.01026   0.88517   0.00000  Uiso   1.00
H1299  H     0.31898   0.08056   0.89246   0.00000  Uiso   1.00
H1300  H     0.03917   0.13863   0.93186   0.00000  Uiso   1.00
H1301  H     0.21109   0.29860   0.95261   0.00000  Uiso   1.00
H1302  H     0.02270   0.09394   0.70028   0.00000  Uiso   1.00
H1303  H     0.23892   0.29710   0.88039   0.00000  Uiso   1.00
H1304  H     0.09681   0.29216   0.78557   0.00000  Uiso   1.00
H1305  H     0.23761   0.04099   0.88116   0.00000  Uiso   1.00
H1306  H     0.27606   0.06300   0.79020   0.00000  Uiso   1.00
H1307  H     0.04730   0.26970   0.87523   0.00000  Uiso   1.00
H1308  H     0.29654   0.18704   0.72573   0.00000  Uiso   1.00
H1309  H     0.02578   0.24085   0.76291   0.00000  Uiso   1.00
H1310  H     0.32905   0.31228   0.77974   0.00000  Uiso   1.00
N1311  N     0.16665   0.16666   0.95240   0.00000  Uiso   1.00
N1312  N     0.16668   0.16668   0.71427   0.00000  Uiso   1.00
O1313  O     0.16666   0.10558   0.87154   0.00000  Uiso   1.00
O1314  O     0.28101   0.09232   0.80414   0.00000  Uiso   1.00
O1315  O     0.00923   0.21466   0.91538   0.00000  Uiso   1.00
O1316  O     0.03182   0.24659   0.85343   0.00000  Uiso   1.00
O1317  O     0.25303   0.23300   0.94163   0.00000  Uiso   1.00
O1318  O     0.19015   0.27427   0.96345   0.00000  Uiso   1.00
O1319  O     0.11317   0.07441   0.71758   0.00000  Uiso   1.00
O1320  O     0.04685   0.11926   0.69770   0.00000  Uiso   1.00
O1321  O     0.16667   0.22775   0.79513   0.00000  Uiso   1.00
O1322  O     0.16666   0.10559   0.79510   0.00000  Uiso   1.00
O1323  O     0.16667   0.22774   0.87157   0.00000  Uiso   1.00
O1324  O     0.09058   0.16666   0.86261   0.00000  Uiso   1.00
O1325  O     0.24275   0.16667   0.80405   0.00000  Uiso   1.00
O1326  O     0.09058   0.16667   0.78617   0.00000  Uiso   1.00
O1327  O     0.24275   0.16666   0.88050   0.00000  Uiso   1.00
O1328  O     0.02737   0.09057   0.78163   0.00000  Uiso   1.00
Zn1329 Zn    0.16667   0.16666   0.88437   0.00000  Uiso   1.00
Zn1330 Zn    0.16667   0.16667   0.78229   0.00000  Uiso   1.00
C1331  C     0.49983   0.08687   0.83310   0.00000  Uiso   1.00
C1332  C     0.54036   0.02294   0.86034   0.00000  Uiso   1.00
C1333  C     0.50051   0.29052   0.83382   0.00000  Uiso   1.00
C1334  C     0.50053   0.04263   0.83285   0.00000  Uiso   1.00
C1335  C     0.52781   0.19682   0.69414   0.00000  Uiso   1.00
C1336  C     0.47267   0.13624   0.97254   0.00000  Uiso   1.00
C1337  C     0.52527   0.19809   0.97961   0.00000  Uiso   1.00
C1338  C     0.47081   0.13754   0.68658   0.00000  Uiso   1.00
C1339  C     0.66301   0.11104   0.79953   0.00000  Uiso   1.00
C1340  C     0.34231   0.21340   0.87474   0.00000  Uiso   1.00
C1341  C     0.56319   0.22741   0.72163   0.00000  Uiso   1.00
C1342  C     0.50053   0.24640   0.83362   0.00000  Uiso   1.00
C1343  C     0.61609   0.21789   0.73338   0.00000  Uiso   1.00
C1344  C     0.65170   0.24843   0.75420   0.00000  Uiso   1.00
C1345  C     0.63480   0.28871   0.76339   0.00000  Uiso   1.00
C1346  C     0.58240   0.29870   0.75088   0.00000  Uiso   1.00
C1347  C     0.54685   0.26840   0.72944   0.00000  Uiso   1.00
C1348  C     0.44239   0.10245   0.94530   0.00000  Uiso   1.00
C1349  C     0.46291   0.06200   0.94321   0.00000  Uiso   1.00
C1350  C     0.43220   0.02892   0.92120   0.00000  Uiso   1.00
C1351  C     0.38057   0.03577   0.90220   0.00000  Uiso   1.00
C1352  C     0.35933   0.07544   0.90595   0.00000  Uiso   1.00
C1353  C     0.40083   0.16445   0.82207   0.00000  Uiso   1.00
C1354  C     0.38995   0.10853   0.92773   0.00000  Uiso   1.00
C1355  C     0.54703   0.23548   0.95966   0.00000  Uiso   1.00
C1356  C     0.43307   0.10911   0.70422   0.00000  Uiso   1.00
C1357  C     0.59921   0.16821   0.84477   0.00000  Uiso   1.00
C1358  C     0.34673   0.15373   0.81967   0.00000  Uiso   1.00
C1359  C     0.65375   0.17523   0.84831   0.00000  Uiso   1.00
C1360  C     0.46078   0.02000   0.80593   0.00000  Uiso   1.00
C1361  C     0.54069   0.31299   0.86042   0.00000  Uiso   1.00
C1362  C     0.46088   0.31018   0.80626   0.00000  Uiso   1.00
H1363  H     0.42934   0.03550   0.78570   0.00000  Uiso   1.00
H1364  H     0.56934   0.33000   0.75737   0.00000  Uiso   1.00
H1365  H     0.50659   0.27677   0.71898   0.00000  Uiso   1.00
H1366  H     0.50261   0.05622   0.95843   0.00000  Uiso   1.00
H1367  H     0.44835   0.33131   0.91898   0.00000  Uiso   1.00
H1368  H     0.35673   0.01026   0.88517   0.00000  Uiso   1.00
H1369  H     0.65231   0.08056   0.89246   0.00000  Uiso   1.00
H1370  H     0.37251   0.13863   0.93186   0.00000  Uiso   1.00
H1371  H     0.54442   0.29860   0.95261   0.00000  Uiso   1.00
H1372  H     0.35604   0.09394   0.70028   0.00000  Uiso   1.00
H1373  H     0.57225   0.29710   0.88039   0.00000  Uiso   1.00
H1374  H     0.43015   0.29216   0.78557   0.00000  Uiso   1.00
H1375  H     0.57094   0.04099   0.88116   0.00000  Uiso   1.00
H1376  H     0.60940   0.06300   0.79020   0.00000  Uiso   1.00
H1377  H     0.38063   0.26970   0.87523   0.00000  Uiso   1.00
H1378  H     0.62987   0.18704   0.72573   0.00000  Uiso   1.00
H1379  H     0.35912   0.24085   0.76291   0.00000  Uiso   1.00
H1380  H     0.66238   0.31228   0.77974   0.00000  Uiso   1.00
N1381  N     0.49999   0.16666   0.95240   0.00000  Uiso   1.00
N1382  N     0.50001   0.16668   0.71427   0.00000  Uiso   1.00
O1383  O     0.50000   0.10558   0.87154   0.00000  Uiso   1.00
O1384  O     0.61434   0.09232   0.80414   0.00000  Uiso   1.00
O1385  O     0.34256   0.21466   0.91538   0.00000  Uiso   1.00
O1386  O     0.36515   0.24659   0.85343   0.00000  Uiso   1.00
O1387  O     0.58636   0.23300   0.94163   0.00000  Uiso   1.00
O1388  O     0.52349   0.27427   0.96345   0.00000  Uiso   1.00
O1389  O     0.44651   0.07441   0.71758   0.00000  Uiso   1.00
O1390  O     0.38018   0.11926   0.69770   0.00000  Uiso   1.00
O1391  O     0.50000   0.22775   0.79513   0.00000  Uiso   1.00
O1392  O     0.50000   0.10559   0.79510   0.00000  Uiso   1.00
O1393  O     0.50000   0.22774   0.87157   0.00000  Uiso   1.00
O1394  O     0.42392   0.16666   0.86261   0.00000  Uiso   1.00
O1395  O     0.57608   0.16667   0.80405   0.00000  Uiso   1.00
O1396  O     0.42392   0.16667   0.78617   0.00000  Uiso   1.00
O1397  O     0.57608   0.16666   0.88050   0.00000  Uiso   1.00
O1398  O     0.36070   0.09057   0.78163   0.00000  Uiso   1.00
Zn1399 Zn    0.50000   0.16666   0.88437   0.00000  Uiso   1.00
Zn1400 Zn    0.50000   0.16667   0.78229   0.00000  Uiso   1.00
C1401  C     0.83317   0.08687   0.83310   0.00000  Uiso   1.00
C1402  C     0.87370   0.02294   0.86034   0.00000  Uiso   1.00
C1403  C     0.83385   0.29052   0.83382   0.00000  Uiso   1.00
C1404  C     0.83386   0.04263   0.83285   0.00000  Uiso   1.00
C1405  C     0.86115   0.19682   0.69414   0.00000  Uiso   1.00
C1406  C     0.80601   0.13624   0.97254   0.00000  Uiso   1.00
C1407  C     0.85861   0.19809   0.97961   0.00000  Uiso   1.00
C1408  C     0.80414   0.13754   0.68658   0.00000  Uiso   1.00
C1409  C     0.99634   0.11104   0.79953   0.00000  Uiso   1.00
C1410  C     0.67564   0.21340   0.87474   0.00000  Uiso   1.00
C1411  C     0.89653   0.22741   0.72163   0.00000  Uiso   1.00
C1412  C     0.83387   0.24640   0.83362   0.00000  Uiso   1.00
C1413  C     0.94942   0.21789   0.73338   0.00000  Uiso   1.00
C1414  C     0.98503   0.24843   0.75420   0.00000  Uiso   1.00
C1415  C     0.96814   0.28871   0.76339   0.00000  Uiso   1.00
C1416  C     0.91574   0.29870   0.75088   0.00000  Uiso   1.00
C1417  C     0.88018   0.26840   0.72944   0.00000  Uiso   1.00
C1418  C     0.77573   0.10245   0.94530   0.00000  Uiso   1.00
C1419  C     0.79624   0.06200   0.94321   0.00000  Uiso   1.00
C1420  C     0.76554   0.02892   0.92120   0.00000  Uiso   1.00
C1421  C     0.71390   0.03577   0.90220   0.00000  Uiso   1.00
C1422  C     0.69267   0.07544   0.90595   0.00000  Uiso   1.00
C1423  C     0.73417   0.16445   0.82207   0.00000  Uiso   1.00
C1424  C     0.72328   0.10853   0.92773   0.00000  Uiso   1.00
C1425  C     0.88036   0.23548   0.95966   0.00000  Uiso   1.00
C1426  C     0.76640   0.10911   0.70422   0.00000  Uiso   1.00
C1427  C     0.93254   0.16821   0.84477   0.00000  Uiso   1.00
C1428  C     0.68007   0.15373   0.81967   0.00000  Uiso   1.00
C1429  C     0.98708   0.17523   0.84831   0.00000  Uiso   1.00
C1430  C     0.79412   0.02000   0.80593   0.00000  Uiso   1.00
C1431  C     0.87403   0.31299   0.86042   0.00000  Uiso   1.00
C1432  C     0.79421   0.31018   0.80626   0.00000  Uiso   1.00
H1433  H     0.76268   0.03550   0.78570   0.00000  Uiso   1.00
H1434  H     0.90267   0.33000   0.75737   0.00000  Uiso   1.00
H1435  H     0.83992   0.27677   0.71898   0.00000  Uiso   1.00
H1436  H     0.83594   0.05622   0.95843   0.00000  Uiso   1.00
H1437  H     0.78169   0.33131   0.91898   0.00000  Uiso   1.00
H1438  H     0.69006   0.01026   0.88517   0.00000  Uiso   1.00
H1439  H     0.98564   0.08056   0.89246   0.00000  Uiso   1.00
H1440  H     0.70584   0.13863   0.93186   0.00000  Uiso   1.00
H1441  H     0.87776   0.29860   0.95261   0.00000  Uiso   1.00
H1442  H     0.68937   0.09394   0.70028   0.00000  Uiso   1.00
H1443  H     0.90559   0.29710   0.88039   0.00000  Uiso   1.00
H1444  H     0.76348   0.29216   0.78557   0.00000  Uiso   1.00
H1445  H     0.90427   0.04099   0.88116   0.00000  Uiso   1.00
H1446  H     0.94273   0.06300   0.79020   0.00000  Uiso   1.00
H1447  H     0.71397   0.26970   0.87523   0.00000  Uiso   1.00
H1448  H     0.96321   0.18704   0.72573   0.00000  Uiso   1.00
H1449  H     0.69245   0.24085   0.76291   0.00000  Uiso   1.00
H1450  H     0.99571   0.31228   0.77974   0.00000  Uiso   1.00
N1451  N     0.83332   0.16666   0.95240   0.00000  Uiso   1.00
N1452  N     0.83335   0.16668   0.71427   0.00000  Uiso   1.00
O1453  O     0.83333   0.10558   0.87154   0.00000  Uiso   1.00
O1454  O     0.94768   0.09232   0.80414   0.00000  Uiso   1.00
O1455  O     0.67589   0.21466   0.91538   0.00000  Uiso   1.00
O1456  O     0.69849   0.24659   0.85343   0.00000  Uiso   1.00
O1457  O     0.91969   0.23300   0.94163   0.00000  Uiso   1.00
O1458  O     0.85682   0.27427   0.96345   0.00000  Uiso   1.00
O1459  O     0.77984   0.07441   0.71758   0.00000  Uiso   1.00
O1460  O     0.71351   0.11926   0.69770   0.00000  Uiso   1.00
O1461  O     0.83334   0.22775   0.79513   0.00000  Uiso   1.00
O1462  O     0.83333   0.10559   0.79510   0.00000  Uiso   1.00
O1463  O     0.83334   0.22774   0.87157   0.00000  Uiso   1.00
O1464  O     0.75725   0.16666   0.86261   0.00000  Uiso   1.00
O1465  O     0.90942   0.16667   0.80405   0.00000  Uiso   1.00
O1466  O     0.75725   0.16667   0.78617   0.00000  Uiso   1.00
O1467  O     0.90942   0.16666   0.88050   0.00000  Uiso   1.00
O1468  O     0.69403   0.09057   0.78163   0.00000  Uiso   1.00
Zn1469 Zn    0.83333   0.16666   0.88437   0.00000  Uiso   1.00
Zn1470 Zn    0.83333   0.16667   0.78229   0.00000  Uiso   1.00
C1471  C     0.16650   0.42020   0.83310   0.00000  Uiso   1.00
C1472  C     0.20703   0.35627   0.86034   0.00000  Uiso   1.00
C1473  C     0.16718   0.62386   0.83382   0.00000  Uiso   1.00
C1474  C     0.16720   0.37596   0.83285   0.00000  Uiso   1.00
C1475  C     0.19448   0.53015   0.69414   0.00000  Uiso   1.00
C1476  C     0.13934   0.46958   0.97254   0.00000  Uiso   1.00
C1477  C     0.19194   0.53142   0.97961   0.00000  Uiso   1.00
C1478  C     0.13748   0.47087   0.68658   0.00000  Uiso   1.00
C1479  C     0.32968   0.44437   0.79953   0.00000  Uiso   1.00
C1480  C     0.00897   0.54674   0.87474   0.00000  Uiso   1.00
C1481  C     0.22986   0.56075   0.72163   0.00000  Uiso   1.00
C1482  C     0.16720   0.57973   0.83362   0.00000  Uiso   1.00
C1483  C     0.28276   0.55122   0.73338   0.00000  Uiso   1.00
C1484  C     0.31836   0.58177   0.75420   0.00000  Uiso   1.00
C1485  C     0.30147   0.62204   0.76339   0.00000  Uiso   1.00
C1486  C     0.24907   0.63204   0.75088   0.00000  Uiso   1.00
C1487  C     0.21352   0.60173   0.72944   0.00000  Uiso   1.00
C1488  C     0.10906   0.43578   0.94530   0.00000  Uiso   1.00
C1489  C     0.12958   0.39533   0.94321   0.00000  Uiso   1.00
C1490  C     0.09887   0.36225   0.92120   0.00000  Uiso   1.00
C1491  C     0.04724   0.36910   0.90220   0.00000  Uiso   1.00
C1492  C     0.02600   0.40878   0.90595   0.00000  Uiso   1.00
C1493  C     0.06750   0.49778   0.82207   0.00000  Uiso   1.00
C1494  C     0.05661   0.44187   0.92773   0.00000  Uiso   1.00
C1495  C     0.21370   0.56882   0.95966   0.00000  Uiso   1.00
C1496  C     0.09973   0.44244   0.70422   0.00000  Uiso   1.00
C1497  C     0.26587   0.50154   0.84477   0.00000  Uiso   1.00
C1498  C     0.01340   0.48706   0.81967   0.00000  Uiso   1.00
C1499  C     0.32041   0.50857   0.84831   0.00000  Uiso   1.00
C1500  C     0.12745   0.35333   0.80593   0.00000  Uiso   1.00
C1501  C     0.20736   0.64633   0.86042   0.00000  Uiso   1.00
C1502  C     0.12754   0.64351   0.80626   0.00000  Uiso   1.00
H1503  H     0.09601   0.36883   0.78570   0.00000  Uiso   1.00
H1504  H     0.23600   0.66333   0.75737   0.00000  Uiso   1.00
H1505  H     0.17325   0.61010   0.71898   0.00000  Uiso   1.00
H1506  H     0.16928   0.38955   0.95843   0.00000  Uiso   1.00
H1507  H     0.11502   0.66464   0.91898   0.00000  Uiso   1.00
H1508  H     0.02339   0.34360   0.88517   0.00000  Uiso   1.00
H1509  H     0.31898   0.41389   0.89246   0.00000  Uiso   1.00
H1510  H     0.03917   0.47197   0.93186   0.00000  Uiso   1.00
H1511  H     0.21109   0.63193   0.95261   0.00000  Uiso   1.00
H1512  H     0.02270   0.42728   0.70028   0.00000  Uiso   1.00
H1513  H     0.23892   0.63043   0.88039   0.00000  Uiso   1.00
H1514  H     0.09681   0.62549   0.78557   0.00000  Uiso   1.00
H1515  H     0.23761   0.37432   0.88116   0.00000  Uiso   1.00
H1516  H     0.27606   0.39633   0.79020   0.00000  Uiso   1.00
H1517  H     0.04730   0.60303   0.87523   0.00000  Uiso   1.00
H1518  H     0.29654   0.52037   0.72573   0.00000  Uiso   1.00
H1519  H     0.02578   0.57418   0.76291   0.00000  Uiso   1.00
H1520  H     0.32905   0.64562   0.77974   0.00000  Uiso   1.00
N1521  N     0.16665   0.49999   0.95240   0.00000  Uiso   1.00
N1522  N     0.16668   0.50001   0.71427   0.00000  Uiso   1.00
O1523  O     0.16666   0.43892   0.87154   0.00000  Uiso   1.00
O1524  O     0.28101   0.42565   0.80414   0.00000  Uiso   1.00
O1525  O     0.00923   0.54800   0.91538   0.00000  Uiso   1.00
O1526  O     0.03182   0.57992   0.85343   0.00000  Uiso   1.00
O1527  O     0.25303   0.56633   0.94163   0.00000  Uiso   1.00
O1528  O     0.19015   0.60760   0.96345   0.00000  Uiso   1.00
O1529  O     0.11317   0.40774   0.71758   0.00000  Uiso   1.00
O1530  O     0.04685   0.45259   0.69770   0.00000  Uiso   1.00
O1531  O     0.16667   0.56108   0.79513   0.00000  Uiso   1.00
O1532  O     0.16666   0.43893   0.79510   0.00000  Uiso   1.00
O1533  O     0.16667   0.56107   0.87157   0.00000  Uiso   1.00
O1534  O     0.09058   0.50000   0.86261   0.00000  Uiso   1.00
O1535  O     0.24275   0.50000   0.80405   0.00000  Uiso   1.00
O1536  O     0.09058   0.50000   0.78617   0.00000  Uiso   1.00
O1537  O     0.24275   0.50000   0.88050   0.00000  Uiso   1.00
O1538  O     0.02737   0.42391   0.78163   0.00000  Uiso   1.00
Zn1539 Zn    0.16667   0.49999   0.88437   0.00000  Uiso   1.00
Zn1540 Zn    0.16667   0.50001   0.78229   0.00000  Uiso   1.00
C1541  C     0.49983   0.42020   0.83310   0.00000  Uiso   1.00
C1542  C     0.54036   0.35627   0.86034   0.00000  Uiso   1.00
C1543  C     0.50051   0.62386   0.83382   0.00000  Uiso   1.00
C1544  C     0.50053   0.37596   0.83285   0.00000  Uiso   1.00
C1545  C     0.52781   0.53015   0.69414   0.00000  Uiso   1.00
C1546  C     0.47267   0.46958   0.97254   0.00000  Uiso   1.00
C1547  C     0.52527   0.53142   0.97961   0.00000  Uiso   1.00
C1548  C     0.47081   0.47087   0.68658   0.00000  Uiso   1.00
C1549  C     0.66301   0.44437   0.79953   0.00000  Uiso   1.00
C1550  C     0.34231   0.54674   0.87474   0.00000  Uiso   1.00
C1551  C     0.56319   0.56075   0.72163   0.00000  Uiso   1.00
C1552  C     0.50053   0.57973   0.83362   0.00000  Uiso   1.00
C1553  C     0.61609   0.55122   0.73338   0.00000  Uiso   1.00
C1554  C     0.65170   0.58177   0.75420   0.00000  Uiso   1.00
C1555  C     0.63480   0.62204   0.76339   0.00000  Uiso   1.00
C1556  C     0.58240   0.63204   0.75088   0.00000  Uiso   1.00
C1557  C     0.54685   0.60173   0.72944   0.00000  Uiso   1.00
C1558  C     0.44239   0.43578   0.94530   0.00000  Uiso   1.00
C1559  C     0.46291   0.39533   0.94321   0.00000  Uiso   1.00
C1560  C     0.43220   0.36225   0.92120   0.00000  Uiso   1.00
C1561  C     0.38057   0.36910   0.90220   0.00000  Uiso   1.00
C1562  C     0.35933   0.40878   0.90595   0.00000  Uiso   1.00
C1563  C     0.40083   0.49778   0.82207   0.00000  Uiso   1.00
C1564  C     0.38995   0.44187   0.92773   0.00000  Uiso   1.00
C1565  C     0.54703   0.56882   0.95966   0.00000  Uiso   1.00
C1566  C     0.43307   0.44244   0.70422   0.00000  Uiso   1.00
C1567  C     0.59921   0.50154   0.84477   0.00000  Uiso   1.00
C1568  C     0.34673   0.48706   0.81967   0.00000  Uiso   1.00
C1569  C     0.65375   0.50857   0.84831   0.00000  Uiso   1.00
C1570  C     0.46078   0.35333   0.80593   0.00000  Uiso   1.00
C1571  C     0.54069   0.64633   0.86042   0.00000  Uiso   1.00
C1572  C     0.46088   0.64351   0.80626   0.00000  Uiso   1.00
H1573  H     0.42934   0.36883   0.78570   0.00000  Uiso   1.00
H1574  H     0.56934   0.66333   0.75737   0.00000  Uiso   1.00
H1575  H     0.50659   0.61010   0.71898   0.00000  Uiso   1.00
H1576  H     0.50261   0.38955   0.95843   0.00000  Uiso   1.00
H1577  H     0.44835   0.66464   0.91898   0.00000  Uiso   1.00
H1578  H     0.35673   0.34360   0.88517   0.00000  Uiso   1.00
H1579  H     0.65231   0.41389   0.89246   0.00000  Uiso   1.00
H1580  H     0.37251   0.47197   0.93186   0.00000  Uiso   1.00
H1581  H     0.54442   0.63193   0.95261   0.00000  Uiso   1.00
H1582  H     0.35604   0.42728   0.70028   0.00000  Uiso   1.00
H1583  H     0.57225   0.63043   0.88039   0.00000  Uiso   1.00
H1584  H     0.43015   0.62549   0.78557   0.00000  Uiso   1.00
H1585  H     0.57094   0.37432   0.88116   0.00000  Uiso   1.00
H1586  H     0.60940   0.39633   0.79020   0.00000  Uiso   1.00
H1587  H     0.38063   0.60303   0.87523   0.00000  Uiso   1.00
H1588  H     0.62987   0.52037   0.72573   0.00000  Uiso   1.00
H1589  H     0.35912   0.57418   0.76291   0.00000  Uiso   1.00
H1590  H     0.66238   0.64562   0.77974   0.00000  Uiso   1.00
N1591  N     0.49999   0.49999   0.95240   0.00000  Uiso   1.00
N1592  N     0.50001   0.50001   0.71427   0.00000  Uiso   1.00
O1593  O     0.50000   0.43892   0.87154   0.00000  Uiso   1.00
O1594  O     0.61434   0.42565   0.80414   0.00000  Uiso   1.00
O1595  O     0.34256   0.54800   0.91538   0.00000  Uiso   1.00
O1596  O     0.36515   0.57992   0.85343   0.00000  Uiso   1.00
O1597  O     0.58636   0.56633   0.94163   0.00000  Uiso   1.00
O1598  O     0.52349   0.60760   0.96345   0.00000  Uiso   1.00
O1599  O     0.44651   0.40774   0.71758   0.00000  Uiso   1.00
O1600  O     0.38018   0.45259   0.69770   0.00000  Uiso   1.00
O1601  O     0.50000   0.56108   0.79513   0.00000  Uiso   1.00
O1602  O     0.50000   0.43893   0.79510   0.00000  Uiso   1.00
O1603  O     0.50000   0.56107   0.87157   0.00000  Uiso   1.00
O1604  O     0.42392   0.50000   0.86261   0.00000  Uiso   1.00
O1605  O     0.57608   0.50000   0.80405   0.00000  Uiso   1.00
O1606  O     0.42392   0.50000   0.78617   0.00000  Uiso   1.00
O1607  O     0.57608   0.50000   0.88050   0.00000  Uiso   1.00
O1608  O     0.36070   0.42391   0.78163   0.00000  Uiso   1.00
Zn1609 Zn    0.50000   0.49999   0.88437   0.00000  Uiso   1.00
Zn1610 Zn    0.50000   0.50001   0.78229   0.00000  Uiso   1.00
C1611  C     0.83317   0.42020   0.83310   0.00000  Uiso   1.00
C1612  C     0.87370   0.35627   0.86034   0.00000  Uiso   1.00
C1613  C     0.83385   0.62386   0.83382   0.00000  Uiso   1.00
C1614  C     0.83386   0.37596   0.83285   0.00000  Uiso   1.00
C1615  C     0.86115   0.53015   0.69414   0.00000  Uiso   1.00
C1616  C     0.80601   0.46958   0.97254   0.00000  Uiso   1.00
C1617  C     0.85861   0.53142   0.97961   0.00000  Uiso   1.00
C1618  C     0.80414   0.47087   0.68658   0.00000  Uiso   1.00
C1619  C     0.99634   0.44437   0.79953   0.00000  Uiso   1.00
C1620  C     0.67564   0.54674   0.87474   0.00000  Uiso   1.00
C1621  C     0.89653   0.56075   0.72163   0.00000  Uiso   1.00
C1622  C     0.83387   0.57973   0.83362   0.00000  Uiso   1.00
C1623  C     0.94942   0.55122   0.73338   0.00000  Uiso   1.00
C1624  C     0.98503   0.58177   0.75420   0.00000  Uiso   1.00
C1625  C     0.96814   0.62204   0.76339   0.00000  Uiso   1.00
C1626  C     0.91574   0.63204   0.75088   0.00000  Uiso   1.00
C1627  C     0.88018   0.60173   0.72944   0.00000  Uiso   1.00
C1628  C     0.77573   0.43578   0.94530   0.00000  Uiso   1.00
C1629  C     0.79624   0.39533   0.94321   0.00000  Uiso   1.00
C1630  C     0.76554   0.36225   0.92120   0.00000  Uiso   1.00
C1631  C     0.71390   0.36910   0.90220   0.00000  Uiso   1.00
C1632  C     0.69267   0.40878   0.90595   0.00000  Uiso   1.00
C1633  C     0.73417   0.49778   0.82207   0.00000  Uiso   1.00
C1634  C     0.72328   0.44187   0.92773   0.00000  Uiso   1.00
C1635  C     0.88036   0.56882   0.95966   0.00000  Uiso   1.00
C1636  C     0.76640   0.44244   0.70422   0.00000  Uiso   1.00
C1637  C     0.93254   0.50154   0.84477   0.00000  Uiso   1.00
C1638  C     0.68007   0.48706   0.81967   0.00000  Uiso   1.00
C1639  C     0.98708   0.50857   0.84831   0.00000  Uiso   1.00
C1640  C     0.79412   0.35333   0.80593   0.00000  Uiso   1.00
C1641  C     0.87403   0.64633   0.86042   0.00000  Uiso   1.00
C1642  C     0.79421   0.64351   0.80626   0.00000  Uiso   1.00
H1643  H     0.76268   0.36883   0.78570   0.00000  Uiso   1.00
H1644  H     0.90267   0.66333   0.75737   0.00000  Uiso   1.00
H1645  H     0.83992   0.61010   0.71898   0.00000  Uiso   1.00
H1646  H     0.83594   0.38955   0.95843   0.00000  Uiso   1.00
H1647  H     0.78169   0.66464   0.91898   0.00000  Uiso   1.00
H1648  H     0.69006   0.34360   0.88517   0.00000  Uiso   1.00
H1649  H     0.98564   0.41389   0.89246   0.00000  Uiso   1.00
H1650  H     0.70584   0.47197   0.93186   0.00000  Uiso   1.00
H1651  H     0.87776   0.63193   0.95261   0.00000  Uiso   1.00
H1652  H     0.68937   0.42728   0.70028   0.00000  Uiso   1.00
H1653  H     0.90559   0.63043   0.88039   0.00000  Uiso   1.00
H1654  H     0.76348   0.62549   0.78557   0.00000  Uiso   1.00
H1655  H     0.90427   0.37432   0.88116   0.00000  Uiso   1.00
H1656  H     0.94273   0.39633   0.79020   0.00000  Uiso   1.00
H1657  H     0.71397   0.60303   0.87523   0.00000  Uiso   1.00
H1658  H     0.96321   0.52037   0.72573   0.00000  Uiso   1.00
H1659  H     0.69245   0.57418   0.76291   0.00000  Uiso   1.00
H1660  H     0.99571   0.64562   0.77974   0.00000  Uiso   1.00
N1661  N     0.83332   0.49999   0.95240   0.00000  Uiso   1.00
N1662  N     0.83335   0.50001   0.71427   0.00000  Uiso   1.00
O1663  O     0.83333   0.43892   0.87154   0.00000  Uiso   1.00
O1664  O     0.94768   0.42565   0.80414   0.00000  Uiso   1.00
O1665  O     0.67589   0.54800   0.91538   0.00000  Uiso   1.00
O1666  O     0.69849   0.57992   0.85343   0.00000  Uiso   1.00
O1667  O     0.91969   0.56633   0.94163   0.00000  Uiso   1.00
O1668  O     0.85682   0.60760   0.96345   0.00000  Uiso   1.00
O1669  O     0.77984   0.40774   0.71758   0.00000  Uiso   1.00
O1670  O     0.71351   0.45259   0.69770   0.00000  Uiso   1.00
O1671  O     0.83334   0.56108   0.79513   0.00000  Uiso   1.00
O1672  O     0.83333   0.43893   0.79510   0.00000  Uiso   1.00
O1673  O     0.83334   0.56107   0.87157   0.00000  Uiso   1.00
O1674  O     0.75725   0.50000   0.86261   0.00000  Uiso   1.00
O1675  O     0.90942   0.50000   0.80405   0.00000  Uiso   1.00
O1676  O     0.75725   0.50000   0.78617   0.00000  Uiso   1.00
O1677  O     0.90942   0.50000   0.88050   0.00000  Uiso   1.00
O1678  O     0.69403   0.42391   0.78163   0.00000  Uiso   1.00
Zn1679 Zn    0.83333   0.49999   0.88437   0.00000  Uiso   1.00
Zn1680 Zn    0.83333   0.50001   0.78229   0.00000  Uiso   1.00
C1681  C     0.16650   0.75353   0.83310   0.00000  Uiso   1.00
C1682  C     0.20703   0.68961   0.86034   0.00000  Uiso   1.00
C1683  C     0.16718   0.95719   0.83382   0.00000  Uiso   1.00
C1684  C     0.16720   0.70930   0.83285   0.00000  Uiso   1.00
C1685  C     0.19448   0.86348   0.69414   0.00000  Uiso   1.00
C1686  C     0.13934   0.80291   0.97254   0.00000  Uiso   1.00
C1687  C     0.19194   0.86475   0.97961   0.00000  Uiso   1.00
C1688  C     0.13748   0.80420   0.68658   0.00000  Uiso   1.00
C1689  C     0.32968   0.77770   0.79953   0.00000  Uiso   1.00
C1690  C     0.00897   0.88007   0.87474   0.00000  Uiso   1.00
C1691  C     0.22986   0.89408   0.72163   0.00000  Uiso   1.00
C1692  C     0.16720   0.91307   0.83362   0.00000  Uiso   1.00
C1693  C     0.28276   0.88455   0.73338   0.00000  Uiso   1.00
C1694  C     0.31836   0.91510   0.75420   0.00000  Uiso   1.00
C1695  C     0.30147   0.95538   0.76339   0.00000  Uiso   1.00
C1696  C     0.24907   0.96537   0.75088   0.00000  Uiso   1.00
C1697  C     0.21352   0.93506   0.72944   0.00000  Uiso   1.00
C1698  C     0.10906   0.76911   0.94530   0.00000  Uiso   1.00
C1699  C     0.12958   0.72866   0.94321   0.00000  Uiso   1.00
C1700  C     0.09887   0.69558   0.92120   0.00000  Uiso   1.00
C1701  C     0.04724   0.70243   0.90220   0.00000  Uiso   1.00
C1702  C     0.02600   0.74211   0.90595   0.00000  Uiso   1.00
C1703  C     0.06750   0.83112   0.82207   0.00000  Uiso   1.00
C1704  C     0.05661   0.77520   0.92773   0.00000  Uiso   1.00
C1705  C     0.21370   0.90215   0.95966   0.00000  Uiso   1.00
C1706  C     0.09973   0.77577   0.70422   0.00000  Uiso   1.00
C1707  C     0.26587   0.83487   0.84477   0.00000  Uiso   1.00
C1708  C     0.01340   0.82040   0.81967   0.00000  Uiso   1.00
C1709  C     0.32041   0.84190   0.84831   0.00000  Uiso   1.00
C1710  C     0.12745   0.68667   0.80593   0.00000  Uiso   1.00
C1711  C     0.20736   0.97966   0.86042   0.00000  Uiso   1.00
C1712  C     0.12754   0.97684   0.80626   0.00000  Uiso   1.00
H1713  H     0.09601   0.70216   0.78570   0.00000  Uiso   1.00
H1714  H     0.23600   0.99667   0.75737   0.00000  Uiso   1.00
H1715  H     0.17325   0.94344   0.71898   0.00000  Uiso   1.00
H1716  H     0.16928   0.72288   0.95843   0.00000  Uiso   1.00
H1717  H     0.11502   0.99797   0.91898   0.00000  Uiso   1.00
H1718  H     0.02339   0.67693   0.88517   0.00000  Uiso   1.00
H1719  H     0.31898   0.74722   0.89246   0.00000  Uiso   1.00
H1720  H     0.03917   0.80530   0.93186   0.00000  Uiso   1.00
H1721  H     0.21109   0.96527   0.95261   0.00000  Uiso   1.00
H1722  H     0.02270   0.76061   0.70028   0.00000  Uiso   1.00
H1723  H     0.23892   0.96377   0.88039   0.00000  Uiso   1.00
H1724  H     0.09681   0.95882   0.78557   0.00000  Uiso   1.00
H1725  H     0.23761   0.70765   0.88116   0.00000  Uiso   1.00
H1726  H     0.27606   0.72967   0.79020   0.00000  Uiso   1.00
H1727  H     0.04730   0.93636   0.87523   0.00000  Uiso   1.00
H1728  H     0.29654   0.85370   0.72573   0.00000  Uiso   1.00
H1729  H     0.02578   0.90752   0.76291   0.00000  Uiso   1.00
H1730  H     0.32905   0.97895   0.77974   0.00000  Uiso   1.00
N1731  N     0.16665   0.83332   0.95240   0.00000  Uiso   1.00
N1732  N     0.16668   0.83334   0.71427   0.00000  Uiso   1.00
O1733  O     0.16666   0.77225   0.87154   0.00000  Uiso   1.00
O1734  O     0.28101   0.75898   0.80414   0.00000  Uiso   1.00
O1735  O     0.00923   0.88133   0.91538   0.00000  Uiso   1.00
O1736  O     0.03182   0.91326   0.85343   0.00000  Uiso   1.00
O1737  O     0.25303   0.89967   0.94163   0.00000  Uiso   1.00
O1738  O     0.19015   0.94093   0.96345   0.00000  Uiso   1.00
O1739  O     0.11317   0.74107   0.71758   0.00000  Uiso   1.00
O1740  O     0.04685   0.78593   0.69770   0.00000  Uiso   1.00
O1741  O     0.16667   0.89442   0.79513   0.00000  Uiso   1.00
O1742  O     0.16666   0.77226   0.79510   0.00000  Uiso   1.00
O1743  O     0.16667   0.89441   0.87157   0.00000  Uiso   1.00
O1744  O     0.09058   0.83333   0.86261   0.00000  Uiso   1.00
O1745  O     0.24275   0.83334   0.80405   0.00000  Uiso   1.00
O1746  O     0.09058   0.83334   0.78617   0.00000  Uiso   1.00
O1747  O     0.24275   0.83333   0.88050   0.00000  Uiso   1.00
O1748  O     0.02737   0.75724   0.78163   0.00000  Uiso   1.00
Zn1749 Zn    0.16667   0.83333   0.88437   0.00000  Uiso   1.00
Zn1750 Zn    0.16667   0.83334   0.78229   0.00000  Uiso   1.00
C1751  C     0.49983   0.75353   0.83310   0.00000  Uiso   1.00
C1752  C     0.54036   0.68961   0.86034   0.00000  Uiso   1.00
C1753  C     0.50051   0.95719   0.83382   0.00000  Uiso   1.00
C1754  C     0.50053   0.70930   0.83285   0.00000  Uiso   1.00
C1755  C     0.52781   0.86348   0.69414   0.00000  Uiso   1.00
C1756  C     0.47267   0.80291   0.97254   0.00000  Uiso   1.00
C1757  C     0.52527   0.86475   0.97961   0.00000  Uiso   1.00
C1758  C     0.47081   0.80420   0.68658   0.00000  Uiso   1.00
C1759  C     0.66301   0.77770   0.79953   0.00000  Uiso   1.00
C1760  C     0.34231   0.88007   0.87474   0.00000  Uiso   1.00
C1761  C     0.56319   0.89408   0.72163   0.00000  Uiso   1.00
C1762  C     0.50053   0.91307   0.83362   0.00000  Uiso   1.00
C1763  C     0.61609   0.88455   0.73338   0.00000  Uiso   1.00
C1764  C     0.65170   0.91510   0.75420   0.00000  Uiso   1.00
C1765  C     0.63480   0.95538   0.76339   0.00000  Uiso   1.00
C1766  C     0.58240   0.96537   0.75088   0.00000  Uiso   1.00
C1767  C     0.54685   0.93506   0.72944   0.00000  Uiso   1.00
C1768  C     0.44239   0.76911   0.94530   0.00000  Uiso   1.00
C1769  C     0.46291   0.72866   0.94321   0.00000  Uiso   1.00
C1770  C     0.43220   0.69558   0.92120   0.00000  Uiso   1.00
C1771  C     0.38057   0.70243   0.90220   0.00000  Uiso   1.00
C1772  C     0.35933   0.74211   0.90595   0.00000  Uiso   1.00
C1773  C     0.40083   0.83112   0.82207   0.00000  Uiso   1.00
C1774  C     0.38995   0.77520   0.92773   0.00000  Uiso   1.00
C1775  C     0.54703   0.90215   0.95966   0.00000  Uiso   1.00
C1776  C     0.43307   0.77577   0.70422   0.00000  Uiso   1.00
C1777  C     0.59921   0.83487   0.84477   0.00000  Uiso   1.00
C1778  C     0.34673   0.82040   0.81967   0.00000  Uiso   1.00
C1779  C     0.65375   0.84190   0.84831   0.00000  Uiso   1.00
C1780  C     0.46078   0.68667   0.80593   0.00000  Uiso   1.00
C1781  C     0.54069   0.97966   0.86042   0.00000  Uiso   1.00
C1782  C     0.46088   0.97684   0.80626   0.00000  Uiso   1.00
H1783  H     0.42934   0.70216   0.78570   0.00000  Uiso   1.00
H1784  H     0.56934   0.99667   0.75737   0.00000  Uiso   1.00
H1785  H     0.50659   0.94344   0.71898   0.00000  Uiso   1.00
H1786  H     0.50261   0.72288   0.95843   0.00000  Uiso   1.00
H1787  H     0.44835   0.99797   0.91898   0.00000  Uiso   1.00
H1788  H     0.35673   0.67693   0.88517   0.00000  Uiso   1.00
H1789  H     0.65231   0.74722   0.89246   0.00000  Uiso   1.00
H1790  H     0.37251   0.80530   0.93186   0.00000  Uiso   1.00
H1791  H     0.54442   0.96527   0.95261   0.00000  Uiso   1.00
H1792  H     0.35604   0.76061   0.70028   0.00000  Uiso   1.00
H1793  H     0.57225   0.96377   0.88039   0.00000  Uiso   1.00
H1794  H     0.43015   0.95882   0.78557   0.00000  Uiso   1.00
H1795  H     0.57094   0.70765   0.88116   0.00000  Uiso   1.00
H1796  H     0.60940   0.72967   0.79020   0.00000  Uiso   1.00
H1797  H     0.38063   0.93636   0.87523   0.00000  Uiso   1.00
H1798  H     0.62987   0.85370   0.72573   0.00000  Uiso   1.00
H1799  H     0.35912   0.90752   0.76291   0.00000  Uiso   1.00
H1800  H     0.66238   0.97895   0.77974   0.00000  Uiso   1.00
N1801  N     0.49999   0.83332   0.95240   0.00000  Uiso   1.00
N1802  N     0.50001   0.83334   0.71427   0.00000  Uiso   1.00
O1803  O     0.50000   0.77225   0.87154   0.00000  Uiso   1.00
O1804  O     0.61434   0.75898   0.80414   0.00000  Uiso   1.00
O1805  O     0.34256   0.88133   0.91538   0.00000  Uiso   1.00
O1806  O     0.36515   0.91326   0.85343   0.00000  Uiso   1.00
O1807  O     0.58636   0.89967   0.94163   0.00000  Uiso   1.00
O1808  O     0.52349   0.94093   0.96345   0.00000  Uiso   1.00
O1809  O     0.44651   0.74107   0.71758   0.00000  Uiso   1.00
O1810  O     0.38018   0.78593   0.69770   0.00000  Uiso   1.00
O1811  O     0.50000   0.89442   0.79513   0.00000  Uiso   1.00
O1812  O     0.50000   0.77226   0.79510   0.00000  Uiso   1.00
O1813  O     0.50000   0.89441   0.87157   0.00000  Uiso   1.00
O1814  O     0.42392   0.83333   0.86261   0.00000  Uiso   1.00
O1815  O     0.57608   0.83334   0.80405   0.00000  Uiso   1.00
O1816  O     0.42392   0.83334   0.78617   0.00000  Uiso   1.00
O1817  O     0.57608   0.83333   0.88050   0.00000  Uiso   1.00
O1818  O     0.36070   0.75724   0.78163   0.00000  Uiso   1.00
Zn1819 Zn    0.50000   0.83333   0.88437   0.00000  Uiso   1.00
Zn1820 Zn    0.50000   0.83334   0.78229   0.00000  Uiso   1.00
C1821  C     0.83317   0.75353   0.83310   0.00000  Uiso   1.00
C1822  C     0.87370   0.68961   0.86034   0.00000  Uiso   1.00
C1823  C     0.83385   0.95719   0.83382   0.00000  Uiso   1.00
C1824  C     0.83386   0.70930   0.83285   0.00000  Uiso   1.00
C1825  C     0.86115   0.86348   0.69414   0.00000  Uiso   1.00
C1826  C     0.80601   0.80291   0.97254   0.00000  Uiso   1.00
C1827  C     0.85861   0.86475   0.97961   0.00000  Uiso   1.00
C1828  C     0.80414   0.80420   0.68658   0.00000  Uiso   1.00
C1829  C     0.99634   0.77770   0.79953   0.00000  Uiso   1.00
C1830  C     0.67564   0.88007   0.87474   0.00000  Uiso   1.00
C1831  C     0.89653   0.89408   0.72163   0.00000  Uiso   1.00
C1832  C     0.83387   0.91307   0.83362   0.00000  Uiso   1.00
C1833  C     0.94942   0.88455   0.73338   0.00000  Uiso   1.00
C1834  C     0.98503   0.91510   0.75420   0.00000  Uiso   1.00
C1835  C     0.96814   0.95538   0.76339   0.00000  Uiso   1.00
C1836  C     0.91574   0.96537   0.75088   0.00000  Uiso   1.00
C1837  C     0.88018   0.93506   0.72944   0.00000  Uiso   1.00
C1838  C     0.77573   0.76911   0.94530   0.00000  Uiso   1.00
C1839  C     0.79624   0.72866   0.94321   0.00000  Uiso   1.00
C1840  C     0.76554   0.69558   0.92120   0.00000  Uiso   1.00
C1841  C     0.71390   0.70243   0.90220   0.00000  Uiso   1.00
C1842  C     0.69267   0.74211   0.90595   0.00000  Uiso   1.00
C1843  C     0.73417   0.83112   0.82207   0.00000  Uiso   1.00
C1844  C     0.72328   0.77520   0.92773   0.00000  Uiso   1.00
C1845  C     0.88036   0.90215   0.95966   0.00000  Uiso   1.00
C1846  C     0.76640   0.77577   0.70422   0.00000  Uiso   1.00
C1847  C     0.93254   0.83487   0.84477   0.00000  Uiso   1.00
C1848  C     0.68007   0.82040   0.81967   0.00000  Uiso   1.00
C1849  C     0.98708   0.84190   0.84831   0.00000  Uiso   1.00
C1850  C     0.79412   0.68667   0.80593   0.00000  Uiso   1.00
C1851  C     0.87403   0.97966   0.86042   0.00000  Uiso   1.00
C1852  C     0.79421   0.97684   0.80626   0.00000  Uiso   1.00
H1853  H     0.76268   0.70216   0.78570   0.00000  Uiso   1.00
H1854  H     0.90267   0.99667   0.75737   0.00000  Uiso   1.00
H1855  H     0.83992   0.94344   0.71898   0.00000  Uiso   1.00
H1856  H     0.83594   0.72288   0.95843   0.00000  Uiso   1.00
H1857  H     0.78169   0.99797   0.91898   0.00000  Uiso   1.00
H1858  H     0.69006   0.67693   0.88517   0.00000  Uiso   1.00
H1859  H     0.98564   0.74722   0.89246   0.00000  Uiso   1.00
H1860  H     0.70584   0.80530   0.93186   0.00000  Uiso   1.00
H1861  H     0.87776   0.96527   0.95261   0.00000  Uiso   1.00
H1862  H     0.68937   0.76061   0.70028   0.00000  Uiso   1.00
H1863  H     0.90559   0.96377   0.88039   0.00000  Uiso   1.00
H1864  H     0.76348   0.95882   0.78557   0.00000  Uiso   1.00
H1865  H     0.90427   0.70765   0.88116   0.00000  Uiso   1.00
H1866  H     0.94273   0.72967   0.79020   0.00000  Uiso   1.00
H1867  H     0.71397   0.93636   0.87523   0.00000  Uiso   1.00
H1868  H     0.96321   0.85370   0.72573   0.00000  Uiso   1.00
H1869  H     0.69245   0.90752   0.76291   0.00000  Uiso   1.00
H1870  H     0.99571   0.97895   0.77974   0.00000  Uiso   1.00
N1871  N     0.83332   0.83332   0.95240   0.00000  Uiso   1.00
N1872  N     0.83335   0.83334   0.71427   0.00000  Uiso   1.00
O1873  O     0.83333   0.77225   0.87154   0.00000  Uiso   1.00
O1874  O     0.94768   0.75898   0.80414   0.00000  Uiso   1.00
O1875  O     0.67589   0.88133   0.91538   0.00000  Uiso   1.00
O1876  O     0.69849   0.91326   0.85343   0.00000  Uiso   1.00
O1877  O     0.91969   0.89967   0.94163   0.00000  Uiso   1.00
O1878  O     0.85682   0.94093   0.96345   0.00000  Uiso   1.00
O1879  O     0.77984   0.74107   0.71758   0.00000  Uiso   1.00
O1880  O     0.71351   0.78593   0.69770   0.00000  Uiso   1.00
O1881  O     0.83334   0.89442   0.79513   0.00000  Uiso   1.00
O1882  O     0.83333   0.77226   0.79510   0.00000  Uiso   1.00
O1883  O     0.83334   0.89441   0.87157   0.00000  Uiso   1.00
O1884  O     0.75725   0.83333   0.86261   0.00000  Uiso   1.00
O1885  O     0.90942   0.83334   0.80405   0.00000  Uiso   1.00
O1886  O     0.75725   0.83334   0.78617   0.00000  Uiso   1.00
O1887  O     0.90942   0.83333   0.88050   0.00000  Uiso   1.00
O1888  O     0.69403   0.75724   0.78163   0.00000  Uiso   1.00
Zn1889 Zn    0.83333   0.83333   0.88437   0.00000  Uiso   1.00
Zn1890 Zn    0.83333   0.83334   0.78229   0.00000  Uiso   1.00
loop_
_geom_bond_atom_site_label_1
_geom_bond_atom_site_label_2
_geom_bond_distance
_geom_bond_site_symmetry_2
_ccdc_geom_bond_type
C1     C4      1.405   .     S
C1     O62     1.294   .     A
C1     O53     1.292   .     A
C2     C4      1.394   .     A
C2     H45     1.082   .     S
C2     C451    1.374   1_545 S
C3     C31     1.392   .     A
C3     C32     1.391   .     A
C3     C12     1.400   .     S
C4     C30     1.392   .     A
C5     N52     1.374   .     A
C5     C11     1.477   .     S
C5     C1267   1.432   1_554 S
C6     N51     1.374   .     A
C6     C18     1.479   .     S
C6     C638    1.431   .     S
C7     C25     1.468   .     S
C7     N51     1.373   .     A
C7     C635    1.432   .     S
C8     C26     1.465   .     S
C8     N52     1.373   .     A
C8     C1266   1.431   1_554 S
C9     O54     1.397   .     S
C9     C98     1.507   .     S
C9     O138    1.220   .     S
C10    O55     1.221   .     D
C10    O56     1.397   .     S
C10    C169    1.494   1_455 S
C11    C13     1.403   .     A
C11    C17     1.405   .     A
C12    O63     1.293   .     A
C12    O61     1.291   .     A
C13    H48     1.083   .     S
C13    C14     1.397   .     A
C14    C15     1.398   .     A
C14    H119    1.081   .     S
C15    C16     1.397   .     A
C15    H50     1.083   .     S
C16    C17     1.398   .     A
C16    H34     1.082   .     S
C17    H35     1.083   .     S
C18    C24     1.401   .     A
C18    C19     1.406   .     A
C19    C20     1.400   .     A
C19    H36     1.083   .     S
C20    C21     1.398   .     A
C20    H457    1.082   1_545 S
C21    C22     1.396   .     A
C21    H38     1.082   .     S
C22    C24     1.396   .     A
C22    H179    1.080   1_455 S
C23    C28     1.418   .     S
C23    O66     1.303   .     A
C23    O64     1.281   .     A
C24    H40     1.080   .     S
C25    O58     1.398   .     S
C25    O57     1.217   .     D
C26    O59     1.220   .     D
C26    O60     1.397   .     S
C27    C29     1.406   .     S
C27    O65     1.285   .     A
C27    O67     1.298   .     A
C28    C149    1.507   1_455 S
C28    C169    1.355   1_455 S
C29    C98     1.355   .     S
C29    C80     1.494   .     S
C30    H33     1.078   .     S
C30    C452    1.370   1_545 S
C31    H43     1.083   .     S
C31    C212    1.374   .     S
C32    H44     1.083   .     S
C32    C240    1.370   .     S
H37    C230    1.082   .     S
H39    C92     1.080   .     S
H41    O58     1.012   .     S
H42    O60     1.013   .     S
H46    O54     1.013   .     S
H47    O56     1.013   .     S
H49    C154    1.081   1_455 S
N51    Zn69    2.045   .     S
N52    Zn70    2.045   .     S
O53    Zn69    1.972   .     S
O61    Zn70    1.972   .     S
O62    Zn70    1.981   .     S
O63    Zn69    1.981   .     S
O64    Zn69    1.980   .     S
O65    Zn70    1.980   .     S
O66    Zn70    1.980   .     S
O67    Zn69    1.980   .     S
O68    C149    1.220   1_455 S
C71    C74     1.405   .     S
C71    O132    1.294   .     A
C71    O123    1.292   .     A
C72    C74     1.394   .     A
C72    H115    1.082   .     S
C72    C521    1.374   1_545 S
C73    C101    1.392   .     A
C73    C102    1.391   .     A
C73    C82     1.400   .     S
C74    C100    1.392   .     A
C75    N122    1.374   .     A
C75    C81     1.477   .     S
C75    C1337   1.432   1_554 S
C76    N121    1.374   .     A
C76    C88     1.479   .     S
C76    C708    1.431   .     S
C77    C95     1.468   .     S
C77    N121    1.373   .     A
C77    C705    1.432   .     S
C78    C96     1.465   .     S
C78    N122    1.373   .     A
C78    C1336   1.431   1_554 S
C79    O124    1.397   .     S
C79    C168    1.507   .     S
C79    O208    1.220   .     S
C80    O125    1.221   .     D
C80    O126    1.397   .     S
C81    C83     1.403   .     A
C81    C87     1.405   .     A
C82    O133    1.293   .     A
C82    O131    1.291   .     A
C83    H118    1.083   .     S
C83    C84     1.397   .     A
C84    C85     1.398   .     A
C84    H189    1.081   .     S
C85    C86     1.397   .     A
C85    H120    1.083   .     S
C86    C87     1.398   .     A
C86    H104    1.082   .     S
C87    H105    1.083   .     S
C88    C94     1.401   .     A
C88    C89     1.406   .     A
C89    C90     1.400   .     A
C89    H106    1.083   .     S
C90    C91     1.398   .     A
C90    H527    1.082   1_545 S
C91    C92     1.396   .     A
C91    H108    1.082   .     S
C92    C94     1.396   .     A
C93    C98     1.418   .     S
C93    O136    1.303   .     A
C93    O134    1.281   .     A
C94    H110    1.080   .     S
C95    O128    1.398   .     S
C95    O127    1.217   .     D
C96    O129    1.220   .     D
C96    O130    1.397   .     S
C97    C99     1.406   .     S
C97    O135    1.285   .     A
C97    O137    1.298   .     A
C99    C168    1.355   .     S
C99    C150    1.494   .     S
C100   H103    1.078   .     S
C100   C522    1.370   1_545 S
C101   H113    1.083   .     S
C101   C282    1.374   .     S
C102   H114    1.083   .     S
C102   C310    1.370   .     S
H107   C300    1.082   .     S
H109   C162    1.080   .     S
H111   O128    1.012   .     S
H112   O130    1.013   .     S
H116   O124    1.013   .     S
H117   O126    1.013   .     S
N121   Zn139   2.045   .     S
N122   Zn140   2.045   .     S
O123   Zn139   1.972   .     S
O131   Zn140   1.972   .     S
O132   Zn140   1.981   .     S
O133   Zn139   1.981   .     S
O134   Zn139   1.980   .     S
O135   Zn140   1.980   .     S
O136   Zn140   1.980   .     S
O137   Zn139   1.980   .     S
C141   C144    1.405   .     S
C141   O202    1.294   .     A
C141   O193    1.292   .     A
C142   C144    1.394   .     A
C142   H185    1.082   .     S
C142   C591    1.374   1_545 S
C143   C171    1.392   .     A
C143   C172    1.391   .     A
C143   C152    1.400   .     S
C144   C170    1.392   .     A
C145   N192    1.374   .     A
C145   C151    1.477   .     S
C145   C1407   1.432   1_554 S
C146   N191    1.374   .     A
C146   C158    1.479   .     S
C146   C778    1.431   .     S
C147   C165    1.468   .     S
C147   N191    1.373   .     A
C147   C775    1.432   .     S
C148   C166    1.465   .     S
C148   N192    1.373   .     A
C148   C1406   1.431   1_554 S
C149   O194    1.397   .     S
C149   C28     1.507   1_655 S
C149   O68     1.220   1_655 S
C150   O195    1.221   .     D
C150   O196    1.397   .     S
C151   C153    1.403   .     A
C151   C157    1.405   .     A
C152   O203    1.293   .     A
C152   O201    1.291   .     A
C153   H188    1.083   .     S
C153   C154    1.397   .     A
C154   C155    1.398   .     A
C154   H49     1.081   1_655 S
C155   C156    1.397   .     A
C155   H190    1.083   .     S
C156   C157    1.398   .     A
C156   H174    1.082   .     S
C157   H175    1.083   .     S
C158   C164    1.401   .     A
C158   C159    1.406   .     A
C159   C160    1.400   .     A
C159   H176    1.083   .     S
C160   C161    1.398   .     A
C160   H597    1.082   1_545 S
C161   C162    1.396   .     A
C161   H178    1.082   .     S
C162   C164    1.396   .     A
C163   C168    1.418   .     S
C163   O206    1.303   .     A
C163   O204    1.281   .     A
C164   H180    1.080   .     S
C165   O198    1.398   .     S
C165   O197    1.217   .     D
C166   O199    1.220   .     D
C166   O200    1.397   .     S
C167   C169    1.406   .     S
C167   O205    1.285   .     A
C167   O207    1.298   .     A
C169   C28     1.355   1_655 S
C169   C10     1.494   1_655 S
C170   H173    1.078   .     S
C170   C592    1.370   1_545 S
C171   H183    1.083   .     S
C171   C352    1.374   .     S
C172   H184    1.083   .     S
C172   C380    1.370   .     S
H177   C370    1.082   .     S
H179   C22     1.080   1_655 S
H181   O198    1.012   .     S
H182   O200    1.013   .     S
H186   O194    1.013   .     S
H187   O196    1.013   .     S
N191   Zn209   2.045   .     S
N192   Zn210   2.045   .     S
O193   Zn209   1.972   .     S
O201   Zn210   1.972   .     S
O202   Zn210   1.981   .     S
O203   Zn209   1.981   .     S
O204   Zn209   1.980   .     S
O205   Zn210   1.980   .     S
O206   Zn210   1.980   .     S
O207   Zn209   1.980   .     S
C211   C214    1.405   .     S
C211   O272    1.294   .     A
C211   O263    1.292   .     A
C212   C214    1.394   .     A
C212   H255    1.082   .     S
C213   C241    1.392   .     A
C213   C242    1.391   .     A
C213   C222    1.400   .     S
C214   C240    1.392   .     A
C215   N262    1.374   .     A
C215   C221    1.477   .     S
C215   C1477   1.432   1_554 S
C216   N261    1.374   .     A
C216   C228    1.479   .     S
C216   C848    1.431   .     S
C217   C235    1.468   .     S
C217   N261    1.373   .     A
C217   C845    1.432   .     S
C218   C236    1.465   .     S
C218   N262    1.373   .     A
C218   C1476   1.431   1_554 S
C219   O264    1.397   .     S
C219   C308    1.507   .     S
C219   O348    1.220   .     S
C220   O265    1.221   .     D
C220   O266    1.397   .     S
C220   C379    1.494   1_455 S
C221   C223    1.403   .     A
C221   C227    1.405   .     A
C222   O273    1.293   .     A
C222   O271    1.291   .     A
C223   H258    1.083   .     S
C223   C224    1.397   .     A
C224   C225    1.398   .     A
C224   H329    1.081   .     S
C225   C226    1.397   .     A
C225   H260    1.083   .     S
C226   C227    1.398   .     A
C226   H244    1.082   .     S
C227   H245    1.083   .     S
C228   C234    1.401   .     A
C228   C229    1.406   .     A
C229   C230    1.400   .     A
C229   H246    1.083   .     S
C230   C231    1.398   .     A
C231   C232    1.396   .     A
C231   H248    1.082   .     S
C232   C234    1.396   .     A
C232   H389    1.080   1_455 S
C233   C238    1.418   .     S
C233   O276    1.303   .     A
C233   O274    1.281   .     A
C234   H250    1.080   .     S
C235   O268    1.398   .     S
C235   O267    1.217   .     D
C236   O269    1.220   .     D
C236   O270    1.397   .     S
C237   C239    1.406   .     S
C237   O275    1.285   .     A
C237   O277    1.298   .     A
C238   C359    1.507   1_455 S
C238   C379    1.355   1_455 S
C239   C308    1.355   .     S
C239   C290    1.494   .     S
C240   H243    1.078   .     S
C241   H253    1.083   .     S
C241   C422    1.374   .     S
C242   H254    1.083   .     S
C242   C450    1.370   .     S
H247   C440    1.082   .     S
H249   C302    1.080   .     S
H251   O268    1.012   .     S
H252   O270    1.013   .     S
H256   O264    1.013   .     S
H257   O266    1.013   .     S
H259   C364    1.081   1_455 S
N261   Zn279   2.045   .     S
N262   Zn280   2.045   .     S
O263   Zn279   1.972   .     S
O271   Zn280   1.972   .     S
O272   Zn280   1.981   .     S
O273   Zn279   1.981   .     S
O274   Zn279   1.980   .     S
O275   Zn280   1.980   .     S
O276   Zn280   1.980   .     S
O277   Zn279   1.980   .     S
O278   C359    1.220   1_455 S
C281   C284    1.405   .     S
C281   O342    1.294   .     A
C281   O333    1.292   .     A
C282   C284    1.394   .     A
C282   H325    1.082   .     S
C283   C311    1.392   .     A
C283   C312    1.391   .     A
C283   C292    1.400   .     S
C284   C310    1.392   .     A
C285   N332    1.374   .     A
C285   C291    1.477   .     S
C285   C1547   1.432   1_554 S
C286   N331    1.374   .     A
C286   C298    1.479   .     S
C286   C918    1.431   .     S
C287   C305    1.468   .     S
C287   N331    1.373   .     A
C287   C915    1.432   .     S
C288   C306    1.465   .     S
C288   N332    1.373   .     A
C288   C1546   1.431   1_554 S
C289   O334    1.397   .     S
C289   C378    1.507   .     S
C289   O418    1.220   .     S
C290   O335    1.221   .     D
C290   O336    1.397   .     S
C291   C293    1.403   .     A
C291   C297    1.405   .     A
C292   O343    1.293   .     A
C292   O341    1.291   .     A
C293   H328    1.083   .     S
C293   C294    1.397   .     A
C294   C295    1.398   .     A
C294   H399    1.081   .     S
C295   C296    1.397   .     A
C295   H330    1.083   .     S
C296   C297    1.398   .     A
C296   H314    1.082   .     S
C297   H315    1.083   .     S
C298   C304    1.401   .     A
C298   C299    1.406   .     A
C299   C300    1.400   .     A
C299   H316    1.083   .     S
C300   C301    1.398   .     A
C301   C302    1.396   .     A
C301   H318    1.082   .     S
C302   C304    1.396   .     A
C303   C308    1.418   .     S
C303   O346    1.303   .     A
C303   O344    1.281   .     A
C304   H320    1.080   .     S
C305   O338    1.398   .     S
C305   O337    1.217   .     D
C306   O339    1.220   .     D
C306   O340    1.397   .     S
C307   C309    1.406   .     S
C307   O345    1.285   .     A
C307   O347    1.298   .     A
C309   C378    1.355   .     S
C309   C360    1.494   .     S
C310   H313    1.078   .     S
C311   H323    1.083   .     S
C311   C492    1.374   .     S
C312   H324    1.083   .     S
C312   C520    1.370   .     S
H317   C510    1.082   .     S
H319   C372    1.080   .     S
H321   O338    1.012   .     S
H322   O340    1.013   .     S
H326   O334    1.013   .     S
H327   O336    1.013   .     S
N331   Zn349   2.045   .     S
N332   Zn350   2.045   .     S
O333   Zn349   1.972   .     S
O341   Zn350   1.972   .     S
O342   Zn350   1.981   .     S
O343   Zn349   1.981   .     S
O344   Zn349   1.980   .     S
O345   Zn350   1.980   .     S
O346   Zn350   1.980   .     S
O347   Zn349   1.980   .     S
C351   C354    1.405   .     S
C351   O412    1.294   .     A
C351   O403    1.292   .     A
C352   C354    1.394   .     A
C352   H395    1.082   .     S
C353   C381    1.392   .     A
C353   C382    1.391   .     A
C353   C362    1.400   .     S
C354   C380    1.392   .     A
C355   N402    1.374   .     A
C355   C361    1.477   .     S
C355   C1617   1.432   1_554 S
C356   N401    1.374   .     A
C356   C368    1.479   .     S
C356   C988    1.431   .     S
C357   C375    1.468   .     S
C357   N401    1.373   .     A
C357   C985    1.432   .     S
C358   C376    1.465   .     S
C358   N402    1.373   .     A
C358   C1616   1.431   1_554 S
C359   O404    1.397   .     S
C359   C238    1.507   1_655 S
C359   O278    1.220   1_655 S
C360   O405    1.221   .     D
C360   O406    1.397   .     S
C361   C363    1.403   .     A
C361   C367    1.405   .     A
C362   O413    1.293   .     A
C362   O411    1.291   .     A
C363   H398    1.083   .     S
C363   C364    1.397   .     A
C364   C365    1.398   .     A
C364   H259    1.081   1_655 S
C365   C366    1.397   .     A
C365   H400    1.083   .     S
C366   C367    1.398   .     A
C366   H384    1.082   .     S
C367   H385    1.083   .     S
C368   C374    1.401   .     A
C368   C369    1.406   .     A
C369   C370    1.400   .     A
C369   H386    1.083   .     S
C370   C371    1.398   .     A
C371   C372    1.396   .     A
C371   H388    1.082   .     S
C372   C374    1.396   .     A
C373   C378    1.418   .     S
C373   O416    1.303   .     A
C373   O414    1.281   .     A
C374   H390    1.080   .     S
C375   O408    1.398   .     S
C375   O407    1.217   .     D
C376   O409    1.220   .     D
C376   O410    1.397   .     S
C377   C379    1.406   .     S
C377   O415    1.285   .     A
C377   O417    1.298   .     A
C379   C238    1.355   1_655 S
C379   C220    1.494   1_655 S
C380   H383    1.078   .     S
C381   H393    1.083   .     S
C381   C562    1.374   .     S
C382   H394    1.083   .     S
C382   C590    1.370   .     S
H387   C580    1.082   .     S
H389   C232    1.080   1_655 S
H391   O408    1.012   .     S
H392   O410    1.013   .     S
H396   O404    1.013   .     S
H397   O406    1.013   .     S
N401   Zn419   2.045   .     S
N402   Zn420   2.045   .     S
O403   Zn419   1.972   .     S
O411   Zn420   1.972   .     S
O412   Zn420   1.981   .     S
O413   Zn419   1.981   .     S
O414   Zn419   1.980   .     S
O415   Zn420   1.980   .     S
O416   Zn420   1.980   .     S
O417   Zn419   1.980   .     S
C421   C424    1.405   .     S
C421   O482    1.294   .     A
C421   O473    1.292   .     A
C422   C424    1.394   .     A
C422   H465    1.082   .     S
C423   C451    1.392   .     A
C423   C452    1.391   .     A
C423   C432    1.400   .     S
C424   C450    1.392   .     A
C425   N472    1.374   .     A
C425   C431    1.477   .     S
C425   C1687   1.432   1_554 S
C426   N471    1.374   .     A
C426   C438    1.479   .     S
C426   C1058   1.431   .     S
C427   C445    1.468   .     S
C427   N471    1.373   .     A
C427   C1055   1.432   .     S
C428   C446    1.465   .     S
C428   N472    1.373   .     A
C428   C1686   1.431   1_554 S
C429   O474    1.397   .     S
C429   C518    1.507   .     S
C429   O558    1.220   .     S
C430   O475    1.221   .     D
C430   O476    1.397   .     S
C430   C589    1.494   1_455 S
C431   C433    1.403   .     A
C431   C437    1.405   .     A
C432   O483    1.293   .     A
C432   O481    1.291   .     A
C433   H468    1.083   .     S
C433   C434    1.397   .     A
C434   C435    1.398   .     A
C434   H539    1.081   .     S
C435   C436    1.397   .     A
C435   H470    1.083   .     S
C436   C437    1.398   .     A
C436   H454    1.082   .     S
C437   H455    1.083   .     S
C438   C444    1.401   .     A
C438   C439    1.406   .     A
C439   C440    1.400   .     A
C439   H456    1.083   .     S
C440   C441    1.398   .     A
C441   C442    1.396   .     A
C441   H458    1.082   .     S
C442   C444    1.396   .     A
C442   H599    1.080   1_455 S
C443   C448    1.418   .     S
C443   O486    1.303   .     A
C443   O484    1.281   .     A
C444   H460    1.080   .     S
C445   O478    1.398   .     S
C445   O477    1.217   .     D
C446   O479    1.220   .     D
C446   O480    1.397   .     S
C447   C449    1.406   .     S
C447   O485    1.285   .     A
C447   O487    1.298   .     A
C448   C569    1.507   1_455 S
C448   C589    1.355   1_455 S
C449   C518    1.355   .     S
C449   C500    1.494   .     S
C450   H453    1.078   .     S
C451   H463    1.083   .     S
C451   C2      1.374   1_565 S
C452   H464    1.083   .     S
C452   C30     1.370   1_565 S
H457   C20     1.082   1_565 S
H459   C512    1.080   .     S
H461   O478    1.012   .     S
H462   O480    1.013   .     S
H466   O474    1.013   .     S
H467   O476    1.013   .     S
H469   C574    1.081   1_455 S
N471   Zn489   2.045   .     S
N472   Zn490   2.045   .     S
O473   Zn489   1.972   .     S
O481   Zn490   1.972   .     S
O482   Zn490   1.981   .     S
O483   Zn489   1.981   .     S
O484   Zn489   1.980   .     S
O485   Zn490   1.980   .     S
O486   Zn490   1.980   .     S
O487   Zn489   1.980   .     S
O488   C569    1.220   1_455 S
C491   C494    1.405   .     S
C491   O552    1.294   .     A
C491   O543    1.292   .     A
C492   C494    1.394   .     A
C492   H535    1.082   .     S
C493   C521    1.392   .     A
C493   C522    1.391   .     A
C493   C502    1.400   .     S
C494   C520    1.392   .     A
C495   N542    1.374   .     A
C495   C501    1.477   .     S
C495   C1757   1.432   1_554 S
C496   N541    1.374   .     A
C496   C508    1.479   .     S
C496   C1128   1.431   .     S
C497   C515    1.468   .     S
C497   N541    1.373   .     A
C497   C1125   1.432   .     S
C498   C516    1.465   .     S
C498   N542    1.373   .     A
C498   C1756   1.431   1_554 S
C499   O544    1.397   .     S
C499   C588    1.507   .     S
C499   O628    1.220   .     S
C500   O545    1.221   .     D
C500   O546    1.397   .     S
C501   C503    1.403   .     A
C501   C507    1.405   .     A
C502   O553    1.293   .     A
C502   O551    1.291   .     A
C503   H538    1.083   .     S
C503   C504    1.397   .     A
C504   C505    1.398   .     A
C504   H609    1.081   .     S
C505   C506    1.397   .     A
C505   H540    1.083   .     S
C506   C507    1.398   .     A
C506   H524    1.082   .     S
C507   H525    1.083   .     S
C508   C514    1.401   .     A
C508   C509    1.406   .     A
C509   C510    1.400   .     A
C509   H526    1.083   .     S
C510   C511    1.398   .     A
C511   C512    1.396   .     A
C511   H528    1.082   .     S
C512   C514    1.396   .     A
C513   C518    1.418   .     S
C513   O556    1.303   .     A
C513   O554    1.281   .     A
C514   H530    1.080   .     S
C515   O548    1.398   .     S
C515   O547    1.217   .     D
C516   O549    1.220   .     D
C516   O550    1.397   .     S
C517   C519    1.406   .     S
C517   O555    1.285   .     A
C517   O557    1.298   .     A
C519   C588    1.355   .     S
C519   C570    1.494   .     S
C520   H523    1.078   .     S
C521   H533    1.083   .     S
C521   C72     1.374   1_565 S
C522   H534    1.083   .     S
C522   C100    1.370   1_565 S
H527   C90     1.082   1_565 S
H529   C582    1.080   .     S
H531   O548    1.012   .     S
H532   O550    1.013   .     S
H536   O544    1.013   .     S
H537   O546    1.013   .     S
N541   Zn559   2.045   .     S
N542   Zn560   2.045   .     S
O543   Zn559   1.972   .     S
O551   Zn560   1.972   .     S
O552   Zn560   1.981   .     S
O553   Zn559   1.981   .     S
O554   Zn559   1.980   .     S
O555   Zn560   1.980   .     S
O556   Zn560   1.980   .     S
O557   Zn559   1.980   .     S
C561   C564    1.405   .     S
C561   O622    1.294   .     A
C561   O613    1.292   .     A
C562   C564    1.394   .     A
C562   H605    1.082   .     S
C563   C591    1.392   .     A
C563   C592    1.391   .     A
C563   C572    1.400   .     S
C564   C590    1.392   .     A
C565   N612    1.374   .     A
C565   C571    1.477   .     S
C565   C1827   1.432   1_554 S
C566   N611    1.374   .     A
C566   C578    1.479   .     S
C566   C1198   1.431   .     S
C567   C585    1.468   .     S
C567   N611    1.373   .     A
C567   C1195   1.432   .     S
C568   C586    1.465   .     S
C568   N612    1.373   .     A
C568   C1826   1.431   1_554 S
C569   O614    1.397   .     S
C569   C448    1.507   1_655 S
C569   O488    1.220   1_655 S
C570   O615    1.221   .     D
C570   O616    1.397   .     S
C571   C573    1.403   .     A
C571   C577    1.405   .     A
C572   O623    1.293   .     A
C572   O621    1.291   .     A
C573   H608    1.083   .     S
C573   C574    1.397   .     A
C574   C575    1.398   .     A
C574   H469    1.081   1_655 S
C575   C576    1.397   .     A
C575   H610    1.083   .     S
C576   C577    1.398   .     A
C576   H594    1.082   .     S
C577   H595    1.083   .     S
C578   C584    1.401   .     A
C578   C579    1.406   .     A
C579   C580    1.400   .     A
C579   H596    1.083   .     S
C580   C581    1.398   .     A
C581   C582    1.396   .     A
C581   H598    1.082   .     S
C582   C584    1.396   .     A
C583   C588    1.418   .     S
C583   O626    1.303   .     A
C583   O624    1.281   .     A
C584   H600    1.080   .     S
C585   O618    1.398   .     S
C585   O617    1.217   .     D
C586   O619    1.220   .     D
C586   O620    1.397   .     S
C587   C589    1.406   .     S
C587   O625    1.285   .     A
C587   O627    1.298   .     A
C589   C448    1.355   1_655 S
C589   C430    1.494   1_655 S
C590   H593    1.078   .     S
C591   H603    1.083   .     S
C591   C142    1.374   1_565 S
C592   H604    1.083   .     S
C592   C170    1.370   1_565 S
H597   C160    1.082   1_565 S
H599   C442    1.080   1_655 S
H601   O618    1.012   .     S
H602   O620    1.013   .     S
H606   O614    1.013   .     S
H607   O616    1.013   .     S
N611   Zn629   2.045   .     S
N612   Zn630   2.045   .     S
O613   Zn629   1.972   .     S
O621   Zn630   1.972   .     S
O622   Zn630   1.981   .     S
O623   Zn629   1.981   .     S
O624   Zn629   1.980   .     S
O625   Zn630   1.980   .     S
O626   Zn630   1.980   .     S
O627   Zn629   1.980   .     S
C631   C634    1.405   .     S
C631   O692    1.294   .     A
C631   O683    1.292   .     A
C632   C634    1.394   .     A
C632   H675    1.082   .     S
C632   C1081   1.374   1_545 S
C633   C661    1.392   .     A
C633   C662    1.391   .     A
C633   C642    1.400   .     S
C634   C660    1.392   .     A
C635   N682    1.374   .     A
C635   C641    1.477   .     S
C636   N681    1.374   .     A
C636   C648    1.479   .     S
C636   C1268   1.431   .     S
C637   C655    1.468   .     S
C637   N681    1.373   .     A
C637   C1265   1.432   .     S
C638   C656    1.465   .     S
C638   N682    1.373   .     A
C639   O684    1.397   .     S
C639   C728    1.507   .     S
C639   O768    1.220   .     S
C640   O685    1.221   .     D
C640   O686    1.397   .     S
C640   C799    1.494   1_455 S
C641   C643    1.403   .     A
C641   C647    1.405   .     A
C642   O693    1.293   .     A
C642   O691    1.291   .     A
C643   H678    1.083   .     S
C643   C644    1.397   .     A
C644   C645    1.398   .     A
C644   H749    1.081   .     S
C645   C646    1.397   .     A
C645   H680    1.083   .     S
C646   C647    1.398   .     A
C646   H664    1.082   .     S
C647   H665    1.083   .     S
C648   C654    1.401   .     A
C648   C649    1.406   .     A
C649   C650    1.400   .     A
C649   H666    1.083   .     S
C650   C651    1.398   .     A
C650   H1087   1.082   1_545 S
C651   C652    1.396   .     A
C651   H668    1.082   .     S
C652   C654    1.396   .     A
C652   H809    1.080   1_455 S
C653   C658    1.418   .     S
C653   O696    1.303   .     A
C653   O694    1.281   .     A
C654   H670    1.080   .     S
C655   O688    1.398   .     S
C655   O687    1.217   .     D
C656   O689    1.220   .     D
C656   O690    1.397   .     S
C657   C659    1.406   .     S
C657   O695    1.285   .     A
C657   O697    1.298   .     A
C658   C779    1.507   1_455 S
C658   C799    1.355   1_455 S
C659   C728    1.355   .     S
C659   C710    1.494   .     S
C660   H663    1.078   .     S
C660   C1082   1.370   1_545 S
C661   H673    1.083   .     S
C661   C842    1.374   .     S
C662   H674    1.083   .     S
C662   C870    1.370   .     S
H667   C860    1.082   .     S
H669   C722    1.080   .     S
H671   O688    1.012   .     S
H672   O690    1.013   .     S
H676   O684    1.013   .     S
H677   O686    1.013   .     S
H679   C784    1.081   1_455 S
N681   Zn699   2.045   .     S
N682   Zn700   2.045   .     S
O683   Zn699   1.972   .     S
O691   Zn700   1.972   .     S
O692   Zn700   1.981   .     S
O693   Zn699   1.981   .     S
O694   Zn699   1.980   .     S
O695   Zn700   1.980   .     S
O696   Zn700   1.980   .     S
O697   Zn699   1.980   .     S
O698   C779    1.220   1_455 S
C701   C704    1.405   .     S
C701   O762    1.294   .     A
C701   O753    1.292   .     A
C702   C704    1.394   .     A
C702   H745    1.082   .     S
C702   C1151   1.374   1_545 S
C703   C731    1.392   .     A
C703   C732    1.391   .     A
C703   C712    1.400   .     S
C704   C730    1.392   .     A
C705   N752    1.374   .     A
C705   C711    1.477   .     S
C706   N751    1.374   .     A
C706   C718    1.479   .     S
C706   C1338   1.431   .     S
C707   C725    1.468   .     S
C707   N751    1.373   .     A
C707   C1335   1.432   .     S
C708   C726    1.465   .     S
C708   N752    1.373   .     A
C709   O754    1.397   .     S
C709   C798    1.507   .     S
C709   O838    1.220   .     S
C710   O755    1.221   .     D
C710   O756    1.397   .     S
C711   C713    1.403   .     A
C711   C717    1.405   .     A
C712   O763    1.293   .     A
C712   O761    1.291   .     A
C713   H748    1.083   .     S
C713   C714    1.397   .     A
C714   C715    1.398   .     A
C714   H819    1.081   .     S
C715   C716    1.397   .     A
C715   H750    1.083   .     S
C716   C717    1.398   .     A
C716   H734    1.082   .     S
C717   H735    1.083   .     S
C718   C724    1.401   .     A
C718   C719    1.406   .     A
C719   C720    1.400   .     A
C719   H736    1.083   .     S
C720   C721    1.398   .     A
C720   H1157   1.082   1_545 S
C721   C722    1.396   .     A
C721   H738    1.082   .     S
C722   C724    1.396   .     A
C723   C728    1.418   .     S
C723   O766    1.303   .     A
C723   O764    1.281   .     A
C724   H740    1.080   .     S
C725   O758    1.398   .     S
C725   O757    1.217   .     D
C726   O759    1.220   .     D
C726   O760    1.397   .     S
C727   C729    1.406   .     S
C727   O765    1.285   .     A
C727   O767    1.298   .     A
C729   C798    1.355   .     S
C729   C780    1.494   .     S
C730   H733    1.078   .     S
C730   C1152   1.370   1_545 S
C731   H743    1.083   .     S
C731   C912    1.374   .     S
C732   H744    1.083   .     S
C732   C940    1.370   .     S
H737   C930    1.082   .     S
H739   C792    1.080   .     S
H741   O758    1.012   .     S
H742   O760    1.013   .     S
H746   O754    1.013   .     S
H747   O756    1.013   .     S
N751   Zn769   2.045   .     S
N752   Zn770   2.045   .     S
O753   Zn769   1.972   .     S
O761   Zn770   1.972   .     S
O762   Zn770   1.981   .     S
O763   Zn769   1.981   .     S
O764   Zn769   1.980   .     S
O765   Zn770   1.980   .     S
O766   Zn770   1.980   .     S
O767   Zn769   1.980   .     S
C771   C774    1.405   .     S
C771   O832    1.294   .     A
C771   O823    1.292   .     A
C772   C774    1.394   .     A
C772   H815    1.082   .     S
C772   C1221   1.374   1_545 S
C773   C801    1.392   .     A
C773   C802    1.391   .     A
C773   C782    1.400   .     S
C774   C800    1.392   .     A
C775   N822    1.374   .     A
C775   C781    1.477   .     S
C776   N821    1.374   .     A
C776   C788    1.479   .     S
C776   C1408   1.431   .     S
C777   C795    1.468   .     S
C777   N821    1.373   .     A
C777   C1405   1.432   .     S
C778   C796    1.465   .     S
C778   N822    1.373   .     A
C779   O824    1.397   .     S
C779   C658    1.507   1_655 S
C779   O698    1.220   1_655 S
C780   O825    1.221   .     D
C780   O826    1.397   .     S
C781   C783    1.403   .     A
C781   C787    1.405   .     A
C782   O833    1.293   .     A
C782   O831    1.291   .     A
C783   H818    1.083   .     S
C783   C784    1.397   .     A
C784   C785    1.398   .     A
C784   H679    1.081   1_655 S
C785   C786    1.397   .     A
C785   H820    1.083   .     S
C786   C787    1.398   .     A
C786   H804    1.082   .     S
C787   H805    1.083   .     S
C788   C794    1.401   .     A
C788   C789    1.406   .     A
C789   C790    1.400   .     A
C789   H806    1.083   .     S
C790   C791    1.398   .     A
C790   H1227   1.082   1_545 S
C791   C792    1.396   .     A
C791   H808    1.082   .     S
C792   C794    1.396   .     A
C793   C798    1.418   .     S
C793   O836    1.303   .     A
C793   O834    1.281   .     A
C794   H810    1.080   .     S
C795   O828    1.398   .     S
C795   O827    1.217   .     D
C796   O829    1.220   .     D
C796   O830    1.397   .     S
C797   C799    1.406   .     S
C797   O835    1.285   .     A
C797   O837    1.298   .     A
C799   C658    1.355   1_655 S
C799   C640    1.494   1_655 S
C800   H803    1.078   .     S
C800   C1222   1.370   1_545 S
C801   H813    1.083   .     S
C801   C982    1.374   .     S
C802   H814    1.083   .     S
C802   C1010   1.370   .     S
H807   C1000   1.082   .     S
H809   C652    1.080   1_655 S
H811   O828    1.012   .     S
H812   O830    1.013   .     S
H816   O824    1.013   .     S
H817   O826    1.013   .     S
N821   Zn839   2.045   .     S
N822   Zn840   2.045   .     S
O823   Zn839   1.972   .     S
O831   Zn840   1.972   .     S
O832   Zn840   1.981   .     S
O833   Zn839   1.981   .     S
O834   Zn839   1.980   .     S
O835   Zn840   1.980   .     S
O836   Zn840   1.980   .     S
O837   Zn839   1.980   .     S
C841   C844    1.405   .     S
C841   O902    1.294   .     A
C841   O893    1.292   .     A
C842   C844    1.394   .     A
C842   H885    1.082   .     S
C843   C871    1.392   .     A
C843   C872    1.391   .     A
C843   C852    1.400   .     S
C844   C870    1.392   .     A
C845   N892    1.374   .     A
C845   C851    1.477   .     S
C846   N891    1.374   .     A
C846   C858    1.479   .     S
C846   C1478   1.431   .     S
C847   C865    1.468   .     S
C847   N891    1.373   .     A
C847   C1475   1.432   .     S
C848   C866    1.465   .     S
C848   N892    1.373   .     A
C849   O894    1.397   .     S
C849   C938    1.507   .     S
C849   O978    1.220   .     S
C850   O895    1.221   .     D
C850   O896    1.397   .     S
C850   C1009   1.494   1_455 S
C851   C853    1.403   .     A
C851   C857    1.405   .     A
C852   O903    1.293   .     A
C852   O901    1.291   .     A
C853   H888    1.083   .     S
C853   C854    1.397   .     A
C854   C855    1.398   .     A
C854   H959    1.081   .     S
C855   C856    1.397   .     A
C855   H890    1.083   .     S
C856   C857    1.398   .     A
C856   H874    1.082   .     S
C857   H875    1.083   .     S
C858   C864    1.401   .     A
C858   C859    1.406   .     A
C859   C860    1.400   .     A
C859   H876    1.083   .     S
C860   C861    1.398   .     A
C861   C862    1.396   .     A
C861   H878    1.082   .     S
C862   C864    1.396   .     A
C862   H1019   1.080   1_455 S
C863   C868    1.418   .     S
C863   O906    1.303   .     A
C863   O904    1.281   .     A
C864   H880    1.080   .     S
C865   O898    1.398   .     S
C865   O897    1.217   .     D
C866   O899    1.220   .     D
C866   O900    1.397   .     S
C867   C869    1.406   .     S
C867   O905    1.285   .     A
C867   O907    1.298   .     A
C868   C989    1.507   1_455 S
C868   C1009   1.355   1_455 S
C869   C938    1.355   .     S
C869   C920    1.494   .     S
C870   H873    1.078   .     S
C871   H883    1.083   .     S
C871   C1052   1.374   .     S
C872   H884    1.083   .     S
C872   C1080   1.370   .     S
H877   C1070   1.082   .     S
H879   C932    1.080   .     S
H881   O898    1.012   .     S
H882   O900    1.013   .     S
H886   O894    1.013   .     S
H887   O896    1.013   .     S
H889   C994    1.081   1_455 S
N891   Zn909   2.045   .     S
N892   Zn910   2.045   .     S
O893   Zn909   1.972   .     S
O901   Zn910   1.972   .     S
O902   Zn910   1.981   .     S
O903   Zn909   1.981   .     S
O904   Zn909   1.980   .     S
O905   Zn910   1.980   .     S
O906   Zn910   1.980   .     S
O907   Zn909   1.980   .     S
O908   C989    1.220   1_455 S
C911   C914    1.405   .     S
C911   O972    1.294   .     A
C911   O963    1.292   .     A
C912   C914    1.394   .     A
C912   H955    1.082   .     S
C913   C941    1.392   .     A
C913   C942    1.391   .     A
C913   C922    1.400   .     S
C914   C940    1.392   .     A
C915   N962    1.374   .     A
C915   C921    1.477   .     S
C916   N961    1.374   .     A
C916   C928    1.479   .     S
C916   C1548   1.431   .     S
C917   C935    1.468   .     S
C917   N961    1.373   .     A
C917   C1545   1.432   .     S
C918   C936    1.465   .     S
C918   N962    1.373   .     A
C919   O964    1.397   .     S
C919   C1008   1.507   .     S
C919   O1048   1.220   .     S
C920   O965    1.221   .     D
C920   O966    1.397   .     S
C921   C923    1.403   .     A
C921   C927    1.405   .     A
C922   O973    1.293   .     A
C922   O971    1.291   .     A
C923   H958    1.083   .     S
C923   C924    1.397   .     A
C924   C925    1.398   .     A
C924   H1029   1.081   .     S
C925   C926    1.397   .     A
C925   H960    1.083   .     S
C926   C927    1.398   .     A
C926   H944    1.082   .     S
C927   H945    1.083   .     S
C928   C934    1.401   .     A
C928   C929    1.406   .     A
C929   C930    1.400   .     A
C929   H946    1.083   .     S
C930   C931    1.398   .     A
C931   C932    1.396   .     A
C931   H948    1.082   .     S
C932   C934    1.396   .     A
C933   C938    1.418   .     S
C933   O976    1.303   .     A
C933   O974    1.281   .     A
C934   H950    1.080   .     S
C935   O968    1.398   .     S
C935   O967    1.217   .     D
C936   O969    1.220   .     D
C936   O970    1.397   .     S
C937   C939    1.406   .     S
C937   O975    1.285   .     A
C937   O977    1.298   .     A
C939   C1008   1.355   .     S
C939   C990    1.494   .     S
C940   H943    1.078   .     S
C941   H953    1.083   .     S
C941   C1122   1.374   .     S
C942   H954    1.083   .     S
C942   C1150   1.370   .     S
H947   C1140   1.082   .     S
H949   C1002   1.080   .     S
H951   O968    1.012   .     S
H952   O970    1.013   .     S
H956   O964    1.013   .     S
H957   O966    1.013   .     S
N961   Zn979   2.045   .     S
N962   Zn980   2.045   .     S
O963   Zn979   1.972   .     S
O971   Zn980   1.972   .     S
O972   Zn980   1.981   .     S
O973   Zn979   1.981   .     S
O974   Zn979   1.980   .     S
O975   Zn980   1.980   .     S
O976   Zn980   1.980   .     S
O977   Zn979   1.980   .     S
C981   C984    1.405   .     S
C981   O1042   1.294   .     A
C981   O1033   1.292   .     A
C982   C984    1.394   .     A
C982   H1025   1.082   .     S
C983   C1011   1.392   .     A
C983   C1012   1.391   .     A
C983   C992    1.400   .     S
C984   C1010   1.392   .     A
C985   N1032   1.374   .     A
C985   C991    1.477   .     S
C986   N1031   1.374   .     A
C986   C998    1.479   .     S
C986   C1618   1.431   .     S
C987   C1005   1.468   .     S
C987   N1031   1.373   .     A
C987   C1615   1.432   .     S
C988   C1006   1.465   .     S
C988   N1032   1.373   .     A
C989   O1034   1.397   .     S
C989   C868    1.507   1_655 S
C989   O908    1.220   1_655 S
C990   O1035   1.221   .     D
C990   O1036   1.397   .     S
C991   C993    1.403   .     A
C991   C997    1.405   .     A
C992   O1043   1.293   .     A
C992   O1041   1.291   .     A
C993   H1028   1.083   .     S
C993   C994    1.397   .     A
C994   C995    1.398   .     A
C994   H889    1.081   1_655 S
C995   C996    1.397   .     A
C995   H1030   1.083   .     S
C996   C997    1.398   .     A
C996   H1014   1.082   .     S
C997   H1015   1.083   .     S
C998   C1004   1.401   .     A
C998   C999    1.406   .     A
C999   C1000   1.400   .     A
C999   H1016   1.083   .     S
C1000  C1001   1.398   .     A
C1001  C1002   1.396   .     A
C1001  H1018   1.082   .     S
C1002  C1004   1.396   .     A
C1003  C1008   1.418   .     S
C1003  O1046   1.303   .     A
C1003  O1044   1.281   .     A
C1004  H1020   1.080   .     S
C1005  O1038   1.398   .     S
C1005  O1037   1.217   .     D
C1006  O1039   1.220   .     D
C1006  O1040   1.397   .     S
C1007  C1009   1.406   .     S
C1007  O1045   1.285   .     A
C1007  O1047   1.298   .     A
C1009  C868    1.355   1_655 S
C1009  C850    1.494   1_655 S
C1010  H1013   1.078   .     S
C1011  H1023   1.083   .     S
C1011  C1192   1.374   .     S
C1012  H1024   1.083   .     S
C1012  C1220   1.370   .     S
H1017  C1210   1.082   .     S
H1019  C862    1.080   1_655 S
H1021  O1038   1.012   .     S
H1022  O1040   1.013   .     S
H1026  O1034   1.013   .     S
H1027  O1036   1.013   .     S
N1031  Zn1049  2.045   .     S
N1032  Zn1050  2.045   .     S
O1033  Zn1049  1.972   .     S
O1041  Zn1050  1.972   .     S
O1042  Zn1050  1.981   .     S
O1043  Zn1049  1.981   .     S
O1044  Zn1049  1.980   .     S
O1045  Zn1050  1.980   .     S
O1046  Zn1050  1.980   .     S
O1047  Zn1049  1.980   .     S
C1051  C1054   1.405   .     S
C1051  O1112   1.294   .     A
C1051  O1103   1.292   .     A
C1052  C1054   1.394   .     A
C1052  H1095   1.082   .     S
C1053  C1081   1.392   .     A
C1053  C1082   1.391   .     A
C1053  C1062   1.400   .     S
C1054  C1080   1.392   .     A
C1055  N1102   1.374   .     A
C1055  C1061   1.477   .     S
C1056  N1101   1.374   .     A
C1056  C1068   1.479   .     S
C1056  C1688   1.431   .     S
C1057  C1075   1.468   .     S
C1057  N1101   1.373   .     A
C1057  C1685   1.432   .     S
C1058  C1076   1.465   .     S
C1058  N1102   1.373   .     A
C1059  O1104   1.397   .     S
C1059  C1148   1.507   .     S
C1059  O1188   1.220   .     S
C1060  O1105   1.221   .     D
C1060  O1106   1.397   .     S
C1060  C1219   1.494   1_455 S
C1061  C1063   1.403   .     A
C1061  C1067   1.405   .     A
C1062  O1113   1.293   .     A
C1062  O1111   1.291   .     A
C1063  H1098   1.083   .     S
C1063  C1064   1.397   .     A
C1064  C1065   1.398   .     A
C1064  H1169   1.081   .     S
C1065  C1066   1.397   .     A
C1065  H1100   1.083   .     S
C1066  C1067   1.398   .     A
C1066  H1084   1.082   .     S
C1067  H1085   1.083   .     S
C1068  C1074   1.401   .     A
C1068  C1069   1.406   .     A
C1069  C1070   1.400   .     A
C1069  H1086   1.083   .     S
C1070  C1071   1.398   .     A
C1071  C1072   1.396   .     A
C1071  H1088   1.082   .     S
C1072  C1074   1.396   .     A
C1072  H1229   1.080   1_455 S
C1073  C1078   1.418   .     S
C1073  O1116   1.303   .     A
C1073  O1114   1.281   .     A
C1074  H1090   1.080   .     S
C1075  O1108   1.398   .     S
C1075  O1107   1.217   .     D
C1076  O1109   1.220   .     D
C1076  O1110   1.397   .     S
C1077  C1079   1.406   .     S
C1077  O1115   1.285   .     A
C1077  O1117   1.298   .     A
C1078  C1199   1.507   1_455 S
C1078  C1219   1.355   1_455 S
C1079  C1148   1.355   .     S
C1079  C1130   1.494   .     S
C1080  H1083   1.078   .     S
C1081  H1093   1.083   .     S
C1081  C632    1.374   1_565 S
C1082  H1094   1.083   .     S
C1082  C660    1.370   1_565 S
H1087  C650    1.082   1_565 S
H1089  C1142   1.080   .     S
H1091  O1108   1.012   .     S
H1092  O1110   1.013   .     S
H1096  O1104   1.013   .     S
H1097  O1106   1.013   .     S
H1099  C1204   1.081   1_455 S
N1101  Zn1119  2.045   .     S
N1102  Zn1120  2.045   .     S
O1103  Zn1119  1.972   .     S
O1111  Zn1120  1.972   .     S
O1112  Zn1120  1.981   .     S
O1113  Zn1119  1.981   .     S
O1114  Zn1119  1.980   .     S
O1115  Zn1120  1.980   .     S
O1116  Zn1120  1.980   .     S
O1117  Zn1119  1.980   .     S
O1118  C1199   1.220   1_455 S
C1121  C1124   1.405   .     S
C1121  O1182   1.294   .     A
C1121  O1173   1.292   .     A
C1122  C1124   1.394   .     A
C1122  H1165   1.082   .     S
C1123  C1151   1.392   .     A
C1123  C1152   1.391   .     A
C1123  C1132   1.400   .     S
C1124  C1150   1.392   .     A
C1125  N1172   1.374   .     A
C1125  C1131   1.477   .     S
C1126  N1171   1.374   .     A
C1126  C1138   1.479   .     S
C1126  C1758   1.431   .     S
C1127  C1145   1.468   .     S
C1127  N1171   1.373   .     A
C1127  C1755   1.432   .     S
C1128  C1146   1.465   .     S
C1128  N1172   1.373   .     A
C1129  O1174   1.397   .     S
C1129  C1218   1.507   .     S
C1129  O1258   1.220   .     S
C1130  O1175   1.221   .     D
C1130  O1176   1.397   .     S
C1131  C1133   1.403   .     A
C1131  C1137   1.405   .     A
C1132  O1183   1.293   .     A
C1132  O1181   1.291   .     A
C1133  H1168   1.083   .     S
C1133  C1134   1.397   .     A
C1134  C1135   1.398   .     A
C1134  H1239   1.081   .     S
C1135  C1136   1.397   .     A
C1135  H1170   1.083   .     S
C1136  C1137   1.398   .     A
C1136  H1154   1.082   .     S
C1137  H1155   1.083   .     S
C1138  C1144   1.401   .     A
C1138  C1139   1.406   .     A
C1139  C1140   1.400   .     A
C1139  H1156   1.083   .     S
C1140  C1141   1.398   .     A
C1141  C1142   1.396   .     A
C1141  H1158   1.082   .     S
C1142  C1144   1.396   .     A
C1143  C1148   1.418   .     S
C1143  O1186   1.303   .     A
C1143  O1184   1.281   .     A
C1144  H1160   1.080   .     S
C1145  O1178   1.398   .     S
C1145  O1177   1.217   .     D
C1146  O1179   1.220   .     D
C1146  O1180   1.397   .     S
C1147  C1149   1.406   .     S
C1147  O1185   1.285   .     A
C1147  O1187   1.298   .     A
C1149  C1218   1.355   .     S
C1149  C1200   1.494   .     S
C1150  H1153   1.078   .     S
C1151  H1163   1.083   .     S
C1151  C702    1.374   1_565 S
C1152  H1164   1.083   .     S
C1152  C730    1.370   1_565 S
H1157  C720    1.082   1_565 S
H1159  C1212   1.080   .     S
H1161  O1178   1.012   .     S
H1162  O1180   1.013   .     S
H1166  O1174   1.013   .     S
H1167  O1176   1.013   .     S
N1171  Zn1189  2.045   .     S
N1172  Zn1190  2.045   .     S
O1173  Zn1189  1.972   .     S
O1181  Zn1190  1.972   .     S
O1182  Zn1190  1.981   .     S
O1183  Zn1189  1.981   .     S
O1184  Zn1189  1.980   .     S
O1185  Zn1190  1.980   .     S
O1186  Zn1190  1.980   .     S
O1187  Zn1189  1.980   .     S
C1191  C1194   1.405   .     S
C1191  O1252   1.294   .     A
C1191  O1243   1.292   .     A
C1192  C1194   1.394   .     A
C1192  H1235   1.082   .     S
C1193  C1221   1.392   .     A
C1193  C1222   1.391   .     A
C1193  C1202   1.400   .     S
C1194  C1220   1.392   .     A
C1195  N1242   1.374   .     A
C1195  C1201   1.477   .     S
C1196  N1241   1.374   .     A
C1196  C1208   1.479   .     S
C1196  C1828   1.431   .     S
C1197  C1215   1.468   .     S
C1197  N1241   1.373   .     A
C1197  C1825   1.432   .     S
C1198  C1216   1.465   .     S
C1198  N1242   1.373   .     A
C1199  O1244   1.397   .     S
C1199  C1078   1.507   1_655 S
C1199  O1118   1.220   1_655 S
C1200  O1245   1.221   .     D
C1200  O1246   1.397   .     S
C1201  C1203   1.403   .     A
C1201  C1207   1.405   .     A
C1202  O1253   1.293   .     A
C1202  O1251   1.291   .     A
C1203  H1238   1.083   .     S
C1203  C1204   1.397   .     A
C1204  C1205   1.398   .     A
C1204  H1099   1.081   1_655 S
C1205  C1206   1.397   .     A
C1205  H1240   1.083   .     S
C1206  C1207   1.398   .     A
C1206  H1224   1.082   .     S
C1207  H1225   1.083   .     S
C1208  C1214   1.401   .     A
C1208  C1209   1.406   .     A
C1209  C1210   1.400   .     A
C1209  H1226   1.083   .     S
C1210  C1211   1.398   .     A
C1211  C1212   1.396   .     A
C1211  H1228   1.082   .     S
C1212  C1214   1.396   .     A
C1213  C1218   1.418   .     S
C1213  O1256   1.303   .     A
C1213  O1254   1.281   .     A
C1214  H1230   1.080   .     S
C1215  O1248   1.398   .     S
C1215  O1247   1.217   .     D
C1216  O1249   1.220   .     D
C1216  O1250   1.397   .     S
C1217  C1219   1.406   .     S
C1217  O1255   1.285   .     A
C1217  O1257   1.298   .     A
C1219  C1078   1.355   1_655 S
C1219  C1060   1.494   1_655 S
C1220  H1223   1.078   .     S
C1221  H1233   1.083   .     S
C1221  C772    1.374   1_565 S
C1222  H1234   1.083   .     S
C1222  C800    1.370   1_565 S
H1227  C790    1.082   1_565 S
H1229  C1072   1.080   1_655 S
H1231  O1248   1.012   .     S
H1232  O1250   1.013   .     S
H1236  O1244   1.013   .     S
H1237  O1246   1.013   .     S
N1241  Zn1259  2.045   .     S
N1242  Zn1260  2.045   .     S
O1243  Zn1259  1.972   .     S
O1251  Zn1260  1.972   .     S
O1252  Zn1260  1.981   .     S
O1253  Zn1259  1.981   .     S
O1254  Zn1259  1.980   .     S
O1255  Zn1260  1.980   .     S
O1256  Zn1260  1.980   .     S
O1257  Zn1259  1.980   .     S
C1261  C1264   1.405   .     S
C1261  O1322   1.294   .     A
C1261  O1313   1.292   .     A
C1262  C1264   1.394   .     A
C1262  H1305   1.082   .     S
C1262  C1711   1.374   1_545 S
C1263  C1291   1.392   .     A
C1263  C1292   1.391   .     A
C1263  C1272   1.400   .     S
C1264  C1290   1.392   .     A
C1265  N1312   1.374   .     A
C1265  C1271   1.477   .     S
C1266  N1311   1.374   .     A
C1266  C1278   1.479   .     S
C1266  C8      1.431   1_556 S
C1267  C1285   1.468   .     S
C1267  N1311   1.373   .     A
C1267  C5      1.432   1_556 S
C1268  C1286   1.465   .     S
C1268  N1312   1.373   .     A
C1269  O1314   1.397   .     S
C1269  C1358   1.507   .     S
C1269  O1398   1.220   .     S
C1270  O1315   1.221   .     D
C1270  O1316   1.397   .     S
C1270  C1429   1.494   1_455 S
C1271  C1273   1.403   .     A
C1271  C1277   1.405   .     A
C1272  O1323   1.293   .     A
C1272  O1321   1.291   .     A
C1273  H1308   1.083   .     S
C1273  C1274   1.397   .     A
C1274  C1275   1.398   .     A
C1274  H1379   1.081   .     S
C1275  C1276   1.397   .     A
C1275  H1310   1.083   .     S
C1276  C1277   1.398   .     A
C1276  H1294   1.082   .     S
C1277  H1295   1.083   .     S
C1278  C1284   1.401   .     A
C1278  C1279   1.406   .     A
C1279  C1280   1.400   .     A
C1279  H1296   1.083   .     S
C1280  C1281   1.398   .     A
C1280  H1717   1.082   1_545 S
C1281  C1282   1.396   .     A
C1281  H1298   1.082   .     S
C1282  C1284   1.396   .     A
C1282  H1439   1.080   1_455 S
C1283  C1288   1.418   .     S
C1283  O1326   1.303   .     A
C1283  O1324   1.281   .     A
C1284  H1300   1.080   .     S
C1285  O1318   1.398   .     S
C1285  O1317   1.217   .     D
C1286  O1319   1.220   .     D
C1286  O1320   1.397   .     S
C1287  C1289   1.406   .     S
C1287  O1325   1.285   .     A
C1287  O1327   1.298   .     A
C1288  C1409   1.507   1_455 S
C1288  C1429   1.355   1_455 S
C1289  C1358   1.355   .     S
C1289  C1340   1.494   .     S
C1290  H1293   1.078   .     S
C1290  C1712   1.370   1_545 S
C1291  H1303   1.083   .     S
C1291  C1472   1.374   .     S
C1292  H1304   1.083   .     S
C1292  C1500   1.370   .     S
H1297  C1490   1.082   .     S
H1299  C1352   1.080   .     S
H1301  O1318   1.012   .     S
H1302  O1320   1.013   .     S
H1306  O1314   1.013   .     S
H1307  O1316   1.013   .     S
H1309  C1414   1.081   1_455 S
N1311  Zn1329  2.045   .     S
N1312  Zn1330  2.045   .     S
O1313  Zn1329  1.972   .     S
O1321  Zn1330  1.972   .     S
O1322  Zn1330  1.981   .     S
O1323  Zn1329  1.981   .     S
O1324  Zn1329  1.980   .     S
O1325  Zn1330  1.980   .     S
O1326  Zn1330  1.980   .     S
O1327  Zn1329  1.980   .     S
O1328  C1409   1.220   1_455 S
C1331  C1334   1.405   .     S
C1331  O1392   1.294   .     A
C1331  O1383   1.292   .     A
C1332  C1334   1.394   .     A
C1332  H1375   1.082   .     S
C1332  C1781   1.374   1_545 S
C1333  C1361   1.392   .     A
C1333  C1362   1.391   .     A
C1333  C1342   1.400   .     S
C1334  C1360   1.392   .     A
C1335  N1382   1.374   .     A
C1335  C1341   1.477   .     S
C1336  N1381   1.374   .     A
C1336  C1348   1.479   .     S
C1336  C78     1.431   1_556 S
C1337  C1355   1.468   .     S
C1337  N1381   1.373   .     A
C1337  C75     1.432   1_556 S
C1338  C1356   1.465   .     S
C1338  N1382   1.373   .     A
C1339  O1384   1.397   .     S
C1339  C1428   1.507   .     S
C1339  O1468   1.220   .     S
C1340  O1385   1.221   .     D
C1340  O1386   1.397   .     S
C1341  C1343   1.403   .     A
C1341  C1347   1.405   .     A
C1342  O1393   1.293   .     A
C1342  O1391   1.291   .     A
C1343  H1378   1.083   .     S
C1343  C1344   1.397   .     A
C1344  C1345   1.398   .     A
C1344  H1449   1.081   .     S
C1345  C1346   1.397   .     A
C1345  H1380   1.083   .     S
C1346  C1347   1.398   .     A
C1346  H1364   1.082   .     S
C1347  H1365   1.083   .     S
C1348  C1354   1.401   .     A
C1348  C1349   1.406   .     A
C1349  C1350   1.400   .     A
C1349  H1366   1.083   .     S
C1350  C1351   1.398   .     A
C1350  H1787   1.082   1_545 S
C1351  C1352   1.396   .     A
C1351  H1368   1.082   .     S
C1352  C1354   1.396   .     A
C1353  C1358   1.418   .     S
C1353  O1396   1.303   .     A
C1353  O1394   1.281   .     A
C1354  H1370   1.080   .     S
C1355  O1388   1.398   .     S
C1355  O1387   1.217   .     D
C1356  O1389   1.220   .     D
C1356  O1390   1.397   .     S
C1357  C1359   1.406   .     S
C1357  O1395   1.285   .     A
C1357  O1397   1.298   .     A
C1359  C1428   1.355   .     S
C1359  C1410   1.494   .     S
C1360  H1363   1.078   .     S
C1360  C1782   1.370   1_545 S
C1361  H1373   1.083   .     S
C1361  C1542   1.374   .     S
C1362  H1374   1.083   .     S
C1362  C1570   1.370   .     S
H1367  C1560   1.082   .     S
H1369  C1422   1.080   .     S
H1371  O1388   1.012   .     S
H1372  O1390   1.013   .     S
H1376  O1384   1.013   .     S
H1377  O1386   1.013   .     S
N1381  Zn1399  2.045   .     S
N1382  Zn1400  2.045   .     S
O1383  Zn1399  1.972   .     S
O1391  Zn1400  1.972   .     S
O1392  Zn1400  1.981   .     S
O1393  Zn1399  1.981   .     S
O1394  Zn1399  1.980   .     S
O1395  Zn1400  1.980   .     S
O1396  Zn1400  1.980   .     S
O1397  Zn1399  1.980   .     S
C1401  C1404   1.405   .     S
C1401  O1462   1.294   .     A
C1401  O1453   1.292   .     A
C1402  C1404   1.394   .     A
C1402  H1445   1.082   .     S
C1402  C1851   1.374   1_545 S
C1403  C1431   1.392   .     A
C1403  C1432   1.391   .     A
C1403  C1412   1.400   .     S
C1404  C1430   1.392   .     A
C1405  N1452   1.374   .     A
C1405  C1411   1.477   .     S
C1406  N1451   1.374   .     A
C1406  C1418   1.479   .     S
C1406  C148    1.431   1_556 S
C1407  C1425   1.468   .     S
C1407  N1451   1.373   .     A
C1407  C145    1.432   1_556 S
C1408  C1426   1.465   .     S
C1408  N1452   1.373   .     A
C1409  O1454   1.397   .     S
C1409  C1288   1.507   1_655 S
C1409  O1328   1.220   1_655 S
C1410  O1455   1.221   .     D
C1410  O1456   1.397   .     S
C1411  C1413   1.403   .     A
C1411  C1417   1.405   .     A
C1412  O1463   1.293   .     A
C1412  O1461   1.291   .     A
C1413  H1448   1.083   .     S
C1413  C1414   1.397   .     A
C1414  C1415   1.398   .     A
C1414  H1309   1.081   1_655 S
C1415  C1416   1.397   .     A
C1415  H1450   1.083   .     S
C1416  C1417   1.398   .     A
C1416  H1434   1.082   .     S
C1417  H1435   1.083   .     S
C1418  C1424   1.401   .     A
C1418  C1419   1.406   .     A
C1419  C1420   1.400   .     A
C1419  H1436   1.083   .     S
C1420  C1421   1.398   .     A
C1420  H1857   1.082   1_545 S
C1421  C1422   1.396   .     A
C1421  H1438   1.082   .     S
C1422  C1424   1.396   .     A
C1423  C1428   1.418   .     S
C1423  O1466   1.303   .     A
C1423  O1464   1.281   .     A
C1424  H1440   1.080   .     S
C1425  O1458   1.398   .     S
C1425  O1457   1.217   .     D
C1426  O1459   1.220   .     D
C1426  O1460   1.397   .     S
C1427  C1429   1.406   .     S
C1427  O1465   1.285   .     A
C1427  O1467   1.298   .     A
C1429  C1288   1.355   1_655 S
C1429  C1270   1.494   1_655 S
C1430  H1433   1.078   .     S
C1430  C1852   1.370   1_545 S
C1431  H1443   1.083   .     S
C1431  C1612   1.374   .     S
C1432  H1444   1.083   .     S
C1432  C1640   1.370   .     S
H1437  C1630   1.082   .     S
H1439  C1282   1.080   1_655 S
H1441  O1458   1.012   .     S
H1442  O1460   1.013   .     S
H1446  O1454   1.013   .     S
H1447  O1456   1.013   .     S
N1451  Zn1469  2.045   .     S
N1452  Zn1470  2.045   .     S
O1453  Zn1469  1.972   .     S
O1461  Zn1470  1.972   .     S
O1462  Zn1470  1.981   .     S
O1463  Zn1469  1.981   .     S
O1464  Zn1469  1.980   .     S
O1465  Zn1470  1.980   .     S
O1466  Zn1470  1.980   .     S
O1467  Zn1469  1.980   .     S
C1471  C1474   1.405   .     S
C1471  O1532   1.294   .     A
C1471  O1523   1.292   .     A
C1472  C1474   1.394   .     A
C1472  H1515   1.082   .     S
C1473  C1501   1.392   .     A
C1473  C1502   1.391   .     A
C1473  C1482   1.400   .     S
C1474  C1500   1.392   .     A
C1475  N1522   1.374   .     A
C1475  C1481   1.477   .     S
C1476  N1521   1.374   .     A
C1476  C1488   1.479   .     S
C1476  C218    1.431   1_556 S
C1477  C1495   1.468   .     S
C1477  N1521   1.373   .     A
C1477  C215    1.432   1_556 S
C1478  C1496   1.465   .     S
C1478  N1522   1.373   .     A
C1479  O1524   1.397   .     S
C1479  C1568   1.507   .     S
C1479  O1608   1.220   .     S
C1480  O1525   1.221   .     D
C1480  O1526   1.397   .     S
C1480  C1639   1.494   1_455 S
C1481  C1483   1.403   .     A
C1481  C1487   1.405   .     A
C1482  O1533   1.293   .     A
C1482  O1531   1.291   .     A
C1483  H1518   1.083   .     S
C1483  C1484   1.397   .     A
C1484  C1485   1.398   .     A
C1484  H1589   1.081   .     S
C1485  C1486   1.397   .     A
C1485  H1520   1.083   .     S
C1486  C1487   1.398   .     A
C1486  H1504   1.082   .     S
C1487  H1505   1.083   .     S
C1488  C1494   1.401   .     A
C1488  C1489   1.406   .     A
C1489  C1490   1.400   .     A
C1489  H1506   1.083   .     S
C1490  C1491   1.398   .     A
C1491  C1492   1.396   .     A
C1491  H1508   1.082   .     S
C1492  C1494   1.396   .     A
C1492  H1649   1.080   1_455 S
C1493  C1498   1.418   .     S
C1493  O1536   1.303   .     A
C1493  O1534   1.281   .     A
C1494  H1510   1.080   .     S
C1495  O1528   1.398   .     S
C1495  O1527   1.217   .     D
C1496  O1529   1.220   .     D
C1496  O1530   1.397   .     S
C1497  C1499   1.406   .     S
C1497  O1535   1.285   .     A
C1497  O1537   1.298   .     A
C1498  C1619   1.507   1_455 S
C1498  C1639   1.355   1_455 S
C1499  C1568   1.355   .     S
C1499  C1550   1.494   .     S
C1500  H1503   1.078   .     S
C1501  H1513   1.083   .     S
C1501  C1682   1.374   .     S
C1502  H1514   1.083   .     S
C1502  C1710   1.370   .     S
H1507  C1700   1.082   .     S
H1509  C1562   1.080   .     S
H1511  O1528   1.012   .     S
H1512  O1530   1.013   .     S
H1516  O1524   1.013   .     S
H1517  O1526   1.013   .     S
H1519  C1624   1.081   1_455 S
N1521  Zn1539  2.045   .     S
N1522  Zn1540  2.045   .     S
O1523  Zn1539  1.972   .     S
O1531  Zn1540  1.972   .     S
O1532  Zn1540  1.981   .     S
O1533  Zn1539  1.981   .     S
O1534  Zn1539  1.980   .     S
O1535  Zn1540  1.980   .     S
O1536  Zn1540  1.980   .     S
O1537  Zn1539  1.980   .     S
O1538  C1619   1.220   1_455 S
C1541  C1544   1.405   .     S
C1541  O1602   1.294   .     A
C1541  O1593   1.292   .     A
C1542  C1544   1.394   .     A
C1542  H1585   1.082   .     S
C1543  C1571   1.392   .     A
C1543  C1572   1.391   .     A
C1543  C1552   1.400   .     S
C1544  C1570   1.392   .     A
C1545  N1592   1.374   .     A
C1545  C1551   1.477   .     S
C1546  N1591   1.374   .     A
C1546  C1558   1.479   .     S
C1546  C288    1.431   1_556 S
C1547  C1565   1.468   .     S
C1547  N1591   1.373   .     A
C1547  C285    1.432   1_556 S
C1548  C1566   1.465   .     S
C1548  N1592   1.373   .     A
C1549  O1594   1.397   .     S
C1549  C1638   1.507   .     S
C1549  O1678   1.220   .     S
C1550  O1595   1.221   .     D
C1550  O1596   1.397   .     S
C1551  C1553   1.403   .     A
C1551  C1557   1.405   .     A
C1552  O1603   1.293   .     A
C1552  O1601   1.291   .     A
C1553  H1588   1.083   .     S
C1553  C1554   1.397   .     A
C1554  C1555   1.398   .     A
C1554  H1659   1.081   .     S
C1555  C1556   1.397   .     A
C1555  H1590   1.083   .     S
C1556  C1557   1.398   .     A
C1556  H1574   1.082   .     S
C1557  H1575   1.083   .     S
C1558  C1564   1.401   .     A
C1558  C1559   1.406   .     A
C1559  C1560   1.400   .     A
C1559  H1576   1.083   .     S
C1560  C1561   1.398   .     A
C1561  C1562   1.396   .     A
C1561  H1578   1.082   .     S
C1562  C1564   1.396   .     A
C1563  C1568   1.418   .     S
C1563  O1606   1.303   .     A
C1563  O1604   1.281   .     A
C1564  H1580   1.080   .     S
C1565  O1598   1.398   .     S
C1565  O1597   1.217   .     D
C1566  O1599   1.220   .     D
C1566  O1600   1.397   .     S
C1567  C1569   1.406   .     S
C1567  O1605   1.285   .     A
C1567  O1607   1.298   .     A
C1569  C1638   1.355   .     S
C1569  C1620   1.494   .     S
C1570  H1573   1.078   .     S
C1571  H1583   1.083   .     S
C1571  C1752   1.374   .     S
C1572  H1584   1.083   .     S
C1572  C1780   1.370   .     S
H1577  C1770   1.082   .     S
H1579  C1632   1.080   .     S
H1581  O1598   1.012   .     S
H1582  O1600   1.013   .     S
H1586  O1594   1.013   .     S
H1587  O1596   1.013   .     S
N1591  Zn1609  2.045   .     S
N1592  Zn1610  2.045   .     S
O1593  Zn1609  1.972   .     S
O1601  Zn1610  1.972   .     S
O1602  Zn1610  1.981   .     S
O1603  Zn1609  1.981   .     S
O1604  Zn1609  1.980   .     S
O1605  Zn1610  1.980   .     S
O1606  Zn1610  1.980   .     S
O1607  Zn1609  1.980   .     S
C1611  C1614   1.405   .     S
C1611  O1672   1.294   .     A
C1611  O1663   1.292   .     A
C1612  C1614   1.394   .     A
C1612  H1655   1.082   .     S
C1613  C1641   1.392   .     A
C1613  C1642   1.391   .     A
C1613  C1622   1.400   .     S
C1614  C1640   1.392   .     A
C1615  N1662   1.374   .     A
C1615  C1621   1.477   .     S
C1616  N1661   1.374   .     A
C1616  C1628   1.479   .     S
C1616  C358    1.431   1_556 S
C1617  C1635   1.468   .     S
C1617  N1661   1.373   .     A
C1617  C355    1.432   1_556 S
C1618  C1636   1.465   .     S
C1618  N1662   1.373   .     A
C1619  O1664   1.397   .     S
C1619  C1498   1.507   1_655 S
C1619  O1538   1.220   1_655 S
C1620  O1665   1.221   .     D
C1620  O1666   1.397   .     S
C1621  C1623   1.403   .     A
C1621  C1627   1.405   .     A
C1622  O1673   1.293   .     A
C1622  O1671   1.291   .     A
C1623  H1658   1.083   .     S
C1623  C1624   1.397   .     A
C1624  C1625   1.398   .     A
C1624  H1519   1.081   1_655 S
C1625  C1626   1.397   .     A
C1625  H1660   1.083   .     S
C1626  C1627   1.398   .     A
C1626  H1644   1.082   .     S
C1627  H1645   1.083   .     S
C1628  C1634   1.401   .     A
C1628  C1629   1.406   .     A
C1629  C1630   1.400   .     A
C1629  H1646   1.083   .     S
C1630  C1631   1.398   .     A
C1631  C1632   1.396   .     A
C1631  H1648   1.082   .     S
C1632  C1634   1.396   .     A
C1633  C1638   1.418   .     S
C1633  O1676   1.303   .     A
C1633  O1674   1.281   .     A
C1634  H1650   1.080   .     S
C1635  O1668   1.398   .     S
C1635  O1667   1.217   .     D
C1636  O1669   1.220   .     D
C1636  O1670   1.397   .     S
C1637  C1639   1.406   .     S
C1637  O1675   1.285   .     A
C1637  O1677   1.298   .     A
C1639  C1498   1.355   1_655 S
C1639  C1480   1.494   1_655 S
C1640  H1643   1.078   .     S
C1641  H1653   1.083   .     S
C1641  C1822   1.374   .     S
C1642  H1654   1.083   .     S
C1642  C1850   1.370   .     S
H1647  C1840   1.082   .     S
H1649  C1492   1.080   1_655 S
H1651  O1668   1.012   .     S
H1652  O1670   1.013   .     S
H1656  O1664   1.013   .     S
H1657  O1666   1.013   .     S
N1661  Zn1679  2.045   .     S
N1662  Zn1680  2.045   .     S
O1663  Zn1679  1.972   .     S
O1671  Zn1680  1.972   .     S
O1672  Zn1680  1.981   .     S
O1673  Zn1679  1.981   .     S
O1674  Zn1679  1.980   .     S
O1675  Zn1680  1.980   .     S
O1676  Zn1680  1.980   .     S
O1677  Zn1679  1.980   .     S
C1681  C1684   1.405   .     S
C1681  O1742   1.294   .     A
C1681  O1733   1.292   .     A
C1682  C1684   1.394   .     A
C1682  H1725   1.082   .     S
C1683  C1711   1.392   .     A
C1683  C1712   1.391   .     A
C1683  C1692   1.400   .     S
C1684  C1710   1.392   .     A
C1685  N1732   1.374   .     A
C1685  C1691   1.477   .     S
C1686  N1731   1.374   .     A
C1686  C1698   1.479   .     S
C1686  C428    1.431   1_556 S
C1687  C1705   1.468   .     S
C1687  N1731   1.373   .     A
C1687  C425    1.432   1_556 S
C1688  C1706   1.465   .     S
C1688  N1732   1.373   .     A
C1689  O1734   1.397   .     S
C1689  C1778   1.507   .     S
C1689  O1818   1.220   .     S
C1690  O1735   1.221   .     D
C1690  O1736   1.397   .     S
C1690  C1849   1.494   1_455 S
C1691  C1693   1.403   .     A
C1691  C1697   1.405   .     A
C1692  O1743   1.293   .     A
C1692  O1741   1.291   .     A
C1693  H1728   1.083   .     S
C1693  C1694   1.397   .     A
C1694  C1695   1.398   .     A
C1694  H1799   1.081   .     S
C1695  C1696   1.397   .     A
C1695  H1730   1.083   .     S
C1696  C1697   1.398   .     A
C1696  H1714   1.082   .     S
C1697  H1715   1.083   .     S
C1698  C1704   1.401   .     A
C1698  C1699   1.406   .     A
C1699  C1700   1.400   .     A
C1699  H1716   1.083   .     S
C1700  C1701   1.398   .     A
C1701  C1702   1.396   .     A
C1701  H1718   1.082   .     S
C1702  C1704   1.396   .     A
C1702  H1859   1.080   1_455 S
C1703  C1708   1.418   .     S
C1703  O1746   1.303   .     A
C1703  O1744   1.281   .     A
C1704  H1720   1.080   .     S
C1705  O1738   1.398   .     S
C1705  O1737   1.217   .     D
C1706  O1739   1.220   .     D
C1706  O1740   1.397   .     S
C1707  C1709   1.406   .     S
C1707  O1745   1.285   .     A
C1707  O1747   1.298   .     A
C1708  C1829   1.507   1_455 S
C1708  C1849   1.355   1_455 S
C1709  C1778   1.355   .     S
C1709  C1760   1.494   .     S
C1710  H1713   1.078   .     S
C1711  H1723   1.083   .     S
C1711  C1262   1.374   1_565 S
C1712  H1724   1.083   .     S
C1712  C1290   1.370   1_565 S
H1717  C1280   1.082   1_565 S
H1719  C1772   1.080   .     S
H1721  O1738   1.012   .     S
H1722  O1740   1.013   .     S
H1726  O1734   1.013   .     S
H1727  O1736   1.013   .     S
H1729  C1834   1.081   1_455 S
N1731  Zn1749  2.045   .     S
N1732  Zn1750  2.045   .     S
O1733  Zn1749  1.972   .     S
O1741  Zn1750  1.972   .     S
O1742  Zn1750  1.981   .     S
O1743  Zn1749  1.981   .     S
O1744  Zn1749  1.980   .     S
O1745  Zn1750  1.980   .     S
O1746  Zn1750  1.980   .     S
O1747  Zn1749  1.980   .     S
O1748  C1829   1.220   1_455 S
C1751  C1754   1.405   .     S
C1751  O1812   1.294   .     A
C1751  O1803   1.292   .     A
C1752  C1754   1.394   .     A
C1752  H1795   1.082   .     S
C1753  C1781   1.392   .     A
C1753  C1782   1.391   .     A
C1753  C1762   1.400   .     S
C1754  C1780   1.392   .     A
C1755  N1802   1.374   .     A
C1755  C1761   1.477   .     S
C1756  N1801   1.374   .     A
C1756  C1768   1.479   .     S
C1756  C498    1.431   1_556 S
C1757  C1775   1.468   .     S
C1757  N1801   1.373   .     A
C1757  C495    1.432   1_556 S
C1758  C1776   1.465   .     S
C1758  N1802   1.373   .     A
C1759  O1804   1.397   .     S
C1759  C1848   1.507   .     S
C1759  O1888   1.220   .     S
C1760  O1805   1.221   .     D
C1760  O1806   1.397   .     S
C1761  C1763   1.403   .     A
C1761  C1767   1.405   .     A
C1762  O1813   1.293   .     A
C1762  O1811   1.291   .     A
C1763  H1798   1.083   .     S
C1763  C1764   1.397   .     A
C1764  C1765   1.398   .     A
C1764  H1869   1.081   .     S
C1765  C1766   1.397   .     A
C1765  H1800   1.083   .     S
C1766  C1767   1.398   .     A
C1766  H1784   1.082   .     S
C1767  H1785   1.083   .     S
C1768  C1774   1.401   .     A
C1768  C1769   1.406   .     A
C1769  C1770   1.400   .     A
C1769  H1786   1.083   .     S
C1770  C1771   1.398   .     A
C1771  C1772   1.396   .     A
C1771  H1788   1.082   .     S
C1772  C1774   1.396   .     A
C1773  C1778   1.418   .     S
C1773  O1816   1.303   .     A
C1773  O1814   1.281   .     A
C1774  H1790   1.080   .     S
C1775  O1808   1.398   .     S
C1775  O1807   1.217   .     D
C1776  O1809   1.220   .     D
C1776  O1810   1.397   .     S
C1777  C1779   1.406   .     S
C1777  O1815   1.285   .     A
C1777  O1817   1.298   .     A
C1779  C1848   1.355   .     S
C1779  C1830   1.494   .     S
C1780  H1783   1.078   .     S
C1781  H1793   1.083   .     S
C1781  C1332   1.374   1_565 S
C1782  H1794   1.083   .     S
C1782  C1360   1.370   1_565 S
H1787  C1350   1.082   1_565 S
H1789  C1842   1.080   .     S
H1791  O1808   1.012   .     S
H1792  O1810   1.013   .     S
H1796  O1804   1.013   .     S
H1797  O1806   1.013   .     S
N1801  Zn1819  2.045   .     S
N1802  Zn1820  2.045   .     S
O1803  Zn1819  1.972   .     S
O1811  Zn1820  1.972   .     S
O1812  Zn1820  1.981   .     S
O1813  Zn1819  1.981   .     S
O1814  Zn1819  1.980   .     S
O1815  Zn1820  1.980   .     S
O1816  Zn1820  1.980   .     S
O1817  Zn1819  1.980   .     S
C1821  C1824   1.405   .     S
C1821  O1882   1.294   .     A
C1821  O1873   1.292   .     A
C1822  C1824   1.394   .     A
C1822  H1865   1.082   .     S
C1823  C1851   1.392   .     A
C1823  C1852   1.391   .     A
C1823  C1832   1.400   .     S
C1824  C1850   1.392   .     A
C1825  N1872   1.374   .     A
C1825  C1831   1.477   .     S
C1826  N1871   1.374   .     A
C1826  C1838   1.479   .     S
C1826  C568    1.431   1_556 S
C1827  C1845   1.468   .     S
C1827  N1871   1.373   .     A
C1827  C565    1.432   1_556 S
C1828  C1846   1.465   .     S
C1828  N1872   1.373   .     A
C1829  O1874   1.397   .     S
C1829  C1708   1.507   1_655 S
C1829  O1748   1.220   1_655 S
C1830  O1875   1.221   .     D
C1830  O1876   1.397   .     S
C1831  C1833   1.403   .     A
C1831  C1837   1.405   .     A
C1832  O1883   1.293   .     A
C1832  O1881   1.291   .     A
C1833  H1868   1.083   .     S
C1833  C1834   1.397   .     A
C1834  C1835   1.398   .     A
C1834  H1729   1.081   1_655 S
C1835  C1836   1.397   .     A
C1835  H1870   1.083   .     S
C1836  C1837   1.398   .     A
C1836  H1854   1.082   .     S
C1837  H1855   1.083   .     S
C1838  C1844   1.401   .     A
C1838  C1839   1.406   .     A
C1839  C1840   1.400   .     A
C1839  H1856   1.083   .     S
C1840  C1841   1.398   .     A
C1841  C1842   1.396   .     A
C1841  H1858   1.082   .     S
C1842  C1844   1.396   .     A
C1843  C1848   1.418   .     S
C1843  O1886   1.303   .     A
C1843  O1884   1.281   .     A
C1844  H1860   1.080   .     S
C1845  O1878   1.398   .     S
C1845  O1877   1.217   .     D
C1846  O1879   1.220   .     D
C1846  O1880   1.397   .     S
C1847  C1849   1.406   .     S
C1847  O1885   1.285   .     A
C1847  O1887   1.298   .     A
C1849  C1708   1.355   1_655 S
C1849  C1690   1.494   1_655 S
C1850  H1853   1.078   .     S
C1851  H1863   1.083   .     S
C1851  C1402   1.374   1_565 S
C1852  H1864   1.083   .     S
C1852  C1430   1.370   1_565 S
H1857  C1420   1.082   1_565 S
H1859  C1702   1.080   1_655 S
H1861  O1878   1.012   .     S
H1862  O1880   1.013   .     S
H1866  O1874   1.013   .     S
H1867  O1876   1.013   .     S
N1871  Zn1889  2.045   .     S
N1872  Zn1890  2.045   .     S
O1873  Zn1889  1.972   .     S
O1881  Zn1890  1.972   .     S
O1882  Zn1890  1.981   .     S
O1883  Zn1889  1.981   .     S
O1884  Zn1889  1.980   .     S
O1885  Zn1890  1.980   .     S
O1886  Zn1890  1.980   .     S
O1887  Zn1889  1.980   .     S
