data_str_m3_o1_o18_pcu_sym.178
_audit_creation_date              2020-01-03
_audit_creation_method            'Materials Studio'
_symmetry_space_group_name_H-M    'P1'
_symmetry_Int_Tables_number       1
_symmetry_cell_setting            triclinic
loop_
_symmetry_equiv_pos_as_xyz
  x,y,z
_cell_length_a                    29.6326
_cell_length_b                    32.0803
_cell_length_c                    31.1642
_cell_angle_alpha                 90.0046
_cell_angle_beta                  67.7888
_cell_angle_gamma                 90.6903
loop_
_atom_site_label
_atom_site_type_symbol
_atom_site_fract_x
_atom_site_fract_y
_atom_site_fract_z
_atom_site_U_iso_or_equiv
_atom_site_adp_type
_atom_site_occupancy
C1     C     0.16676   0.24657   0.24993   0.00000  Uiso   1.00
C2     C     0.16657   0.08676   0.25007   0.00000  Uiso   1.00
C3     C     0.11222   0.14953   0.05032   0.00000  Uiso   1.00
C4     C     0.22112   0.18380   0.44968   0.00000  Uiso   1.00
C5     C     0.08030   0.13759   0.02945   0.00000  Uiso   1.00
C6     C     0.25304   0.19575   0.47055   0.00000  Uiso   1.00
C7     C     0.19454   0.31214   0.20931   0.00000  Uiso   1.00
C8     C     0.13880   0.02119   0.29069   0.00000  Uiso   1.00
C9     C     0.19620   0.02194   0.20983   0.00000  Uiso   1.00
C10    C     0.13714   0.31139   0.29017   0.00000  Uiso   1.00
C11    C     0.16692   0.04262   0.25011   0.00000  Uiso   1.00
C12    C     0.16641   0.29071   0.24989   0.00000  Uiso   1.00
C13    C     0.32063   0.14125   0.22086   0.00000  Uiso   1.00
C14    C     0.01270   0.19208   0.27914   0.00000  Uiso   1.00
C15    C     0.03513   0.14121   0.22094   0.00000  Uiso   1.00
C16    C     0.29820   0.19212   0.27906   0.00000  Uiso   1.00
C17    C     0.13589   0.16683   0.33798   0.00000  Uiso   1.00
C18    C     0.19745   0.16651   0.16202   0.00000  Uiso   1.00
C19    C     0.11565   0.16516   0.38871   0.00000  Uiso   1.00
C20    C     0.21768   0.16817   0.11129   0.00000  Uiso   1.00
C21    C     0.05919   0.13649   0.46112   0.00000  Uiso   1.00
C22    C     0.27414   0.19684   0.03888   0.00000  Uiso   1.00
C23    C     0.07123   0.14443   0.41423   0.00000  Uiso   1.00
C24    C     0.26211   0.18890   0.08577   0.00000  Uiso   1.00
C25    C     0.14410   0.18158   0.41183   0.00000  Uiso   1.00
C26    C     0.18923   0.15175   0.08817   0.00000  Uiso   1.00
C27    C     0.13696   0.16676   0.45653   0.00000  Uiso   1.00
C28    C     0.19637   0.16658   0.04348   0.00000  Uiso   1.00
C29    C     0.09210   0.14624   0.48238   0.00000  Uiso   1.00
C30    C     0.24123   0.18710   0.01762   0.00000  Uiso   1.00
C31    C     0.17284   0.17141   0.47627   0.00000  Uiso   1.00
C32    C     0.16050   0.16192   0.02373   0.00000  Uiso   1.00
H33    H     0.02435   0.12173   0.48027   0.00000  Uiso   1.00
H34    H     0.30899   0.21160   0.01973   0.00000  Uiso   1.00
H35    H     0.09858   0.14836   0.08762   0.00000  Uiso   1.00
H36    H     0.23475   0.18497   0.41238   0.00000  Uiso   1.00
H37    H     0.31160   0.12093   0.19749   0.00000  Uiso   1.00
H38    H     0.02174   0.21240   0.30251   0.00000  Uiso   1.00
H39    H     0.06208   0.12073   0.19775   0.00000  Uiso   1.00
H40    H     0.27126   0.21261   0.30225   0.00000  Uiso   1.00
N41    N     0.04759   0.16668   0.25001   0.00000  Uiso   1.00
N42    N     0.28574   0.16666   0.24999   0.00000  Uiso   1.00
O43    O     0.12846   0.22775   0.25000   0.00000  Uiso   1.00
O44    O     0.20488   0.10558   0.25000   0.00000  Uiso   1.00
O45    O     0.20490   0.22774   0.25000   0.00000  Uiso   1.00
O46    O     0.12843   0.10559   0.25000   0.00000  Uiso   1.00
O47    O     0.10661   0.16667   0.31612   0.00000  Uiso   1.00
O48    O     0.22672   0.16666   0.18388   0.00000  Uiso   1.00
O49    O     0.18305   0.16666   0.31612   0.00000  Uiso   1.00
O50    O     0.15028   0.16667   0.18388   0.00000  Uiso   1.00
Zn51   Zn    0.11562   0.16667   0.25000   0.00000  Uiso   1.00
Zn52   Zn    0.21771   0.16666   0.25000   0.00000  Uiso   1.00
Br53   Br    0.02220   0.10788   0.06701   0.00000  Uiso   1.00
Br54   Br    0.31113   0.22545   0.43299   0.00000  Uiso   1.00
Br55   Br    0.15397   0.10001   0.11228   0.00000  Uiso   1.00
Br56   Br    0.17936   0.23332   0.38772   0.00000  Uiso   1.00
Br57   Br    0.30945   0.20593   0.11122   0.00000  Uiso   1.00
Br58   Br    0.02389   0.12740   0.38878   0.00000  Uiso   1.00
Br59   Br    0.22578   0.28283   0.15216   0.00000  Uiso   1.00
Br60   Br    0.10755   0.05050   0.34784   0.00000  Uiso   1.00
I61    I     0.24498   0.05532   0.15100   0.00000  Uiso   1.00
I62    I     0.08836   0.27802   0.34900   0.00000  Uiso   1.00
C63    C     0.50009   0.24657   0.24993   0.00000  Uiso   1.00
C64    C     0.49991   0.08676   0.25007   0.00000  Uiso   1.00
C65    C     0.44555   0.14953   0.05032   0.00000  Uiso   1.00
C66    C     0.55445   0.18380   0.44968   0.00000  Uiso   1.00
C67    C     0.41363   0.13759   0.02945   0.00000  Uiso   1.00
C68    C     0.58637   0.19575   0.47055   0.00000  Uiso   1.00
C69    C     0.52787   0.31214   0.20931   0.00000  Uiso   1.00
C70    C     0.47213   0.02119   0.29069   0.00000  Uiso   1.00
C71    C     0.52953   0.02194   0.20983   0.00000  Uiso   1.00
C72    C     0.47047   0.31139   0.29017   0.00000  Uiso   1.00
C73    C     0.50025   0.04262   0.25011   0.00000  Uiso   1.00
C74    C     0.49975   0.29071   0.24989   0.00000  Uiso   1.00
C75    C     0.65396   0.14125   0.22086   0.00000  Uiso   1.00
C76    C     0.34604   0.19208   0.27914   0.00000  Uiso   1.00
C77    C     0.36846   0.14121   0.22094   0.00000  Uiso   1.00
C78    C     0.63154   0.19212   0.27906   0.00000  Uiso   1.00
C79    C     0.46922   0.16683   0.33798   0.00000  Uiso   1.00
C80    C     0.53078   0.16651   0.16202   0.00000  Uiso   1.00
C81    C     0.44898   0.16516   0.38871   0.00000  Uiso   1.00
C82    C     0.55102   0.16817   0.11129   0.00000  Uiso   1.00
C83    C     0.39252   0.13649   0.46112   0.00000  Uiso   1.00
C84    C     0.60748   0.19684   0.03888   0.00000  Uiso   1.00
C85    C     0.40456   0.14443   0.41423   0.00000  Uiso   1.00
C86    C     0.59544   0.18890   0.08577   0.00000  Uiso   1.00
C87    C     0.47743   0.18158   0.41183   0.00000  Uiso   1.00
C88    C     0.52257   0.15175   0.08817   0.00000  Uiso   1.00
C89    C     0.47030   0.16676   0.45653   0.00000  Uiso   1.00
C90    C     0.52970   0.16658   0.04348   0.00000  Uiso   1.00
C91    C     0.42544   0.14624   0.48238   0.00000  Uiso   1.00
C92    C     0.57456   0.18710   0.01762   0.00000  Uiso   1.00
C93    C     0.50617   0.17141   0.47627   0.00000  Uiso   1.00
C94    C     0.49383   0.16192   0.02373   0.00000  Uiso   1.00
H95    H     0.35768   0.12173   0.48027   0.00000  Uiso   1.00
H96    H     0.64232   0.21160   0.01973   0.00000  Uiso   1.00
H97    H     0.43192   0.14836   0.08762   0.00000  Uiso   1.00
H98    H     0.56808   0.18497   0.41238   0.00000  Uiso   1.00
H99    H     0.64493   0.12093   0.19749   0.00000  Uiso   1.00
H100   H     0.35507   0.21240   0.30251   0.00000  Uiso   1.00
H101   H     0.39541   0.12073   0.19775   0.00000  Uiso   1.00
H102   H     0.60459   0.21261   0.30225   0.00000  Uiso   1.00
N103   N     0.38093   0.16668   0.25001   0.00000  Uiso   1.00
N104   N     0.61907   0.16666   0.24999   0.00000  Uiso   1.00
O105   O     0.46179   0.22775   0.25000   0.00000  Uiso   1.00
O106   O     0.53821   0.10558   0.25000   0.00000  Uiso   1.00
O107   O     0.53823   0.22774   0.25000   0.00000  Uiso   1.00
O108   O     0.46177   0.10559   0.25000   0.00000  Uiso   1.00
O109   O     0.43994   0.16667   0.31612   0.00000  Uiso   1.00
O110   O     0.56006   0.16666   0.18388   0.00000  Uiso   1.00
O111   O     0.51639   0.16666   0.31612   0.00000  Uiso   1.00
O112   O     0.48361   0.16667   0.18388   0.00000  Uiso   1.00
Zn113  Zn    0.44896   0.16667   0.25000   0.00000  Uiso   1.00
Zn114  Zn    0.55104   0.16666   0.25000   0.00000  Uiso   1.00
Br115  Br    0.35554   0.10788   0.06701   0.00000  Uiso   1.00
Br116  Br    0.64446   0.22545   0.43299   0.00000  Uiso   1.00
Br117  Br    0.48731   0.10001   0.11228   0.00000  Uiso   1.00
Br118  Br    0.51269   0.23332   0.38772   0.00000  Uiso   1.00
Br119  Br    0.64278   0.20593   0.11122   0.00000  Uiso   1.00
Br120  Br    0.35722   0.12740   0.38878   0.00000  Uiso   1.00
Br121  Br    0.55911   0.28283   0.15216   0.00000  Uiso   1.00
Br122  Br    0.44089   0.05050   0.34784   0.00000  Uiso   1.00
I123   I     0.57831   0.05532   0.15100   0.00000  Uiso   1.00
I124   I     0.42169   0.27802   0.34900   0.00000  Uiso   1.00
C125   C     0.83343   0.24657   0.24993   0.00000  Uiso   1.00
C126   C     0.83324   0.08676   0.25007   0.00000  Uiso   1.00
C127   C     0.77888   0.14953   0.05032   0.00000  Uiso   1.00
C128   C     0.88778   0.18380   0.44968   0.00000  Uiso   1.00
C129   C     0.74696   0.13759   0.02945   0.00000  Uiso   1.00
C130   C     0.91970   0.19575   0.47055   0.00000  Uiso   1.00
C131   C     0.86120   0.31214   0.20931   0.00000  Uiso   1.00
C132   C     0.80546   0.02119   0.29069   0.00000  Uiso   1.00
C133   C     0.86286   0.02194   0.20983   0.00000  Uiso   1.00
C134   C     0.80380   0.31139   0.29017   0.00000  Uiso   1.00
C135   C     0.83359   0.04262   0.25011   0.00000  Uiso   1.00
C136   C     0.83308   0.29071   0.24989   0.00000  Uiso   1.00
C137   C     0.98730   0.14125   0.22086   0.00000  Uiso   1.00
C138   C     0.67937   0.19208   0.27914   0.00000  Uiso   1.00
C139   C     0.70180   0.14121   0.22094   0.00000  Uiso   1.00
C140   C     0.96487   0.19212   0.27906   0.00000  Uiso   1.00
C141   C     0.80255   0.16683   0.33798   0.00000  Uiso   1.00
C142   C     0.86411   0.16651   0.16202   0.00000  Uiso   1.00
C143   C     0.78232   0.16516   0.38871   0.00000  Uiso   1.00
C144   C     0.88435   0.16817   0.11129   0.00000  Uiso   1.00
C145   C     0.72586   0.13649   0.46112   0.00000  Uiso   1.00
C146   C     0.94081   0.19684   0.03888   0.00000  Uiso   1.00
C147   C     0.73789   0.14443   0.41423   0.00000  Uiso   1.00
C148   C     0.92877   0.18890   0.08577   0.00000  Uiso   1.00
C149   C     0.81077   0.18158   0.41183   0.00000  Uiso   1.00
C150   C     0.85590   0.15175   0.08817   0.00000  Uiso   1.00
C151   C     0.80363   0.16676   0.45653   0.00000  Uiso   1.00
C152   C     0.86304   0.16658   0.04348   0.00000  Uiso   1.00
C153   C     0.75877   0.14624   0.48238   0.00000  Uiso   1.00
C154   C     0.90790   0.18710   0.01762   0.00000  Uiso   1.00
C155   C     0.83950   0.17141   0.47627   0.00000  Uiso   1.00
C156   C     0.82716   0.16192   0.02373   0.00000  Uiso   1.00
H157   H     0.69101   0.12173   0.48027   0.00000  Uiso   1.00
H158   H     0.97565   0.21160   0.01973   0.00000  Uiso   1.00
H159   H     0.76525   0.14836   0.08762   0.00000  Uiso   1.00
H160   H     0.90142   0.18497   0.41238   0.00000  Uiso   1.00
H161   H     0.97826   0.12093   0.19749   0.00000  Uiso   1.00
H162   H     0.68840   0.21240   0.30251   0.00000  Uiso   1.00
H163   H     0.72875   0.12073   0.19775   0.00000  Uiso   1.00
H164   H     0.93792   0.21261   0.30225   0.00000  Uiso   1.00
N165   N     0.71426   0.16668   0.25001   0.00000  Uiso   1.00
N166   N     0.95241   0.16666   0.24999   0.00000  Uiso   1.00
O167   O     0.79512   0.22775   0.25000   0.00000  Uiso   1.00
O168   O     0.87154   0.10558   0.25000   0.00000  Uiso   1.00
O169   O     0.87157   0.22774   0.25000   0.00000  Uiso   1.00
O170   O     0.79510   0.10559   0.25000   0.00000  Uiso   1.00
O171   O     0.77328   0.16667   0.31612   0.00000  Uiso   1.00
O172   O     0.89339   0.16666   0.18388   0.00000  Uiso   1.00
O173   O     0.84972   0.16666   0.31612   0.00000  Uiso   1.00
O174   O     0.81695   0.16667   0.18388   0.00000  Uiso   1.00
Zn175  Zn    0.78229   0.16667   0.25000   0.00000  Uiso   1.00
Zn176  Zn    0.88438   0.16666   0.25000   0.00000  Uiso   1.00
Br177  Br    0.68887   0.10788   0.06701   0.00000  Uiso   1.00
Br178  Br    0.97780   0.22545   0.43299   0.00000  Uiso   1.00
Br179  Br    0.82064   0.10001   0.11228   0.00000  Uiso   1.00
Br180  Br    0.84603   0.23332   0.38772   0.00000  Uiso   1.00
Br181  Br    0.97611   0.20593   0.11122   0.00000  Uiso   1.00
Br182  Br    0.69055   0.12740   0.38878   0.00000  Uiso   1.00
Br183  Br    0.89245   0.28283   0.15216   0.00000  Uiso   1.00
Br184  Br    0.77422   0.05050   0.34784   0.00000  Uiso   1.00
I185   I     0.91164   0.05532   0.15100   0.00000  Uiso   1.00
I186   I     0.75503   0.27802   0.34900   0.00000  Uiso   1.00
C187   C     0.16676   0.57991   0.24993   0.00000  Uiso   1.00
C188   C     0.16657   0.42009   0.25007   0.00000  Uiso   1.00
C189   C     0.11222   0.48286   0.05032   0.00000  Uiso   1.00
C190   C     0.22112   0.51714   0.44968   0.00000  Uiso   1.00
C191   C     0.08030   0.47092   0.02945   0.00000  Uiso   1.00
C192   C     0.25304   0.52908   0.47055   0.00000  Uiso   1.00
C193   C     0.19454   0.64548   0.20931   0.00000  Uiso   1.00
C194   C     0.13880   0.35452   0.29069   0.00000  Uiso   1.00
C195   C     0.19620   0.35528   0.20983   0.00000  Uiso   1.00
C196   C     0.13714   0.64472   0.29017   0.00000  Uiso   1.00
C197   C     0.16692   0.37595   0.25011   0.00000  Uiso   1.00
C198   C     0.16641   0.62405   0.24989   0.00000  Uiso   1.00
C199   C     0.32063   0.47458   0.22086   0.00000  Uiso   1.00
C200   C     0.01270   0.52542   0.27914   0.00000  Uiso   1.00
C201   C     0.03513   0.47454   0.22094   0.00000  Uiso   1.00
C202   C     0.29820   0.52546   0.27906   0.00000  Uiso   1.00
C203   C     0.13589   0.50016   0.33798   0.00000  Uiso   1.00
C204   C     0.19745   0.49984   0.16202   0.00000  Uiso   1.00
C205   C     0.11565   0.49850   0.38871   0.00000  Uiso   1.00
C206   C     0.21768   0.50150   0.11129   0.00000  Uiso   1.00
C207   C     0.05919   0.46983   0.46112   0.00000  Uiso   1.00
C208   C     0.27414   0.53017   0.03888   0.00000  Uiso   1.00
C209   C     0.07123   0.47776   0.41423   0.00000  Uiso   1.00
C210   C     0.26211   0.52224   0.08577   0.00000  Uiso   1.00
C211   C     0.14410   0.51491   0.41183   0.00000  Uiso   1.00
C212   C     0.18923   0.48509   0.08817   0.00000  Uiso   1.00
C213   C     0.13696   0.50009   0.45653   0.00000  Uiso   1.00
C214   C     0.19637   0.49991   0.04348   0.00000  Uiso   1.00
C215   C     0.09210   0.47957   0.48238   0.00000  Uiso   1.00
C216   C     0.24123   0.52043   0.01762   0.00000  Uiso   1.00
C217   C     0.17284   0.50474   0.47627   0.00000  Uiso   1.00
C218   C     0.16050   0.49526   0.02373   0.00000  Uiso   1.00
H219   H     0.02435   0.45506   0.48027   0.00000  Uiso   1.00
H220   H     0.30899   0.54494   0.01973   0.00000  Uiso   1.00
H221   H     0.09858   0.48169   0.08762   0.00000  Uiso   1.00
H222   H     0.23475   0.51831   0.41238   0.00000  Uiso   1.00
H223   H     0.31160   0.45426   0.19749   0.00000  Uiso   1.00
H224   H     0.02174   0.54574   0.30251   0.00000  Uiso   1.00
H225   H     0.06208   0.45406   0.19775   0.00000  Uiso   1.00
H226   H     0.27126   0.54594   0.30225   0.00000  Uiso   1.00
N227   N     0.04759   0.50001   0.25001   0.00000  Uiso   1.00
N228   N     0.28574   0.49999   0.24999   0.00000  Uiso   1.00
O229   O     0.12846   0.56108   0.25000   0.00000  Uiso   1.00
O230   O     0.20488   0.43892   0.25000   0.00000  Uiso   1.00
O231   O     0.20490   0.56107   0.25000   0.00000  Uiso   1.00
O232   O     0.12843   0.43893   0.25000   0.00000  Uiso   1.00
O233   O     0.10661   0.50001   0.31612   0.00000  Uiso   1.00
O234   O     0.22672   0.49999   0.18388   0.00000  Uiso   1.00
O235   O     0.18305   0.50000   0.31612   0.00000  Uiso   1.00
O236   O     0.15028   0.50000   0.18388   0.00000  Uiso   1.00
Zn237  Zn    0.11562   0.50001   0.25000   0.00000  Uiso   1.00
Zn238  Zn    0.21771   0.49999   0.25000   0.00000  Uiso   1.00
Br239  Br    0.02220   0.44121   0.06701   0.00000  Uiso   1.00
Br240  Br    0.31113   0.55879   0.43299   0.00000  Uiso   1.00
Br241  Br    0.15397   0.43334   0.11228   0.00000  Uiso   1.00
Br242  Br    0.17936   0.56666   0.38772   0.00000  Uiso   1.00
Br243  Br    0.30945   0.53926   0.11122   0.00000  Uiso   1.00
Br244  Br    0.02389   0.46074   0.38878   0.00000  Uiso   1.00
Br245  Br    0.22578   0.61616   0.15216   0.00000  Uiso   1.00
Br246  Br    0.10755   0.38384   0.34784   0.00000  Uiso   1.00
I247   I     0.24498   0.38865   0.15100   0.00000  Uiso   1.00
I248   I     0.08836   0.61135   0.34900   0.00000  Uiso   1.00
C249   C     0.50009   0.57991   0.24993   0.00000  Uiso   1.00
C250   C     0.49991   0.42009   0.25007   0.00000  Uiso   1.00
C251   C     0.44555   0.48286   0.05032   0.00000  Uiso   1.00
C252   C     0.55445   0.51714   0.44968   0.00000  Uiso   1.00
C253   C     0.41363   0.47092   0.02945   0.00000  Uiso   1.00
C254   C     0.58637   0.52908   0.47055   0.00000  Uiso   1.00
C255   C     0.52787   0.64548   0.20931   0.00000  Uiso   1.00
C256   C     0.47213   0.35452   0.29069   0.00000  Uiso   1.00
C257   C     0.52953   0.35528   0.20983   0.00000  Uiso   1.00
C258   C     0.47047   0.64472   0.29017   0.00000  Uiso   1.00
C259   C     0.50025   0.37595   0.25011   0.00000  Uiso   1.00
C260   C     0.49975   0.62405   0.24989   0.00000  Uiso   1.00
C261   C     0.65396   0.47458   0.22086   0.00000  Uiso   1.00
C262   C     0.34604   0.52542   0.27914   0.00000  Uiso   1.00
C263   C     0.36846   0.47454   0.22094   0.00000  Uiso   1.00
C264   C     0.63154   0.52546   0.27906   0.00000  Uiso   1.00
C265   C     0.46922   0.50016   0.33798   0.00000  Uiso   1.00
C266   C     0.53078   0.49984   0.16202   0.00000  Uiso   1.00
C267   C     0.44898   0.49850   0.38871   0.00000  Uiso   1.00
C268   C     0.55102   0.50150   0.11129   0.00000  Uiso   1.00
C269   C     0.39252   0.46983   0.46112   0.00000  Uiso   1.00
C270   C     0.60748   0.53017   0.03888   0.00000  Uiso   1.00
C271   C     0.40456   0.47776   0.41423   0.00000  Uiso   1.00
C272   C     0.59544   0.52224   0.08577   0.00000  Uiso   1.00
C273   C     0.47743   0.51491   0.41183   0.00000  Uiso   1.00
C274   C     0.52257   0.48509   0.08817   0.00000  Uiso   1.00
C275   C     0.47030   0.50009   0.45653   0.00000  Uiso   1.00
C276   C     0.52970   0.49991   0.04348   0.00000  Uiso   1.00
C277   C     0.42544   0.47957   0.48238   0.00000  Uiso   1.00
C278   C     0.57456   0.52043   0.01762   0.00000  Uiso   1.00
C279   C     0.50617   0.50474   0.47627   0.00000  Uiso   1.00
C280   C     0.49383   0.49526   0.02373   0.00000  Uiso   1.00
H281   H     0.35768   0.45506   0.48027   0.00000  Uiso   1.00
H282   H     0.64232   0.54494   0.01973   0.00000  Uiso   1.00
H283   H     0.43192   0.48169   0.08762   0.00000  Uiso   1.00
H284   H     0.56808   0.51831   0.41238   0.00000  Uiso   1.00
H285   H     0.64493   0.45426   0.19749   0.00000  Uiso   1.00
H286   H     0.35507   0.54574   0.30251   0.00000  Uiso   1.00
H287   H     0.39541   0.45406   0.19775   0.00000  Uiso   1.00
H288   H     0.60459   0.54594   0.30225   0.00000  Uiso   1.00
N289   N     0.38093   0.50001   0.25001   0.00000  Uiso   1.00
N290   N     0.61907   0.49999   0.24999   0.00000  Uiso   1.00
O291   O     0.46179   0.56108   0.25000   0.00000  Uiso   1.00
O292   O     0.53821   0.43892   0.25000   0.00000  Uiso   1.00
O293   O     0.53823   0.56107   0.25000   0.00000  Uiso   1.00
O294   O     0.46177   0.43893   0.25000   0.00000  Uiso   1.00
O295   O     0.43994   0.50001   0.31612   0.00000  Uiso   1.00
O296   O     0.56006   0.49999   0.18388   0.00000  Uiso   1.00
O297   O     0.51639   0.50000   0.31612   0.00000  Uiso   1.00
O298   O     0.48361   0.50000   0.18388   0.00000  Uiso   1.00
Zn299  Zn    0.44896   0.50001   0.25000   0.00000  Uiso   1.00
Zn300  Zn    0.55104   0.49999   0.25000   0.00000  Uiso   1.00
Br301  Br    0.35554   0.44121   0.06701   0.00000  Uiso   1.00
Br302  Br    0.64446   0.55879   0.43299   0.00000  Uiso   1.00
Br303  Br    0.48731   0.43334   0.11228   0.00000  Uiso   1.00
Br304  Br    0.51269   0.56666   0.38772   0.00000  Uiso   1.00
Br305  Br    0.64278   0.53926   0.11122   0.00000  Uiso   1.00
Br306  Br    0.35722   0.46074   0.38878   0.00000  Uiso   1.00
Br307  Br    0.55911   0.61616   0.15216   0.00000  Uiso   1.00
Br308  Br    0.44089   0.38384   0.34784   0.00000  Uiso   1.00
I309   I     0.57831   0.38865   0.15100   0.00000  Uiso   1.00
I310   I     0.42169   0.61135   0.34900   0.00000  Uiso   1.00
C311   C     0.83343   0.57991   0.24993   0.00000  Uiso   1.00
C312   C     0.83324   0.42009   0.25007   0.00000  Uiso   1.00
C313   C     0.77888   0.48286   0.05032   0.00000  Uiso   1.00
C314   C     0.88778   0.51714   0.44968   0.00000  Uiso   1.00
C315   C     0.74696   0.47092   0.02945   0.00000  Uiso   1.00
C316   C     0.91970   0.52908   0.47055   0.00000  Uiso   1.00
C317   C     0.86120   0.64548   0.20931   0.00000  Uiso   1.00
C318   C     0.80546   0.35452   0.29069   0.00000  Uiso   1.00
C319   C     0.86286   0.35528   0.20983   0.00000  Uiso   1.00
C320   C     0.80380   0.64472   0.29017   0.00000  Uiso   1.00
C321   C     0.83359   0.37595   0.25011   0.00000  Uiso   1.00
C322   C     0.83308   0.62405   0.24989   0.00000  Uiso   1.00
C323   C     0.98730   0.47458   0.22086   0.00000  Uiso   1.00
C324   C     0.67937   0.52542   0.27914   0.00000  Uiso   1.00
C325   C     0.70180   0.47454   0.22094   0.00000  Uiso   1.00
C326   C     0.96487   0.52546   0.27906   0.00000  Uiso   1.00
C327   C     0.80255   0.50016   0.33798   0.00000  Uiso   1.00
C328   C     0.86411   0.49984   0.16202   0.00000  Uiso   1.00
C329   C     0.78232   0.49850   0.38871   0.00000  Uiso   1.00
C330   C     0.88435   0.50150   0.11129   0.00000  Uiso   1.00
C331   C     0.72586   0.46983   0.46112   0.00000  Uiso   1.00
C332   C     0.94081   0.53017   0.03888   0.00000  Uiso   1.00
C333   C     0.73789   0.47776   0.41423   0.00000  Uiso   1.00
C334   C     0.92877   0.52224   0.08577   0.00000  Uiso   1.00
C335   C     0.81077   0.51491   0.41183   0.00000  Uiso   1.00
C336   C     0.85590   0.48509   0.08817   0.00000  Uiso   1.00
C337   C     0.80363   0.50009   0.45653   0.00000  Uiso   1.00
C338   C     0.86304   0.49991   0.04348   0.00000  Uiso   1.00
C339   C     0.75877   0.47957   0.48238   0.00000  Uiso   1.00
C340   C     0.90790   0.52043   0.01762   0.00000  Uiso   1.00
C341   C     0.83950   0.50474   0.47627   0.00000  Uiso   1.00
C342   C     0.82716   0.49526   0.02373   0.00000  Uiso   1.00
H343   H     0.69101   0.45506   0.48027   0.00000  Uiso   1.00
H344   H     0.97565   0.54494   0.01973   0.00000  Uiso   1.00
H345   H     0.76525   0.48169   0.08762   0.00000  Uiso   1.00
H346   H     0.90142   0.51831   0.41238   0.00000  Uiso   1.00
H347   H     0.97826   0.45426   0.19749   0.00000  Uiso   1.00
H348   H     0.68840   0.54574   0.30251   0.00000  Uiso   1.00
H349   H     0.72875   0.45406   0.19775   0.00000  Uiso   1.00
H350   H     0.93792   0.54594   0.30225   0.00000  Uiso   1.00
N351   N     0.71426   0.50001   0.25001   0.00000  Uiso   1.00
N352   N     0.95241   0.49999   0.24999   0.00000  Uiso   1.00
O353   O     0.79512   0.56108   0.25000   0.00000  Uiso   1.00
O354   O     0.87154   0.43892   0.25000   0.00000  Uiso   1.00
O355   O     0.87157   0.56107   0.25000   0.00000  Uiso   1.00
O356   O     0.79510   0.43893   0.25000   0.00000  Uiso   1.00
O357   O     0.77328   0.50001   0.31612   0.00000  Uiso   1.00
O358   O     0.89339   0.49999   0.18388   0.00000  Uiso   1.00
O359   O     0.84972   0.50000   0.31612   0.00000  Uiso   1.00
O360   O     0.81695   0.50000   0.18388   0.00000  Uiso   1.00
Zn361  Zn    0.78229   0.50001   0.25000   0.00000  Uiso   1.00
Zn362  Zn    0.88438   0.49999   0.25000   0.00000  Uiso   1.00
Br363  Br    0.68887   0.44121   0.06701   0.00000  Uiso   1.00
Br364  Br    0.97780   0.55879   0.43299   0.00000  Uiso   1.00
Br365  Br    0.82064   0.43334   0.11228   0.00000  Uiso   1.00
Br366  Br    0.84603   0.56666   0.38772   0.00000  Uiso   1.00
Br367  Br    0.97611   0.53926   0.11122   0.00000  Uiso   1.00
Br368  Br    0.69055   0.46074   0.38878   0.00000  Uiso   1.00
Br369  Br    0.89245   0.61616   0.15216   0.00000  Uiso   1.00
Br370  Br    0.77422   0.38384   0.34784   0.00000  Uiso   1.00
I371   I     0.91164   0.38865   0.15100   0.00000  Uiso   1.00
I372   I     0.75503   0.61135   0.34900   0.00000  Uiso   1.00
C373   C     0.16676   0.91324   0.24993   0.00000  Uiso   1.00
C374   C     0.16657   0.75343   0.25007   0.00000  Uiso   1.00
C375   C     0.11222   0.81620   0.05032   0.00000  Uiso   1.00
C376   C     0.22112   0.85047   0.44968   0.00000  Uiso   1.00
C377   C     0.08030   0.80425   0.02945   0.00000  Uiso   1.00
C378   C     0.25304   0.86241   0.47055   0.00000  Uiso   1.00
C379   C     0.19454   0.97881   0.20931   0.00000  Uiso   1.00
C380   C     0.13880   0.68786   0.29069   0.00000  Uiso   1.00
C381   C     0.19620   0.68861   0.20983   0.00000  Uiso   1.00
C382   C     0.13714   0.97806   0.29017   0.00000  Uiso   1.00
C383   C     0.16692   0.70929   0.25011   0.00000  Uiso   1.00
C384   C     0.16641   0.95738   0.24989   0.00000  Uiso   1.00
C385   C     0.32063   0.80792   0.22086   0.00000  Uiso   1.00
C386   C     0.01270   0.85875   0.27914   0.00000  Uiso   1.00
C387   C     0.03513   0.80788   0.22094   0.00000  Uiso   1.00
C388   C     0.29820   0.85879   0.27906   0.00000  Uiso   1.00
C389   C     0.13589   0.83349   0.33798   0.00000  Uiso   1.00
C390   C     0.19745   0.83317   0.16202   0.00000  Uiso   1.00
C391   C     0.11565   0.83183   0.38871   0.00000  Uiso   1.00
C392   C     0.21768   0.83484   0.11129   0.00000  Uiso   1.00
C393   C     0.05919   0.80316   0.46112   0.00000  Uiso   1.00
C394   C     0.27414   0.86351   0.03888   0.00000  Uiso   1.00
C395   C     0.07123   0.81110   0.41423   0.00000  Uiso   1.00
C396   C     0.26211   0.85557   0.08577   0.00000  Uiso   1.00
C397   C     0.14410   0.84825   0.41183   0.00000  Uiso   1.00
C398   C     0.18923   0.81842   0.08817   0.00000  Uiso   1.00
C399   C     0.13696   0.83342   0.45653   0.00000  Uiso   1.00
C400   C     0.19637   0.83324   0.04348   0.00000  Uiso   1.00
C401   C     0.09210   0.81290   0.48238   0.00000  Uiso   1.00
C402   C     0.24123   0.85376   0.01762   0.00000  Uiso   1.00
C403   C     0.17284   0.83808   0.47627   0.00000  Uiso   1.00
C404   C     0.16050   0.82859   0.02373   0.00000  Uiso   1.00
H405   H     0.02435   0.78840   0.48027   0.00000  Uiso   1.00
H406   H     0.30899   0.87827   0.01973   0.00000  Uiso   1.00
H407   H     0.09858   0.81503   0.08762   0.00000  Uiso   1.00
H408   H     0.23475   0.85164   0.41238   0.00000  Uiso   1.00
H409   H     0.31160   0.78760   0.19749   0.00000  Uiso   1.00
H410   H     0.02174   0.87907   0.30251   0.00000  Uiso   1.00
H411   H     0.06208   0.78739   0.19775   0.00000  Uiso   1.00
H412   H     0.27126   0.87927   0.30225   0.00000  Uiso   1.00
N413   N     0.04759   0.83334   0.25001   0.00000  Uiso   1.00
N414   N     0.28574   0.83332   0.24999   0.00000  Uiso   1.00
O415   O     0.12846   0.89442   0.25000   0.00000  Uiso   1.00
O416   O     0.20488   0.77225   0.25000   0.00000  Uiso   1.00
O417   O     0.20490   0.89441   0.25000   0.00000  Uiso   1.00
O418   O     0.12843   0.77226   0.25000   0.00000  Uiso   1.00
O419   O     0.10661   0.83334   0.31612   0.00000  Uiso   1.00
O420   O     0.22672   0.83333   0.18388   0.00000  Uiso   1.00
O421   O     0.18305   0.83333   0.31612   0.00000  Uiso   1.00
O422   O     0.15028   0.83334   0.18388   0.00000  Uiso   1.00
Zn423  Zn    0.11562   0.83334   0.25000   0.00000  Uiso   1.00
Zn424  Zn    0.21771   0.83333   0.25000   0.00000  Uiso   1.00
Br425  Br    0.02220   0.77455   0.06701   0.00000  Uiso   1.00
Br426  Br    0.31113   0.89212   0.43299   0.00000  Uiso   1.00
Br427  Br    0.15397   0.76668   0.11228   0.00000  Uiso   1.00
Br428  Br    0.17936   0.89999   0.38772   0.00000  Uiso   1.00
Br429  Br    0.30945   0.87260   0.11122   0.00000  Uiso   1.00
Br430  Br    0.02389   0.79407   0.38878   0.00000  Uiso   1.00
Br431  Br    0.22578   0.94950   0.15216   0.00000  Uiso   1.00
Br432  Br    0.10755   0.71717   0.34784   0.00000  Uiso   1.00
I433   I     0.24498   0.72198   0.15100   0.00000  Uiso   1.00
I434   I     0.08836   0.94468   0.34900   0.00000  Uiso   1.00
C435   C     0.50009   0.91324   0.24993   0.00000  Uiso   1.00
C436   C     0.49991   0.75343   0.25007   0.00000  Uiso   1.00
C437   C     0.44555   0.81620   0.05032   0.00000  Uiso   1.00
C438   C     0.55445   0.85047   0.44968   0.00000  Uiso   1.00
C439   C     0.41363   0.80425   0.02945   0.00000  Uiso   1.00
C440   C     0.58637   0.86241   0.47055   0.00000  Uiso   1.00
C441   C     0.52787   0.97881   0.20931   0.00000  Uiso   1.00
C442   C     0.47213   0.68786   0.29069   0.00000  Uiso   1.00
C443   C     0.52953   0.68861   0.20983   0.00000  Uiso   1.00
C444   C     0.47047   0.97806   0.29017   0.00000  Uiso   1.00
C445   C     0.50025   0.70929   0.25011   0.00000  Uiso   1.00
C446   C     0.49975   0.95738   0.24989   0.00000  Uiso   1.00
C447   C     0.65396   0.80792   0.22086   0.00000  Uiso   1.00
C448   C     0.34604   0.85875   0.27914   0.00000  Uiso   1.00
C449   C     0.36846   0.80788   0.22094   0.00000  Uiso   1.00
C450   C     0.63154   0.85879   0.27906   0.00000  Uiso   1.00
C451   C     0.46922   0.83349   0.33798   0.00000  Uiso   1.00
C452   C     0.53078   0.83317   0.16202   0.00000  Uiso   1.00
C453   C     0.44898   0.83183   0.38871   0.00000  Uiso   1.00
C454   C     0.55102   0.83484   0.11129   0.00000  Uiso   1.00
C455   C     0.39252   0.80316   0.46112   0.00000  Uiso   1.00
C456   C     0.60748   0.86351   0.03888   0.00000  Uiso   1.00
C457   C     0.40456   0.81110   0.41423   0.00000  Uiso   1.00
C458   C     0.59544   0.85557   0.08577   0.00000  Uiso   1.00
C459   C     0.47743   0.84825   0.41183   0.00000  Uiso   1.00
C460   C     0.52257   0.81842   0.08817   0.00000  Uiso   1.00
C461   C     0.47030   0.83342   0.45653   0.00000  Uiso   1.00
C462   C     0.52970   0.83324   0.04348   0.00000  Uiso   1.00
C463   C     0.42544   0.81290   0.48238   0.00000  Uiso   1.00
C464   C     0.57456   0.85376   0.01762   0.00000  Uiso   1.00
C465   C     0.50617   0.83808   0.47627   0.00000  Uiso   1.00
C466   C     0.49383   0.82859   0.02373   0.00000  Uiso   1.00
H467   H     0.35768   0.78840   0.48027   0.00000  Uiso   1.00
H468   H     0.64232   0.87827   0.01973   0.00000  Uiso   1.00
H469   H     0.43192   0.81503   0.08762   0.00000  Uiso   1.00
H470   H     0.56808   0.85164   0.41238   0.00000  Uiso   1.00
H471   H     0.64493   0.78760   0.19749   0.00000  Uiso   1.00
H472   H     0.35507   0.87907   0.30251   0.00000  Uiso   1.00
H473   H     0.39541   0.78739   0.19775   0.00000  Uiso   1.00
H474   H     0.60459   0.87927   0.30225   0.00000  Uiso   1.00
N475   N     0.38093   0.83334   0.25001   0.00000  Uiso   1.00
N476   N     0.61907   0.83332   0.24999   0.00000  Uiso   1.00
O477   O     0.46179   0.89442   0.25000   0.00000  Uiso   1.00
O478   O     0.53821   0.77225   0.25000   0.00000  Uiso   1.00
O479   O     0.53823   0.89441   0.25000   0.00000  Uiso   1.00
O480   O     0.46177   0.77226   0.25000   0.00000  Uiso   1.00
O481   O     0.43994   0.83334   0.31612   0.00000  Uiso   1.00
O482   O     0.56006   0.83333   0.18388   0.00000  Uiso   1.00
O483   O     0.51639   0.83333   0.31612   0.00000  Uiso   1.00
O484   O     0.48361   0.83334   0.18388   0.00000  Uiso   1.00
Zn485  Zn    0.44896   0.83334   0.25000   0.00000  Uiso   1.00
Zn486  Zn    0.55104   0.83333   0.25000   0.00000  Uiso   1.00
Br487  Br    0.35554   0.77455   0.06701   0.00000  Uiso   1.00
Br488  Br    0.64446   0.89212   0.43299   0.00000  Uiso   1.00
Br489  Br    0.48731   0.76668   0.11228   0.00000  Uiso   1.00
Br490  Br    0.51269   0.89999   0.38772   0.00000  Uiso   1.00
Br491  Br    0.64278   0.87260   0.11122   0.00000  Uiso   1.00
Br492  Br    0.35722   0.79407   0.38878   0.00000  Uiso   1.00
Br493  Br    0.55911   0.94950   0.15216   0.00000  Uiso   1.00
Br494  Br    0.44089   0.71717   0.34784   0.00000  Uiso   1.00
I495   I     0.57831   0.72198   0.15100   0.00000  Uiso   1.00
I496   I     0.42169   0.94468   0.34900   0.00000  Uiso   1.00
C497   C     0.83343   0.91324   0.24993   0.00000  Uiso   1.00
C498   C     0.83324   0.75343   0.25007   0.00000  Uiso   1.00
C499   C     0.77888   0.81620   0.05032   0.00000  Uiso   1.00
C500   C     0.88778   0.85047   0.44968   0.00000  Uiso   1.00
C501   C     0.74696   0.80425   0.02945   0.00000  Uiso   1.00
C502   C     0.91970   0.86241   0.47055   0.00000  Uiso   1.00
C503   C     0.86120   0.97881   0.20931   0.00000  Uiso   1.00
C504   C     0.80546   0.68786   0.29069   0.00000  Uiso   1.00
C505   C     0.86286   0.68861   0.20983   0.00000  Uiso   1.00
C506   C     0.80380   0.97806   0.29017   0.00000  Uiso   1.00
C507   C     0.83359   0.70929   0.25011   0.00000  Uiso   1.00
C508   C     0.83308   0.95738   0.24989   0.00000  Uiso   1.00
C509   C     0.98730   0.80792   0.22086   0.00000  Uiso   1.00
C510   C     0.67937   0.85875   0.27914   0.00000  Uiso   1.00
C511   C     0.70180   0.80788   0.22094   0.00000  Uiso   1.00
C512   C     0.96487   0.85879   0.27906   0.00000  Uiso   1.00
C513   C     0.80255   0.83349   0.33798   0.00000  Uiso   1.00
C514   C     0.86411   0.83317   0.16202   0.00000  Uiso   1.00
C515   C     0.78232   0.83183   0.38871   0.00000  Uiso   1.00
C516   C     0.88435   0.83484   0.11129   0.00000  Uiso   1.00
C517   C     0.72586   0.80316   0.46112   0.00000  Uiso   1.00
C518   C     0.94081   0.86351   0.03888   0.00000  Uiso   1.00
C519   C     0.73789   0.81110   0.41423   0.00000  Uiso   1.00
C520   C     0.92877   0.85557   0.08577   0.00000  Uiso   1.00
C521   C     0.81077   0.84825   0.41183   0.00000  Uiso   1.00
C522   C     0.85590   0.81842   0.08817   0.00000  Uiso   1.00
C523   C     0.80363   0.83342   0.45653   0.00000  Uiso   1.00
C524   C     0.86304   0.83324   0.04348   0.00000  Uiso   1.00
C525   C     0.75877   0.81290   0.48238   0.00000  Uiso   1.00
C526   C     0.90790   0.85376   0.01762   0.00000  Uiso   1.00
C527   C     0.83950   0.83808   0.47627   0.00000  Uiso   1.00
C528   C     0.82716   0.82859   0.02373   0.00000  Uiso   1.00
H529   H     0.69101   0.78840   0.48027   0.00000  Uiso   1.00
H530   H     0.97565   0.87827   0.01973   0.00000  Uiso   1.00
H531   H     0.76525   0.81503   0.08762   0.00000  Uiso   1.00
H532   H     0.90142   0.85164   0.41238   0.00000  Uiso   1.00
H533   H     0.97826   0.78760   0.19749   0.00000  Uiso   1.00
H534   H     0.68840   0.87907   0.30251   0.00000  Uiso   1.00
H535   H     0.72875   0.78739   0.19775   0.00000  Uiso   1.00
H536   H     0.93792   0.87927   0.30225   0.00000  Uiso   1.00
N537   N     0.71426   0.83334   0.25001   0.00000  Uiso   1.00
N538   N     0.95241   0.83332   0.24999   0.00000  Uiso   1.00
O539   O     0.79512   0.89442   0.25000   0.00000  Uiso   1.00
O540   O     0.87154   0.77225   0.25000   0.00000  Uiso   1.00
O541   O     0.87157   0.89441   0.25000   0.00000  Uiso   1.00
O542   O     0.79510   0.77226   0.25000   0.00000  Uiso   1.00
O543   O     0.77328   0.83334   0.31612   0.00000  Uiso   1.00
O544   O     0.89339   0.83333   0.18388   0.00000  Uiso   1.00
O545   O     0.84972   0.83333   0.31612   0.00000  Uiso   1.00
O546   O     0.81695   0.83334   0.18388   0.00000  Uiso   1.00
Zn547  Zn    0.78229   0.83334   0.25000   0.00000  Uiso   1.00
Zn548  Zn    0.88438   0.83333   0.25000   0.00000  Uiso   1.00
Br549  Br    0.68887   0.77455   0.06701   0.00000  Uiso   1.00
Br550  Br    0.97780   0.89212   0.43299   0.00000  Uiso   1.00
Br551  Br    0.82064   0.76668   0.11228   0.00000  Uiso   1.00
Br552  Br    0.84603   0.89999   0.38772   0.00000  Uiso   1.00
Br553  Br    0.97611   0.87260   0.11122   0.00000  Uiso   1.00
Br554  Br    0.69055   0.79407   0.38878   0.00000  Uiso   1.00
Br555  Br    0.89245   0.94950   0.15216   0.00000  Uiso   1.00
Br556  Br    0.77422   0.71717   0.34784   0.00000  Uiso   1.00
I557   I     0.91164   0.72198   0.15100   0.00000  Uiso   1.00
I558   I     0.75503   0.94468   0.34900   0.00000  Uiso   1.00
C559   C     0.16676   0.24657   0.74993   0.00000  Uiso   1.00
C560   C     0.16657   0.08676   0.75007   0.00000  Uiso   1.00
C561   C     0.11222   0.14953   0.55032   0.00000  Uiso   1.00
C562   C     0.22112   0.18380   0.94968   0.00000  Uiso   1.00
C563   C     0.08030   0.13759   0.52945   0.00000  Uiso   1.00
C564   C     0.25304   0.19575   0.97055   0.00000  Uiso   1.00
C565   C     0.19454   0.31214   0.70931   0.00000  Uiso   1.00
C566   C     0.13880   0.02119   0.79069   0.00000  Uiso   1.00
C567   C     0.19620   0.02194   0.70983   0.00000  Uiso   1.00
C568   C     0.13714   0.31139   0.79017   0.00000  Uiso   1.00
C569   C     0.16692   0.04262   0.75011   0.00000  Uiso   1.00
C570   C     0.16641   0.29071   0.74989   0.00000  Uiso   1.00
C571   C     0.32063   0.14125   0.72086   0.00000  Uiso   1.00
C572   C     0.01270   0.19208   0.77914   0.00000  Uiso   1.00
C573   C     0.03513   0.14121   0.72094   0.00000  Uiso   1.00
C574   C     0.29820   0.19212   0.77906   0.00000  Uiso   1.00
C575   C     0.13589   0.16683   0.83798   0.00000  Uiso   1.00
C576   C     0.19745   0.16651   0.66202   0.00000  Uiso   1.00
C577   C     0.11565   0.16516   0.88871   0.00000  Uiso   1.00
C578   C     0.21768   0.16817   0.61129   0.00000  Uiso   1.00
C579   C     0.05919   0.13649   0.96112   0.00000  Uiso   1.00
C580   C     0.27414   0.19684   0.53888   0.00000  Uiso   1.00
C581   C     0.07123   0.14443   0.91423   0.00000  Uiso   1.00
C582   C     0.26211   0.18890   0.58577   0.00000  Uiso   1.00
C583   C     0.14410   0.18158   0.91183   0.00000  Uiso   1.00
C584   C     0.18923   0.15175   0.58817   0.00000  Uiso   1.00
C585   C     0.13696   0.16676   0.95653   0.00000  Uiso   1.00
C586   C     0.19637   0.16658   0.54348   0.00000  Uiso   1.00
C587   C     0.09210   0.14624   0.98238   0.00000  Uiso   1.00
C588   C     0.24123   0.18710   0.51762   0.00000  Uiso   1.00
C589   C     0.17284   0.17141   0.97627   0.00000  Uiso   1.00
C590   C     0.16050   0.16192   0.52373   0.00000  Uiso   1.00
H591   H     0.02435   0.12173   0.98027   0.00000  Uiso   1.00
H592   H     0.30899   0.21160   0.51973   0.00000  Uiso   1.00
H593   H     0.09858   0.14836   0.58762   0.00000  Uiso   1.00
H594   H     0.23475   0.18497   0.91238   0.00000  Uiso   1.00
H595   H     0.31160   0.12093   0.69749   0.00000  Uiso   1.00
H596   H     0.02174   0.21240   0.80251   0.00000  Uiso   1.00
H597   H     0.06208   0.12073   0.69775   0.00000  Uiso   1.00
H598   H     0.27126   0.21261   0.80225   0.00000  Uiso   1.00
N599   N     0.04759   0.16668   0.75001   0.00000  Uiso   1.00
N600   N     0.28574   0.16666   0.74999   0.00000  Uiso   1.00
O601   O     0.12846   0.22775   0.75000   0.00000  Uiso   1.00
O602   O     0.20488   0.10558   0.75000   0.00000  Uiso   1.00
O603   O     0.20490   0.22774   0.75000   0.00000  Uiso   1.00
O604   O     0.12843   0.10559   0.75000   0.00000  Uiso   1.00
O605   O     0.10661   0.16667   0.81612   0.00000  Uiso   1.00
O606   O     0.22672   0.16666   0.68388   0.00000  Uiso   1.00
O607   O     0.18305   0.16666   0.81612   0.00000  Uiso   1.00
O608   O     0.15028   0.16667   0.68388   0.00000  Uiso   1.00
Zn609  Zn    0.11562   0.16667   0.75000   0.00000  Uiso   1.00
Zn610  Zn    0.21771   0.16666   0.75000   0.00000  Uiso   1.00
Br611  Br    0.02220   0.10788   0.56701   0.00000  Uiso   1.00
Br612  Br    0.31113   0.22545   0.93299   0.00000  Uiso   1.00
Br613  Br    0.15397   0.10001   0.61228   0.00000  Uiso   1.00
Br614  Br    0.17936   0.23332   0.88772   0.00000  Uiso   1.00
Br615  Br    0.30945   0.20593   0.61122   0.00000  Uiso   1.00
Br616  Br    0.02389   0.12740   0.88878   0.00000  Uiso   1.00
Br617  Br    0.22578   0.28283   0.65216   0.00000  Uiso   1.00
Br618  Br    0.10755   0.05050   0.84784   0.00000  Uiso   1.00
I619   I     0.24498   0.05532   0.65100   0.00000  Uiso   1.00
I620   I     0.08836   0.27802   0.84900   0.00000  Uiso   1.00
C621   C     0.50009   0.24657   0.74993   0.00000  Uiso   1.00
C622   C     0.49991   0.08676   0.75007   0.00000  Uiso   1.00
C623   C     0.44555   0.14953   0.55032   0.00000  Uiso   1.00
C624   C     0.55445   0.18380   0.94968   0.00000  Uiso   1.00
C625   C     0.41363   0.13759   0.52945   0.00000  Uiso   1.00
C626   C     0.58637   0.19575   0.97055   0.00000  Uiso   1.00
C627   C     0.52787   0.31214   0.70931   0.00000  Uiso   1.00
C628   C     0.47213   0.02119   0.79069   0.00000  Uiso   1.00
C629   C     0.52953   0.02194   0.70983   0.00000  Uiso   1.00
C630   C     0.47047   0.31139   0.79017   0.00000  Uiso   1.00
C631   C     0.50025   0.04262   0.75011   0.00000  Uiso   1.00
C632   C     0.49975   0.29071   0.74989   0.00000  Uiso   1.00
C633   C     0.65396   0.14125   0.72086   0.00000  Uiso   1.00
C634   C     0.34604   0.19208   0.77914   0.00000  Uiso   1.00
C635   C     0.36846   0.14121   0.72094   0.00000  Uiso   1.00
C636   C     0.63154   0.19212   0.77906   0.00000  Uiso   1.00
C637   C     0.46922   0.16683   0.83798   0.00000  Uiso   1.00
C638   C     0.53078   0.16651   0.66202   0.00000  Uiso   1.00
C639   C     0.44898   0.16516   0.88871   0.00000  Uiso   1.00
C640   C     0.55102   0.16817   0.61129   0.00000  Uiso   1.00
C641   C     0.39252   0.13649   0.96112   0.00000  Uiso   1.00
C642   C     0.60748   0.19684   0.53888   0.00000  Uiso   1.00
C643   C     0.40456   0.14443   0.91423   0.00000  Uiso   1.00
C644   C     0.59544   0.18890   0.58577   0.00000  Uiso   1.00
C645   C     0.47743   0.18158   0.91183   0.00000  Uiso   1.00
C646   C     0.52257   0.15175   0.58817   0.00000  Uiso   1.00
C647   C     0.47030   0.16676   0.95653   0.00000  Uiso   1.00
C648   C     0.52970   0.16658   0.54348   0.00000  Uiso   1.00
C649   C     0.42544   0.14624   0.98238   0.00000  Uiso   1.00
C650   C     0.57456   0.18710   0.51762   0.00000  Uiso   1.00
C651   C     0.50617   0.17141   0.97627   0.00000  Uiso   1.00
C652   C     0.49383   0.16192   0.52373   0.00000  Uiso   1.00
H653   H     0.35768   0.12173   0.98027   0.00000  Uiso   1.00
H654   H     0.64232   0.21160   0.51973   0.00000  Uiso   1.00
H655   H     0.43192   0.14836   0.58762   0.00000  Uiso   1.00
H656   H     0.56808   0.18497   0.91238   0.00000  Uiso   1.00
H657   H     0.64493   0.12093   0.69749   0.00000  Uiso   1.00
H658   H     0.35507   0.21240   0.80251   0.00000  Uiso   1.00
H659   H     0.39541   0.12073   0.69775   0.00000  Uiso   1.00
H660   H     0.60459   0.21261   0.80225   0.00000  Uiso   1.00
N661   N     0.38093   0.16668   0.75001   0.00000  Uiso   1.00
N662   N     0.61907   0.16666   0.74999   0.00000  Uiso   1.00
O663   O     0.46179   0.22775   0.75000   0.00000  Uiso   1.00
O664   O     0.53821   0.10558   0.75000   0.00000  Uiso   1.00
O665   O     0.53823   0.22774   0.75000   0.00000  Uiso   1.00
O666   O     0.46177   0.10559   0.75000   0.00000  Uiso   1.00
O667   O     0.43994   0.16667   0.81612   0.00000  Uiso   1.00
O668   O     0.56006   0.16666   0.68388   0.00000  Uiso   1.00
O669   O     0.51639   0.16666   0.81612   0.00000  Uiso   1.00
O670   O     0.48361   0.16667   0.68388   0.00000  Uiso   1.00
Zn671  Zn    0.44896   0.16667   0.75000   0.00000  Uiso   1.00
Zn672  Zn    0.55104   0.16666   0.75000   0.00000  Uiso   1.00
Br673  Br    0.35554   0.10788   0.56701   0.00000  Uiso   1.00
Br674  Br    0.64446   0.22545   0.93299   0.00000  Uiso   1.00
Br675  Br    0.48731   0.10001   0.61228   0.00000  Uiso   1.00
Br676  Br    0.51269   0.23332   0.88772   0.00000  Uiso   1.00
Br677  Br    0.64278   0.20593   0.61122   0.00000  Uiso   1.00
Br678  Br    0.35722   0.12740   0.88878   0.00000  Uiso   1.00
Br679  Br    0.55911   0.28283   0.65216   0.00000  Uiso   1.00
Br680  Br    0.44089   0.05050   0.84784   0.00000  Uiso   1.00
I681   I     0.57831   0.05532   0.65100   0.00000  Uiso   1.00
I682   I     0.42169   0.27802   0.84900   0.00000  Uiso   1.00
C683   C     0.83343   0.24657   0.74993   0.00000  Uiso   1.00
C684   C     0.83324   0.08676   0.75007   0.00000  Uiso   1.00
C685   C     0.77888   0.14953   0.55032   0.00000  Uiso   1.00
C686   C     0.88778   0.18380   0.94968   0.00000  Uiso   1.00
C687   C     0.74696   0.13759   0.52945   0.00000  Uiso   1.00
C688   C     0.91970   0.19575   0.97055   0.00000  Uiso   1.00
C689   C     0.86120   0.31214   0.70931   0.00000  Uiso   1.00
C690   C     0.80546   0.02119   0.79069   0.00000  Uiso   1.00
C691   C     0.86286   0.02194   0.70983   0.00000  Uiso   1.00
C692   C     0.80380   0.31139   0.79017   0.00000  Uiso   1.00
C693   C     0.83359   0.04262   0.75011   0.00000  Uiso   1.00
C694   C     0.83308   0.29071   0.74989   0.00000  Uiso   1.00
C695   C     0.98730   0.14125   0.72086   0.00000  Uiso   1.00
C696   C     0.67937   0.19208   0.77914   0.00000  Uiso   1.00
C697   C     0.70180   0.14121   0.72094   0.00000  Uiso   1.00
C698   C     0.96487   0.19212   0.77906   0.00000  Uiso   1.00
C699   C     0.80255   0.16683   0.83798   0.00000  Uiso   1.00
C700   C     0.86411   0.16651   0.66202   0.00000  Uiso   1.00
C701   C     0.78232   0.16516   0.88871   0.00000  Uiso   1.00
C702   C     0.88435   0.16817   0.61129   0.00000  Uiso   1.00
C703   C     0.72586   0.13649   0.96112   0.00000  Uiso   1.00
C704   C     0.94081   0.19684   0.53888   0.00000  Uiso   1.00
C705   C     0.73789   0.14443   0.91423   0.00000  Uiso   1.00
C706   C     0.92877   0.18890   0.58577   0.00000  Uiso   1.00
C707   C     0.81077   0.18158   0.91183   0.00000  Uiso   1.00
C708   C     0.85590   0.15175   0.58817   0.00000  Uiso   1.00
C709   C     0.80363   0.16676   0.95653   0.00000  Uiso   1.00
C710   C     0.86304   0.16658   0.54348   0.00000  Uiso   1.00
C711   C     0.75877   0.14624   0.98238   0.00000  Uiso   1.00
C712   C     0.90790   0.18710   0.51762   0.00000  Uiso   1.00
C713   C     0.83950   0.17141   0.97627   0.00000  Uiso   1.00
C714   C     0.82716   0.16192   0.52373   0.00000  Uiso   1.00
H715   H     0.69101   0.12173   0.98027   0.00000  Uiso   1.00
H716   H     0.97565   0.21160   0.51973   0.00000  Uiso   1.00
H717   H     0.76525   0.14836   0.58762   0.00000  Uiso   1.00
H718   H     0.90142   0.18497   0.91238   0.00000  Uiso   1.00
H719   H     0.97826   0.12093   0.69749   0.00000  Uiso   1.00
H720   H     0.68840   0.21240   0.80251   0.00000  Uiso   1.00
H721   H     0.72875   0.12073   0.69775   0.00000  Uiso   1.00
H722   H     0.93792   0.21261   0.80225   0.00000  Uiso   1.00
N723   N     0.71426   0.16668   0.75001   0.00000  Uiso   1.00
N724   N     0.95241   0.16666   0.74999   0.00000  Uiso   1.00
O725   O     0.79512   0.22775   0.75000   0.00000  Uiso   1.00
O726   O     0.87154   0.10558   0.75000   0.00000  Uiso   1.00
O727   O     0.87157   0.22774   0.75000   0.00000  Uiso   1.00
O728   O     0.79510   0.10559   0.75000   0.00000  Uiso   1.00
O729   O     0.77328   0.16667   0.81612   0.00000  Uiso   1.00
O730   O     0.89339   0.16666   0.68388   0.00000  Uiso   1.00
O731   O     0.84972   0.16666   0.81612   0.00000  Uiso   1.00
O732   O     0.81695   0.16667   0.68388   0.00000  Uiso   1.00
Zn733  Zn    0.78229   0.16667   0.75000   0.00000  Uiso   1.00
Zn734  Zn    0.88438   0.16666   0.75000   0.00000  Uiso   1.00
Br735  Br    0.68887   0.10788   0.56701   0.00000  Uiso   1.00
Br736  Br    0.97780   0.22545   0.93299   0.00000  Uiso   1.00
Br737  Br    0.82064   0.10001   0.61228   0.00000  Uiso   1.00
Br738  Br    0.84603   0.23332   0.88772   0.00000  Uiso   1.00
Br739  Br    0.97611   0.20593   0.61122   0.00000  Uiso   1.00
Br740  Br    0.69055   0.12740   0.88878   0.00000  Uiso   1.00
Br741  Br    0.89245   0.28283   0.65216   0.00000  Uiso   1.00
Br742  Br    0.77422   0.05050   0.84784   0.00000  Uiso   1.00
I743   I     0.91164   0.05532   0.65100   0.00000  Uiso   1.00
I744   I     0.75503   0.27802   0.84900   0.00000  Uiso   1.00
C745   C     0.16676   0.57991   0.74993   0.00000  Uiso   1.00
C746   C     0.16657   0.42009   0.75007   0.00000  Uiso   1.00
C747   C     0.11222   0.48286   0.55032   0.00000  Uiso   1.00
C748   C     0.22112   0.51714   0.94968   0.00000  Uiso   1.00
C749   C     0.08030   0.47092   0.52945   0.00000  Uiso   1.00
C750   C     0.25304   0.52908   0.97055   0.00000  Uiso   1.00
C751   C     0.19454   0.64548   0.70931   0.00000  Uiso   1.00
C752   C     0.13880   0.35452   0.79069   0.00000  Uiso   1.00
C753   C     0.19620   0.35528   0.70983   0.00000  Uiso   1.00
C754   C     0.13714   0.64472   0.79017   0.00000  Uiso   1.00
C755   C     0.16692   0.37595   0.75011   0.00000  Uiso   1.00
C756   C     0.16641   0.62405   0.74989   0.00000  Uiso   1.00
C757   C     0.32063   0.47458   0.72086   0.00000  Uiso   1.00
C758   C     0.01270   0.52542   0.77914   0.00000  Uiso   1.00
C759   C     0.03513   0.47454   0.72094   0.00000  Uiso   1.00
C760   C     0.29820   0.52546   0.77906   0.00000  Uiso   1.00
C761   C     0.13589   0.50016   0.83798   0.00000  Uiso   1.00
C762   C     0.19745   0.49984   0.66202   0.00000  Uiso   1.00
C763   C     0.11565   0.49850   0.88871   0.00000  Uiso   1.00
C764   C     0.21768   0.50150   0.61129   0.00000  Uiso   1.00
C765   C     0.05919   0.46983   0.96112   0.00000  Uiso   1.00
C766   C     0.27414   0.53017   0.53888   0.00000  Uiso   1.00
C767   C     0.07123   0.47776   0.91423   0.00000  Uiso   1.00
C768   C     0.26211   0.52224   0.58577   0.00000  Uiso   1.00
C769   C     0.14410   0.51491   0.91183   0.00000  Uiso   1.00
C770   C     0.18923   0.48509   0.58817   0.00000  Uiso   1.00
C771   C     0.13696   0.50009   0.95653   0.00000  Uiso   1.00
C772   C     0.19637   0.49991   0.54348   0.00000  Uiso   1.00
C773   C     0.09210   0.47957   0.98238   0.00000  Uiso   1.00
C774   C     0.24123   0.52043   0.51762   0.00000  Uiso   1.00
C775   C     0.17284   0.50474   0.97627   0.00000  Uiso   1.00
C776   C     0.16050   0.49526   0.52373   0.00000  Uiso   1.00
H777   H     0.02435   0.45506   0.98027   0.00000  Uiso   1.00
H778   H     0.30899   0.54494   0.51973   0.00000  Uiso   1.00
H779   H     0.09858   0.48169   0.58762   0.00000  Uiso   1.00
H780   H     0.23475   0.51831   0.91238   0.00000  Uiso   1.00
H781   H     0.31160   0.45426   0.69749   0.00000  Uiso   1.00
H782   H     0.02174   0.54574   0.80251   0.00000  Uiso   1.00
H783   H     0.06208   0.45406   0.69775   0.00000  Uiso   1.00
H784   H     0.27126   0.54594   0.80225   0.00000  Uiso   1.00
N785   N     0.04759   0.50001   0.75001   0.00000  Uiso   1.00
N786   N     0.28574   0.49999   0.74999   0.00000  Uiso   1.00
O787   O     0.12846   0.56108   0.75000   0.00000  Uiso   1.00
O788   O     0.20488   0.43892   0.75000   0.00000  Uiso   1.00
O789   O     0.20490   0.56107   0.75000   0.00000  Uiso   1.00
O790   O     0.12843   0.43893   0.75000   0.00000  Uiso   1.00
O791   O     0.10661   0.50001   0.81612   0.00000  Uiso   1.00
O792   O     0.22672   0.49999   0.68388   0.00000  Uiso   1.00
O793   O     0.18305   0.50000   0.81612   0.00000  Uiso   1.00
O794   O     0.15028   0.50000   0.68388   0.00000  Uiso   1.00
Zn795  Zn    0.11562   0.50001   0.75000   0.00000  Uiso   1.00
Zn796  Zn    0.21771   0.49999   0.75000   0.00000  Uiso   1.00
Br797  Br    0.02220   0.44121   0.56701   0.00000  Uiso   1.00
Br798  Br    0.31113   0.55879   0.93299   0.00000  Uiso   1.00
Br799  Br    0.15397   0.43334   0.61228   0.00000  Uiso   1.00
Br800  Br    0.17936   0.56666   0.88772   0.00000  Uiso   1.00
Br801  Br    0.30945   0.53926   0.61122   0.00000  Uiso   1.00
Br802  Br    0.02389   0.46074   0.88878   0.00000  Uiso   1.00
Br803  Br    0.22578   0.61616   0.65216   0.00000  Uiso   1.00
Br804  Br    0.10755   0.38384   0.84784   0.00000  Uiso   1.00
I805   I     0.24498   0.38865   0.65100   0.00000  Uiso   1.00
I806   I     0.08836   0.61135   0.84900   0.00000  Uiso   1.00
C807   C     0.50009   0.57991   0.74993   0.00000  Uiso   1.00
C808   C     0.49991   0.42009   0.75007   0.00000  Uiso   1.00
C809   C     0.44555   0.48286   0.55032   0.00000  Uiso   1.00
C810   C     0.55445   0.51714   0.94968   0.00000  Uiso   1.00
C811   C     0.41363   0.47092   0.52945   0.00000  Uiso   1.00
C812   C     0.58637   0.52908   0.97055   0.00000  Uiso   1.00
C813   C     0.52787   0.64548   0.70931   0.00000  Uiso   1.00
C814   C     0.47213   0.35452   0.79069   0.00000  Uiso   1.00
C815   C     0.52953   0.35528   0.70983   0.00000  Uiso   1.00
C816   C     0.47047   0.64472   0.79017   0.00000  Uiso   1.00
C817   C     0.50025   0.37595   0.75011   0.00000  Uiso   1.00
C818   C     0.49975   0.62405   0.74989   0.00000  Uiso   1.00
C819   C     0.65396   0.47458   0.72086   0.00000  Uiso   1.00
C820   C     0.34604   0.52542   0.77914   0.00000  Uiso   1.00
C821   C     0.36846   0.47454   0.72094   0.00000  Uiso   1.00
C822   C     0.63154   0.52546   0.77906   0.00000  Uiso   1.00
C823   C     0.46922   0.50016   0.83798   0.00000  Uiso   1.00
C824   C     0.53078   0.49984   0.66202   0.00000  Uiso   1.00
C825   C     0.44898   0.49850   0.88871   0.00000  Uiso   1.00
C826   C     0.55102   0.50150   0.61129   0.00000  Uiso   1.00
C827   C     0.39252   0.46983   0.96112   0.00000  Uiso   1.00
C828   C     0.60748   0.53017   0.53888   0.00000  Uiso   1.00
C829   C     0.40456   0.47776   0.91423   0.00000  Uiso   1.00
C830   C     0.59544   0.52224   0.58577   0.00000  Uiso   1.00
C831   C     0.47743   0.51491   0.91183   0.00000  Uiso   1.00
C832   C     0.52257   0.48509   0.58817   0.00000  Uiso   1.00
C833   C     0.47030   0.50009   0.95653   0.00000  Uiso   1.00
C834   C     0.52970   0.49991   0.54348   0.00000  Uiso   1.00
C835   C     0.42544   0.47957   0.98238   0.00000  Uiso   1.00
C836   C     0.57456   0.52043   0.51762   0.00000  Uiso   1.00
C837   C     0.50617   0.50474   0.97627   0.00000  Uiso   1.00
C838   C     0.49383   0.49526   0.52373   0.00000  Uiso   1.00
H839   H     0.35768   0.45506   0.98027   0.00000  Uiso   1.00
H840   H     0.64232   0.54494   0.51973   0.00000  Uiso   1.00
H841   H     0.43192   0.48169   0.58762   0.00000  Uiso   1.00
H842   H     0.56808   0.51831   0.91238   0.00000  Uiso   1.00
H843   H     0.64493   0.45426   0.69749   0.00000  Uiso   1.00
H844   H     0.35507   0.54574   0.80251   0.00000  Uiso   1.00
H845   H     0.39541   0.45406   0.69775   0.00000  Uiso   1.00
H846   H     0.60459   0.54594   0.80225   0.00000  Uiso   1.00
N847   N     0.38093   0.50001   0.75001   0.00000  Uiso   1.00
N848   N     0.61907   0.49999   0.74999   0.00000  Uiso   1.00
O849   O     0.46179   0.56108   0.75000   0.00000  Uiso   1.00
O850   O     0.53821   0.43892   0.75000   0.00000  Uiso   1.00
O851   O     0.53823   0.56107   0.75000   0.00000  Uiso   1.00
O852   O     0.46177   0.43893   0.75000   0.00000  Uiso   1.00
O853   O     0.43994   0.50001   0.81612   0.00000  Uiso   1.00
O854   O     0.56006   0.49999   0.68388   0.00000  Uiso   1.00
O855   O     0.51639   0.50000   0.81612   0.00000  Uiso   1.00
O856   O     0.48361   0.50000   0.68388   0.00000  Uiso   1.00
Zn857  Zn    0.44896   0.50001   0.75000   0.00000  Uiso   1.00
Zn858  Zn    0.55104   0.49999   0.75000   0.00000  Uiso   1.00
Br859  Br    0.35554   0.44121   0.56701   0.00000  Uiso   1.00
Br860  Br    0.64446   0.55879   0.93299   0.00000  Uiso   1.00
Br861  Br    0.48731   0.43334   0.61228   0.00000  Uiso   1.00
Br862  Br    0.51269   0.56666   0.88772   0.00000  Uiso   1.00
Br863  Br    0.64278   0.53926   0.61122   0.00000  Uiso   1.00
Br864  Br    0.35722   0.46074   0.88878   0.00000  Uiso   1.00
Br865  Br    0.55911   0.61616   0.65216   0.00000  Uiso   1.00
Br866  Br    0.44089   0.38384   0.84784   0.00000  Uiso   1.00
I867   I     0.57831   0.38865   0.65100   0.00000  Uiso   1.00
I868   I     0.42169   0.61135   0.84900   0.00000  Uiso   1.00
C869   C     0.83343   0.57991   0.74993   0.00000  Uiso   1.00
C870   C     0.83324   0.42009   0.75007   0.00000  Uiso   1.00
C871   C     0.77888   0.48286   0.55032   0.00000  Uiso   1.00
C872   C     0.88778   0.51714   0.94968   0.00000  Uiso   1.00
C873   C     0.74696   0.47092   0.52945   0.00000  Uiso   1.00
C874   C     0.91970   0.52908   0.97055   0.00000  Uiso   1.00
C875   C     0.86120   0.64548   0.70931   0.00000  Uiso   1.00
C876   C     0.80546   0.35452   0.79069   0.00000  Uiso   1.00
C877   C     0.86286   0.35528   0.70983   0.00000  Uiso   1.00
C878   C     0.80380   0.64472   0.79017   0.00000  Uiso   1.00
C879   C     0.83359   0.37595   0.75011   0.00000  Uiso   1.00
C880   C     0.83308   0.62405   0.74989   0.00000  Uiso   1.00
C881   C     0.98730   0.47458   0.72086   0.00000  Uiso   1.00
C882   C     0.67937   0.52542   0.77914   0.00000  Uiso   1.00
C883   C     0.70180   0.47454   0.72094   0.00000  Uiso   1.00
C884   C     0.96487   0.52546   0.77906   0.00000  Uiso   1.00
C885   C     0.80255   0.50016   0.83798   0.00000  Uiso   1.00
C886   C     0.86411   0.49984   0.66202   0.00000  Uiso   1.00
C887   C     0.78232   0.49850   0.88871   0.00000  Uiso   1.00
C888   C     0.88435   0.50150   0.61129   0.00000  Uiso   1.00
C889   C     0.72586   0.46983   0.96112   0.00000  Uiso   1.00
C890   C     0.94081   0.53017   0.53888   0.00000  Uiso   1.00
C891   C     0.73789   0.47776   0.91423   0.00000  Uiso   1.00
C892   C     0.92877   0.52224   0.58577   0.00000  Uiso   1.00
C893   C     0.81077   0.51491   0.91183   0.00000  Uiso   1.00
C894   C     0.85590   0.48509   0.58817   0.00000  Uiso   1.00
C895   C     0.80363   0.50009   0.95653   0.00000  Uiso   1.00
C896   C     0.86304   0.49991   0.54348   0.00000  Uiso   1.00
C897   C     0.75877   0.47957   0.98238   0.00000  Uiso   1.00
C898   C     0.90790   0.52043   0.51762   0.00000  Uiso   1.00
C899   C     0.83950   0.50474   0.97627   0.00000  Uiso   1.00
C900   C     0.82716   0.49526   0.52373   0.00000  Uiso   1.00
H901   H     0.69101   0.45506   0.98027   0.00000  Uiso   1.00
H902   H     0.97565   0.54494   0.51973   0.00000  Uiso   1.00
H903   H     0.76525   0.48169   0.58762   0.00000  Uiso   1.00
H904   H     0.90142   0.51831   0.91238   0.00000  Uiso   1.00
H905   H     0.97826   0.45426   0.69749   0.00000  Uiso   1.00
H906   H     0.68840   0.54574   0.80251   0.00000  Uiso   1.00
H907   H     0.72875   0.45406   0.69775   0.00000  Uiso   1.00
H908   H     0.93792   0.54594   0.80225   0.00000  Uiso   1.00
N909   N     0.71426   0.50001   0.75001   0.00000  Uiso   1.00
N910   N     0.95241   0.49999   0.74999   0.00000  Uiso   1.00
O911   O     0.79512   0.56108   0.75000   0.00000  Uiso   1.00
O912   O     0.87154   0.43892   0.75000   0.00000  Uiso   1.00
O913   O     0.87157   0.56107   0.75000   0.00000  Uiso   1.00
O914   O     0.79510   0.43893   0.75000   0.00000  Uiso   1.00
O915   O     0.77328   0.50001   0.81612   0.00000  Uiso   1.00
O916   O     0.89339   0.49999   0.68388   0.00000  Uiso   1.00
O917   O     0.84972   0.50000   0.81612   0.00000  Uiso   1.00
O918   O     0.81695   0.50000   0.68388   0.00000  Uiso   1.00
Zn919  Zn    0.78229   0.50001   0.75000   0.00000  Uiso   1.00
Zn920  Zn    0.88438   0.49999   0.75000   0.00000  Uiso   1.00
Br921  Br    0.68887   0.44121   0.56701   0.00000  Uiso   1.00
Br922  Br    0.97780   0.55879   0.93299   0.00000  Uiso   1.00
Br923  Br    0.82064   0.43334   0.61228   0.00000  Uiso   1.00
Br924  Br    0.84603   0.56666   0.88772   0.00000  Uiso   1.00
Br925  Br    0.97611   0.53926   0.61122   0.00000  Uiso   1.00
Br926  Br    0.69055   0.46074   0.88878   0.00000  Uiso   1.00
Br927  Br    0.89245   0.61616   0.65216   0.00000  Uiso   1.00
Br928  Br    0.77422   0.38384   0.84784   0.00000  Uiso   1.00
I929   I     0.91164   0.38865   0.65100   0.00000  Uiso   1.00
I930   I     0.75503   0.61135   0.84900   0.00000  Uiso   1.00
C931   C     0.16676   0.91324   0.74993   0.00000  Uiso   1.00
C932   C     0.16657   0.75343   0.75007   0.00000  Uiso   1.00
C933   C     0.11222   0.81620   0.55032   0.00000  Uiso   1.00
C934   C     0.22112   0.85047   0.94968   0.00000  Uiso   1.00
C935   C     0.08030   0.80425   0.52945   0.00000  Uiso   1.00
C936   C     0.25304   0.86241   0.97055   0.00000  Uiso   1.00
C937   C     0.19454   0.97881   0.70931   0.00000  Uiso   1.00
C938   C     0.13880   0.68786   0.79069   0.00000  Uiso   1.00
C939   C     0.19620   0.68861   0.70983   0.00000  Uiso   1.00
C940   C     0.13714   0.97806   0.79017   0.00000  Uiso   1.00
C941   C     0.16692   0.70929   0.75011   0.00000  Uiso   1.00
C942   C     0.16641   0.95738   0.74989   0.00000  Uiso   1.00
C943   C     0.32063   0.80792   0.72086   0.00000  Uiso   1.00
C944   C     0.01270   0.85875   0.77914   0.00000  Uiso   1.00
C945   C     0.03513   0.80788   0.72094   0.00000  Uiso   1.00
C946   C     0.29820   0.85879   0.77906   0.00000  Uiso   1.00
C947   C     0.13589   0.83349   0.83798   0.00000  Uiso   1.00
C948   C     0.19745   0.83317   0.66202   0.00000  Uiso   1.00
C949   C     0.11565   0.83183   0.88871   0.00000  Uiso   1.00
C950   C     0.21768   0.83484   0.61129   0.00000  Uiso   1.00
C951   C     0.05919   0.80316   0.96112   0.00000  Uiso   1.00
C952   C     0.27414   0.86351   0.53888   0.00000  Uiso   1.00
C953   C     0.07123   0.81110   0.91423   0.00000  Uiso   1.00
C954   C     0.26211   0.85557   0.58577   0.00000  Uiso   1.00
C955   C     0.14410   0.84825   0.91183   0.00000  Uiso   1.00
C956   C     0.18923   0.81842   0.58817   0.00000  Uiso   1.00
C957   C     0.13696   0.83342   0.95653   0.00000  Uiso   1.00
C958   C     0.19637   0.83324   0.54348   0.00000  Uiso   1.00
C959   C     0.09210   0.81290   0.98238   0.00000  Uiso   1.00
C960   C     0.24123   0.85376   0.51762   0.00000  Uiso   1.00
C961   C     0.17284   0.83808   0.97627   0.00000  Uiso   1.00
C962   C     0.16050   0.82859   0.52373   0.00000  Uiso   1.00
H963   H     0.02435   0.78840   0.98027   0.00000  Uiso   1.00
H964   H     0.30899   0.87827   0.51973   0.00000  Uiso   1.00
H965   H     0.09858   0.81503   0.58762   0.00000  Uiso   1.00
H966   H     0.23475   0.85164   0.91238   0.00000  Uiso   1.00
H967   H     0.31160   0.78760   0.69749   0.00000  Uiso   1.00
H968   H     0.02174   0.87907   0.80251   0.00000  Uiso   1.00
H969   H     0.06208   0.78739   0.69775   0.00000  Uiso   1.00
H970   H     0.27126   0.87927   0.80225   0.00000  Uiso   1.00
N971   N     0.04759   0.83334   0.75001   0.00000  Uiso   1.00
N972   N     0.28574   0.83332   0.74999   0.00000  Uiso   1.00
O973   O     0.12846   0.89442   0.75000   0.00000  Uiso   1.00
O974   O     0.20488   0.77225   0.75000   0.00000  Uiso   1.00
O975   O     0.20490   0.89441   0.75000   0.00000  Uiso   1.00
O976   O     0.12843   0.77226   0.75000   0.00000  Uiso   1.00
O977   O     0.10661   0.83334   0.81612   0.00000  Uiso   1.00
O978   O     0.22672   0.83333   0.68388   0.00000  Uiso   1.00
O979   O     0.18305   0.83333   0.81612   0.00000  Uiso   1.00
O980   O     0.15028   0.83334   0.68388   0.00000  Uiso   1.00
Zn981  Zn    0.11562   0.83334   0.75000   0.00000  Uiso   1.00
Zn982  Zn    0.21771   0.83333   0.75000   0.00000  Uiso   1.00
Br983  Br    0.02220   0.77455   0.56701   0.00000  Uiso   1.00
Br984  Br    0.31113   0.89212   0.93299   0.00000  Uiso   1.00
Br985  Br    0.15397   0.76668   0.61228   0.00000  Uiso   1.00
Br986  Br    0.17936   0.89999   0.88772   0.00000  Uiso   1.00
Br987  Br    0.30945   0.87260   0.61122   0.00000  Uiso   1.00
Br988  Br    0.02389   0.79407   0.88878   0.00000  Uiso   1.00
Br989  Br    0.22578   0.94950   0.65216   0.00000  Uiso   1.00
Br990  Br    0.10755   0.71717   0.84784   0.00000  Uiso   1.00
I991   I     0.24498   0.72198   0.65100   0.00000  Uiso   1.00
I992   I     0.08836   0.94468   0.84900   0.00000  Uiso   1.00
C993   C     0.50009   0.91324   0.74993   0.00000  Uiso   1.00
C994   C     0.49991   0.75343   0.75007   0.00000  Uiso   1.00
C995   C     0.44555   0.81620   0.55032   0.00000  Uiso   1.00
C996   C     0.55445   0.85047   0.94968   0.00000  Uiso   1.00
C997   C     0.41363   0.80425   0.52945   0.00000  Uiso   1.00
C998   C     0.58637   0.86241   0.97055   0.00000  Uiso   1.00
C999   C     0.52787   0.97881   0.70931   0.00000  Uiso   1.00
C1000  C     0.47213   0.68786   0.79069   0.00000  Uiso   1.00
C1001  C     0.52953   0.68861   0.70983   0.00000  Uiso   1.00
C1002  C     0.47047   0.97806   0.79017   0.00000  Uiso   1.00
C1003  C     0.50025   0.70929   0.75011   0.00000  Uiso   1.00
C1004  C     0.49975   0.95738   0.74989   0.00000  Uiso   1.00
C1005  C     0.65396   0.80792   0.72086   0.00000  Uiso   1.00
C1006  C     0.34604   0.85875   0.77914   0.00000  Uiso   1.00
C1007  C     0.36846   0.80788   0.72094   0.00000  Uiso   1.00
C1008  C     0.63154   0.85879   0.77906   0.00000  Uiso   1.00
C1009  C     0.46922   0.83349   0.83798   0.00000  Uiso   1.00
C1010  C     0.53078   0.83317   0.66202   0.00000  Uiso   1.00
C1011  C     0.44898   0.83183   0.88871   0.00000  Uiso   1.00
C1012  C     0.55102   0.83484   0.61129   0.00000  Uiso   1.00
C1013  C     0.39252   0.80316   0.96112   0.00000  Uiso   1.00
C1014  C     0.60748   0.86351   0.53888   0.00000  Uiso   1.00
C1015  C     0.40456   0.81110   0.91423   0.00000  Uiso   1.00
C1016  C     0.59544   0.85557   0.58577   0.00000  Uiso   1.00
C1017  C     0.47743   0.84825   0.91183   0.00000  Uiso   1.00
C1018  C     0.52257   0.81842   0.58817   0.00000  Uiso   1.00
C1019  C     0.47030   0.83342   0.95653   0.00000  Uiso   1.00
C1020  C     0.52970   0.83324   0.54348   0.00000  Uiso   1.00
C1021  C     0.42544   0.81290   0.98238   0.00000  Uiso   1.00
C1022  C     0.57456   0.85376   0.51762   0.00000  Uiso   1.00
C1023  C     0.50617   0.83808   0.97627   0.00000  Uiso   1.00
C1024  C     0.49383   0.82859   0.52373   0.00000  Uiso   1.00
H1025  H     0.35768   0.78840   0.98027   0.00000  Uiso   1.00
H1026  H     0.64232   0.87827   0.51973   0.00000  Uiso   1.00
H1027  H     0.43192   0.81503   0.58762   0.00000  Uiso   1.00
H1028  H     0.56808   0.85164   0.91238   0.00000  Uiso   1.00
H1029  H     0.64493   0.78760   0.69749   0.00000  Uiso   1.00
H1030  H     0.35507   0.87907   0.80251   0.00000  Uiso   1.00
H1031  H     0.39541   0.78739   0.69775   0.00000  Uiso   1.00
H1032  H     0.60459   0.87927   0.80225   0.00000  Uiso   1.00
N1033  N     0.38093   0.83334   0.75001   0.00000  Uiso   1.00
N1034  N     0.61907   0.83332   0.74999   0.00000  Uiso   1.00
O1035  O     0.46179   0.89442   0.75000   0.00000  Uiso   1.00
O1036  O     0.53821   0.77225   0.75000   0.00000  Uiso   1.00
O1037  O     0.53823   0.89441   0.75000   0.00000  Uiso   1.00
O1038  O     0.46177   0.77226   0.75000   0.00000  Uiso   1.00
O1039  O     0.43994   0.83334   0.81612   0.00000  Uiso   1.00
O1040  O     0.56006   0.83333   0.68388   0.00000  Uiso   1.00
O1041  O     0.51639   0.83333   0.81612   0.00000  Uiso   1.00
O1042  O     0.48361   0.83334   0.68388   0.00000  Uiso   1.00
Zn1043 Zn    0.44896   0.83334   0.75000   0.00000  Uiso   1.00
Zn1044 Zn    0.55104   0.83333   0.75000   0.00000  Uiso   1.00
Br1045 Br    0.35554   0.77455   0.56701   0.00000  Uiso   1.00
Br1046 Br    0.64446   0.89212   0.93299   0.00000  Uiso   1.00
Br1047 Br    0.48731   0.76668   0.61228   0.00000  Uiso   1.00
Br1048 Br    0.51269   0.89999   0.88772   0.00000  Uiso   1.00
Br1049 Br    0.64278   0.87260   0.61122   0.00000  Uiso   1.00
Br1050 Br    0.35722   0.79407   0.88878   0.00000  Uiso   1.00
Br1051 Br    0.55911   0.94950   0.65216   0.00000  Uiso   1.00
Br1052 Br    0.44089   0.71717   0.84784   0.00000  Uiso   1.00
I1053  I     0.57831   0.72198   0.65100   0.00000  Uiso   1.00
I1054  I     0.42169   0.94468   0.84900   0.00000  Uiso   1.00
C1055  C     0.83343   0.91324   0.74993   0.00000  Uiso   1.00
C1056  C     0.83324   0.75343   0.75007   0.00000  Uiso   1.00
C1057  C     0.77888   0.81620   0.55032   0.00000  Uiso   1.00
C1058  C     0.88778   0.85047   0.94968   0.00000  Uiso   1.00
C1059  C     0.74696   0.80425   0.52945   0.00000  Uiso   1.00
C1060  C     0.91970   0.86241   0.97055   0.00000  Uiso   1.00
C1061  C     0.86120   0.97881   0.70931   0.00000  Uiso   1.00
C1062  C     0.80546   0.68786   0.79069   0.00000  Uiso   1.00
C1063  C     0.86286   0.68861   0.70983   0.00000  Uiso   1.00
C1064  C     0.80380   0.97806   0.79017   0.00000  Uiso   1.00
C1065  C     0.83359   0.70929   0.75011   0.00000  Uiso   1.00
C1066  C     0.83308   0.95738   0.74989   0.00000  Uiso   1.00
C1067  C     0.98730   0.80792   0.72086   0.00000  Uiso   1.00
C1068  C     0.67937   0.85875   0.77914   0.00000  Uiso   1.00
C1069  C     0.70180   0.80788   0.72094   0.00000  Uiso   1.00
C1070  C     0.96487   0.85879   0.77906   0.00000  Uiso   1.00
C1071  C     0.80255   0.83349   0.83798   0.00000  Uiso   1.00
C1072  C     0.86411   0.83317   0.66202   0.00000  Uiso   1.00
C1073  C     0.78232   0.83183   0.88871   0.00000  Uiso   1.00
C1074  C     0.88435   0.83484   0.61129   0.00000  Uiso   1.00
C1075  C     0.72586   0.80316   0.96112   0.00000  Uiso   1.00
C1076  C     0.94081   0.86351   0.53888   0.00000  Uiso   1.00
C1077  C     0.73789   0.81110   0.91423   0.00000  Uiso   1.00
C1078  C     0.92877   0.85557   0.58577   0.00000  Uiso   1.00
C1079  C     0.81077   0.84825   0.91183   0.00000  Uiso   1.00
C1080  C     0.85590   0.81842   0.58817   0.00000  Uiso   1.00
C1081  C     0.80363   0.83342   0.95653   0.00000  Uiso   1.00
C1082  C     0.86304   0.83324   0.54348   0.00000  Uiso   1.00
C1083  C     0.75877   0.81290   0.98238   0.00000  Uiso   1.00
C1084  C     0.90790   0.85376   0.51762   0.00000  Uiso   1.00
C1085  C     0.83950   0.83808   0.97627   0.00000  Uiso   1.00
C1086  C     0.82716   0.82859   0.52373   0.00000  Uiso   1.00
H1087  H     0.69101   0.78840   0.98027   0.00000  Uiso   1.00
H1088  H     0.97565   0.87827   0.51973   0.00000  Uiso   1.00
H1089  H     0.76525   0.81503   0.58762   0.00000  Uiso   1.00
H1090  H     0.90142   0.85164   0.91238   0.00000  Uiso   1.00
H1091  H     0.97826   0.78760   0.69749   0.00000  Uiso   1.00
H1092  H     0.68840   0.87907   0.80251   0.00000  Uiso   1.00
H1093  H     0.72875   0.78739   0.69775   0.00000  Uiso   1.00
H1094  H     0.93792   0.87927   0.80225   0.00000  Uiso   1.00
N1095  N     0.71426   0.83334   0.75001   0.00000  Uiso   1.00
N1096  N     0.95241   0.83332   0.74999   0.00000  Uiso   1.00
O1097  O     0.79512   0.89442   0.75000   0.00000  Uiso   1.00
O1098  O     0.87154   0.77225   0.75000   0.00000  Uiso   1.00
O1099  O     0.87157   0.89441   0.75000   0.00000  Uiso   1.00
O1100  O     0.79510   0.77226   0.75000   0.00000  Uiso   1.00
O1101  O     0.77328   0.83334   0.81612   0.00000  Uiso   1.00
O1102  O     0.89339   0.83333   0.68388   0.00000  Uiso   1.00
O1103  O     0.84972   0.83333   0.81612   0.00000  Uiso   1.00
O1104  O     0.81695   0.83334   0.68388   0.00000  Uiso   1.00
Zn1105 Zn    0.78229   0.83334   0.75000   0.00000  Uiso   1.00
Zn1106 Zn    0.88438   0.83333   0.75000   0.00000  Uiso   1.00
Br1107 Br    0.68887   0.77455   0.56701   0.00000  Uiso   1.00
Br1108 Br    0.97780   0.89212   0.93299   0.00000  Uiso   1.00
Br1109 Br    0.82064   0.76668   0.61228   0.00000  Uiso   1.00
Br1110 Br    0.84603   0.89999   0.88772   0.00000  Uiso   1.00
Br1111 Br    0.97611   0.87260   0.61122   0.00000  Uiso   1.00
Br1112 Br    0.69055   0.79407   0.88878   0.00000  Uiso   1.00
Br1113 Br    0.89245   0.94950   0.65216   0.00000  Uiso   1.00
Br1114 Br    0.77422   0.71717   0.84784   0.00000  Uiso   1.00
I1115  I     0.91164   0.72198   0.65100   0.00000  Uiso   1.00
I1116  I     0.75503   0.94468   0.84900   0.00000  Uiso   1.00
loop_
_geom_bond_atom_site_label_1
_geom_bond_atom_site_label_2
_geom_bond_distance
_geom_bond_site_symmetry_2
_ccdc_geom_bond_type
C1     O45     1.289   .     A
C1     C12     1.416   .     S
C1     O43     1.278   .     A
C2     C11     1.416   .     S
C2     O44     1.278   .     A
C2     O46     1.289   .     A
C3     H35     1.077   .     S
C3     C32     1.408   .     A
C3     C5      1.386   .     A
C4     H36     1.077   .     S
C4     C31     1.408   .     A
C4     C6      1.386   .     A
C5     Br53    1.918   .     S
C5     C587    1.400   1_554 S
C6     Br54    1.918   .     S
C6     C588    1.400   .     S
C7     Br59    1.920   .     S
C7     C12     1.398   .     A
C7     C195    1.384   .     S
C8     Br60    1.920   .     S
C8     C11     1.398   .     A
C8     C382    1.384   1_545 S
C9     C11     1.400   .     A
C9     I61     2.135   .     S
C9     C379    1.384   1_545 S
C10    I62     2.135   .     S
C10    C12     1.400   .     A
C10    C194    1.384   .     S
C13    N42     1.367   .     A
C13    H37     1.082   .     S
C13    C77     1.418   .     S
C14    N41     1.367   .     A
C14    H38     1.082   .     S
C14    C140    1.418   1_455 S
C15    H39     1.081   .     S
C15    N41     1.368   .     A
C15    C137    1.418   1_455 S
C16    N42     1.368   .     A
C16    H40     1.081   .     S
C16    C76     1.418   .     S
C17    C19     1.464   .     S
C17    O49     1.303   .     A
C17    O47     1.290   .     A
C18    C20     1.464   .     S
C18    O50     1.303   .     A
C18    O48     1.290   .     A
C19    C23     1.413   .     A
C19    C25     1.399   .     A
C20    C26     1.399   .     A
C20    C24     1.413   .     A
C21    C29     1.403   .     A
C21    C23     1.390   .     A
C21    H33     1.081   .     S
C22    H34     1.081   .     S
C22    C24     1.390   .     A
C22    C30     1.403   .     A
C23    Br58    1.928   .     S
C24    Br57    1.928   .     S
C25    C27     1.409   .     A
C25    Br56    1.943   .     S
C26    C28     1.409   .     A
C26    Br55    1.943   .     S
C27    C29     1.421   .     A
C27    C31     1.422   .     A
C28    C30     1.421   .     A
C28    C32     1.422   .     A
C29    C563    1.400   .     S
C30    C564    1.400   1_554 S
C31    C590    1.415   .     S
C32    C589    1.415   1_554 S
N41    Zn51    2.016   .     S
N42    Zn52    2.016   .     S
O43    Zn51    1.991   .     S
O44    Zn52    1.991   .     S
O45    Zn52    2.000   .     S
O46    Zn51    2.000   .     S
O47    Zn51    1.975   .     S
O48    Zn52    1.975   .     S
O49    Zn52    1.924   .     S
O50    Zn51    1.924   .     S
C63    O107    1.289   .     A
C63    C74     1.416   .     S
C63    O105    1.278   .     A
C64    C73     1.416   .     S
C64    O106    1.278   .     A
C64    O108    1.289   .     A
C65    H97     1.077   .     S
C65    C94     1.408   .     A
C65    C67     1.386   .     A
C66    H98     1.077   .     S
C66    C93     1.408   .     A
C66    C68     1.386   .     A
C67    Br115   1.918   .     S
C67    C649    1.400   1_554 S
C68    Br116   1.918   .     S
C68    C650    1.400   .     S
C69    Br121   1.920   .     S
C69    C74     1.398   .     A
C69    C257    1.384   .     S
C70    Br122   1.920   .     S
C70    C73     1.398   .     A
C70    C444    1.384   1_545 S
C71    C73     1.400   .     A
C71    I123    2.135   .     S
C71    C441    1.384   1_545 S
C72    I124    2.135   .     S
C72    C74     1.400   .     A
C72    C256    1.384   .     S
C75    N104    1.367   .     A
C75    H99     1.082   .     S
C75    C139    1.418   .     S
C76    N103    1.367   .     A
C76    H100    1.082   .     S
C77    H101    1.081   .     S
C77    N103    1.368   .     A
C78    N104    1.368   .     A
C78    H102    1.081   .     S
C78    C138    1.418   .     S
C79    C81     1.464   .     S
C79    O111    1.303   .     A
C79    O109    1.290   .     A
C80    C82     1.464   .     S
C80    O112    1.303   .     A
C80    O110    1.290   .     A
C81    C85     1.413   .     A
C81    C87     1.399   .     A
C82    C88     1.399   .     A
C82    C86     1.413   .     A
C83    C91     1.403   .     A
C83    C85     1.390   .     A
C83    H95     1.081   .     S
C84    H96     1.081   .     S
C84    C86     1.390   .     A
C84    C92     1.403   .     A
C85    Br120   1.928   .     S
C86    Br119   1.928   .     S
C87    C89     1.409   .     A
C87    Br118   1.943   .     S
C88    C90     1.409   .     A
C88    Br117   1.943   .     S
C89    C91     1.421   .     A
C89    C93     1.422   .     A
C90    C92     1.421   .     A
C90    C94     1.422   .     A
C91    C625    1.400   .     S
C92    C626    1.400   1_554 S
C93    C652    1.415   .     S
C94    C651    1.415   1_554 S
N103   Zn113   2.016   .     S
N104   Zn114   2.016   .     S
O105   Zn113   1.991   .     S
O106   Zn114   1.991   .     S
O107   Zn114   2.000   .     S
O108   Zn113   2.000   .     S
O109   Zn113   1.975   .     S
O110   Zn114   1.975   .     S
O111   Zn114   1.924   .     S
O112   Zn113   1.924   .     S
C125   O169    1.289   .     A
C125   C136    1.416   .     S
C125   O167    1.278   .     A
C126   C135    1.416   .     S
C126   O168    1.278   .     A
C126   O170    1.289   .     A
C127   H159    1.077   .     S
C127   C156    1.408   .     A
C127   C129    1.386   .     A
C128   H160    1.077   .     S
C128   C155    1.408   .     A
C128   C130    1.386   .     A
C129   Br177   1.918   .     S
C129   C711    1.400   1_554 S
C130   Br178   1.918   .     S
C130   C712    1.400   .     S
C131   Br183   1.920   .     S
C131   C136    1.398   .     A
C131   C319    1.384   .     S
C132   Br184   1.920   .     S
C132   C135    1.398   .     A
C132   C506    1.384   1_545 S
C133   C135    1.400   .     A
C133   I185    2.135   .     S
C133   C503    1.384   1_545 S
C134   I186    2.135   .     S
C134   C136    1.400   .     A
C134   C318    1.384   .     S
C137   N166    1.367   .     A
C137   H161    1.082   .     S
C137   C15     1.418   1_655 S
C138   N165    1.367   .     A
C138   H162    1.082   .     S
C139   H163    1.081   .     S
C139   N165    1.368   .     A
C140   N166    1.368   .     A
C140   H164    1.081   .     S
C140   C14     1.418   1_655 S
C141   C143    1.464   .     S
C141   O173    1.303   .     A
C141   O171    1.290   .     A
C142   C144    1.464   .     S
C142   O174    1.303   .     A
C142   O172    1.290   .     A
C143   C147    1.413   .     A
C143   C149    1.399   .     A
C144   C150    1.399   .     A
C144   C148    1.413   .     A
C145   C153    1.403   .     A
C145   C147    1.390   .     A
C145   H157    1.081   .     S
C146   H158    1.081   .     S
C146   C148    1.390   .     A
C146   C154    1.403   .     A
C147   Br182   1.928   .     S
C148   Br181   1.928   .     S
C149   C151    1.409   .     A
C149   Br180   1.943   .     S
C150   C152    1.409   .     A
C150   Br179   1.943   .     S
C151   C153    1.421   .     A
C151   C155    1.422   .     A
C152   C154    1.421   .     A
C152   C156    1.422   .     A
C153   C687    1.400   .     S
C154   C688    1.400   1_554 S
C155   C714    1.415   .     S
C156   C713    1.415   1_554 S
N165   Zn175   2.016   .     S
N166   Zn176   2.016   .     S
O167   Zn175   1.991   .     S
O168   Zn176   1.991   .     S
O169   Zn176   2.000   .     S
O170   Zn175   2.000   .     S
O171   Zn175   1.975   .     S
O172   Zn176   1.975   .     S
O173   Zn176   1.924   .     S
O174   Zn175   1.924   .     S
C187   O231    1.289   .     A
C187   C198    1.416   .     S
C187   O229    1.278   .     A
C188   C197    1.416   .     S
C188   O230    1.278   .     A
C188   O232    1.289   .     A
C189   H221    1.077   .     S
C189   C218    1.408   .     A
C189   C191    1.386   .     A
C190   H222    1.077   .     S
C190   C217    1.408   .     A
C190   C192    1.386   .     A
C191   Br239   1.918   .     S
C191   C773    1.400   1_554 S
C192   Br240   1.918   .     S
C192   C774    1.400   .     S
C193   Br245   1.920   .     S
C193   C198    1.398   .     A
C193   C381    1.384   .     S
C194   Br246   1.920   .     S
C194   C197    1.398   .     A
C195   C197    1.400   .     A
C195   I247    2.135   .     S
C196   I248    2.135   .     S
C196   C198    1.400   .     A
C196   C380    1.384   .     S
C199   N228    1.367   .     A
C199   H223    1.082   .     S
C199   C263    1.418   .     S
C200   N227    1.367   .     A
C200   H224    1.082   .     S
C200   C326    1.418   1_455 S
C201   H225    1.081   .     S
C201   N227    1.368   .     A
C201   C323    1.418   1_455 S
C202   N228    1.368   .     A
C202   H226    1.081   .     S
C202   C262    1.418   .     S
C203   C205    1.464   .     S
C203   O235    1.303   .     A
C203   O233    1.290   .     A
C204   C206    1.464   .     S
C204   O236    1.303   .     A
C204   O234    1.290   .     A
C205   C209    1.413   .     A
C205   C211    1.399   .     A
C206   C212    1.399   .     A
C206   C210    1.413   .     A
C207   C215    1.403   .     A
C207   C209    1.390   .     A
C207   H219    1.081   .     S
C208   H220    1.081   .     S
C208   C210    1.390   .     A
C208   C216    1.403   .     A
C209   Br244   1.928   .     S
C210   Br243   1.928   .     S
C211   C213    1.409   .     A
C211   Br242   1.943   .     S
C212   C214    1.409   .     A
C212   Br241   1.943   .     S
C213   C215    1.421   .     A
C213   C217    1.422   .     A
C214   C216    1.421   .     A
C214   C218    1.422   .     A
C215   C749    1.400   .     S
C216   C750    1.400   1_554 S
C217   C776    1.415   .     S
C218   C775    1.415   1_554 S
N227   Zn237   2.016   .     S
N228   Zn238   2.016   .     S
O229   Zn237   1.991   .     S
O230   Zn238   1.991   .     S
O231   Zn238   2.000   .     S
O232   Zn237   2.000   .     S
O233   Zn237   1.975   .     S
O234   Zn238   1.975   .     S
O235   Zn238   1.924   .     S
O236   Zn237   1.924   .     S
C249   O293    1.289   .     A
C249   C260    1.416   .     S
C249   O291    1.278   .     A
C250   C259    1.416   .     S
C250   O292    1.278   .     A
C250   O294    1.289   .     A
C251   H283    1.077   .     S
C251   C280    1.408   .     A
C251   C253    1.386   .     A
C252   H284    1.077   .     S
C252   C279    1.408   .     A
C252   C254    1.386   .     A
C253   Br301   1.918   .     S
C253   C835    1.400   1_554 S
C254   Br302   1.918   .     S
C254   C836    1.400   .     S
C255   Br307   1.920   .     S
C255   C260    1.398   .     A
C255   C443    1.384   .     S
C256   Br308   1.920   .     S
C256   C259    1.398   .     A
C257   C259    1.400   .     A
C257   I309    2.135   .     S
C258   I310    2.135   .     S
C258   C260    1.400   .     A
C258   C442    1.384   .     S
C261   N290    1.367   .     A
C261   H285    1.082   .     S
C261   C325    1.418   .     S
C262   N289    1.367   .     A
C262   H286    1.082   .     S
C263   H287    1.081   .     S
C263   N289    1.368   .     A
C264   N290    1.368   .     A
C264   H288    1.081   .     S
C264   C324    1.418   .     S
C265   C267    1.464   .     S
C265   O297    1.303   .     A
C265   O295    1.290   .     A
C266   C268    1.464   .     S
C266   O298    1.303   .     A
C266   O296    1.290   .     A
C267   C271    1.413   .     A
C267   C273    1.399   .     A
C268   C274    1.399   .     A
C268   C272    1.413   .     A
C269   C277    1.403   .     A
C269   C271    1.390   .     A
C269   H281    1.081   .     S
C270   H282    1.081   .     S
C270   C272    1.390   .     A
C270   C278    1.403   .     A
C271   Br306   1.928   .     S
C272   Br305   1.928   .     S
C273   C275    1.409   .     A
C273   Br304   1.943   .     S
C274   C276    1.409   .     A
C274   Br303   1.943   .     S
C275   C277    1.421   .     A
C275   C279    1.422   .     A
C276   C278    1.421   .     A
C276   C280    1.422   .     A
C277   C811    1.400   .     S
C278   C812    1.400   1_554 S
C279   C838    1.415   .     S
C280   C837    1.415   1_554 S
N289   Zn299   2.016   .     S
N290   Zn300   2.016   .     S
O291   Zn299   1.991   .     S
O292   Zn300   1.991   .     S
O293   Zn300   2.000   .     S
O294   Zn299   2.000   .     S
O295   Zn299   1.975   .     S
O296   Zn300   1.975   .     S
O297   Zn300   1.924   .     S
O298   Zn299   1.924   .     S
C311   O355    1.289   .     A
C311   C322    1.416   .     S
C311   O353    1.278   .     A
C312   C321    1.416   .     S
C312   O354    1.278   .     A
C312   O356    1.289   .     A
C313   H345    1.077   .     S
C313   C342    1.408   .     A
C313   C315    1.386   .     A
C314   H346    1.077   .     S
C314   C341    1.408   .     A
C314   C316    1.386   .     A
C315   Br363   1.918   .     S
C315   C897    1.400   1_554 S
C316   Br364   1.918   .     S
C316   C898    1.400   .     S
C317   Br369   1.920   .     S
C317   C322    1.398   .     A
C317   C505    1.384   .     S
C318   Br370   1.920   .     S
C318   C321    1.398   .     A
C319   C321    1.400   .     A
C319   I371    2.135   .     S
C320   I372    2.135   .     S
C320   C322    1.400   .     A
C320   C504    1.384   .     S
C323   N352    1.367   .     A
C323   H347    1.082   .     S
C323   C201    1.418   1_655 S
C324   N351    1.367   .     A
C324   H348    1.082   .     S
C325   H349    1.081   .     S
C325   N351    1.368   .     A
C326   N352    1.368   .     A
C326   H350    1.081   .     S
C326   C200    1.418   1_655 S
C327   C329    1.464   .     S
C327   O359    1.303   .     A
C327   O357    1.290   .     A
C328   C330    1.464   .     S
C328   O360    1.303   .     A
C328   O358    1.290   .     A
C329   C333    1.413   .     A
C329   C335    1.399   .     A
C330   C336    1.399   .     A
C330   C334    1.413   .     A
C331   C339    1.403   .     A
C331   C333    1.390   .     A
C331   H343    1.081   .     S
C332   H344    1.081   .     S
C332   C334    1.390   .     A
C332   C340    1.403   .     A
C333   Br368   1.928   .     S
C334   Br367   1.928   .     S
C335   C337    1.409   .     A
C335   Br366   1.943   .     S
C336   C338    1.409   .     A
C336   Br365   1.943   .     S
C337   C339    1.421   .     A
C337   C341    1.422   .     A
C338   C340    1.421   .     A
C338   C342    1.422   .     A
C339   C873    1.400   .     S
C340   C874    1.400   1_554 S
C341   C900    1.415   .     S
C342   C899    1.415   1_554 S
N351   Zn361   2.016   .     S
N352   Zn362   2.016   .     S
O353   Zn361   1.991   .     S
O354   Zn362   1.991   .     S
O355   Zn362   2.000   .     S
O356   Zn361   2.000   .     S
O357   Zn361   1.975   .     S
O358   Zn362   1.975   .     S
O359   Zn362   1.924   .     S
O360   Zn361   1.924   .     S
C373   O417    1.289   .     A
C373   C384    1.416   .     S
C373   O415    1.278   .     A
C374   C383    1.416   .     S
C374   O416    1.278   .     A
C374   O418    1.289   .     A
C375   H407    1.077   .     S
C375   C404    1.408   .     A
C375   C377    1.386   .     A
C376   H408    1.077   .     S
C376   C403    1.408   .     A
C376   C378    1.386   .     A
C377   Br425   1.918   .     S
C377   C959    1.400   1_554 S
C378   Br426   1.918   .     S
C378   C960    1.400   .     S
C379   Br431   1.920   .     S
C379   C384    1.398   .     A
C379   C9      1.384   1_565 S
C380   Br432   1.920   .     S
C380   C383    1.398   .     A
C381   C383    1.400   .     A
C381   I433    2.135   .     S
C382   I434    2.135   .     S
C382   C384    1.400   .     A
C382   C8      1.384   1_565 S
C385   N414    1.367   .     A
C385   H409    1.082   .     S
C385   C449    1.418   .     S
C386   N413    1.367   .     A
C386   H410    1.082   .     S
C386   C512    1.418   1_455 S
C387   H411    1.081   .     S
C387   N413    1.368   .     A
C387   C509    1.418   1_455 S
C388   N414    1.368   .     A
C388   H412    1.081   .     S
C388   C448    1.418   .     S
C389   C391    1.464   .     S
C389   O421    1.303   .     A
C389   O419    1.290   .     A
C390   C392    1.464   .     S
C390   O422    1.303   .     A
C390   O420    1.290   .     A
C391   C395    1.413   .     A
C391   C397    1.399   .     A
C392   C398    1.399   .     A
C392   C396    1.413   .     A
C393   C401    1.403   .     A
C393   C395    1.390   .     A
C393   H405    1.081   .     S
C394   H406    1.081   .     S
C394   C396    1.390   .     A
C394   C402    1.403   .     A
C395   Br430   1.928   .     S
C396   Br429   1.928   .     S
C397   C399    1.409   .     A
C397   Br428   1.943   .     S
C398   C400    1.409   .     A
C398   Br427   1.943   .     S
C399   C401    1.421   .     A
C399   C403    1.422   .     A
C400   C402    1.421   .     A
C400   C404    1.422   .     A
C401   C935    1.400   .     S
C402   C936    1.400   1_554 S
C403   C962    1.415   .     S
C404   C961    1.415   1_554 S
N413   Zn423   2.016   .     S
N414   Zn424   2.016   .     S
O415   Zn423   1.991   .     S
O416   Zn424   1.991   .     S
O417   Zn424   2.000   .     S
O418   Zn423   2.000   .     S
O419   Zn423   1.975   .     S
O420   Zn424   1.975   .     S
O421   Zn424   1.924   .     S
O422   Zn423   1.924   .     S
C435   O479    1.289   .     A
C435   C446    1.416   .     S
C435   O477    1.278   .     A
C436   C445    1.416   .     S
C436   O478    1.278   .     A
C436   O480    1.289   .     A
C437   H469    1.077   .     S
C437   C466    1.408   .     A
C437   C439    1.386   .     A
C438   H470    1.077   .     S
C438   C465    1.408   .     A
C438   C440    1.386   .     A
C439   Br487   1.918   .     S
C439   C1021   1.400   1_554 S
C440   Br488   1.918   .     S
C440   C1022   1.400   .     S
C441   Br493   1.920   .     S
C441   C446    1.398   .     A
C441   C71     1.384   1_565 S
C442   Br494   1.920   .     S
C442   C445    1.398   .     A
C443   C445    1.400   .     A
C443   I495    2.135   .     S
C444   I496    2.135   .     S
C444   C446    1.400   .     A
C444   C70     1.384   1_565 S
C447   N476    1.367   .     A
C447   H471    1.082   .     S
C447   C511    1.418   .     S
C448   N475    1.367   .     A
C448   H472    1.082   .     S
C449   H473    1.081   .     S
C449   N475    1.368   .     A
C450   N476    1.368   .     A
C450   H474    1.081   .     S
C450   C510    1.418   .     S
C451   C453    1.464   .     S
C451   O483    1.303   .     A
C451   O481    1.290   .     A
C452   C454    1.464   .     S
C452   O484    1.303   .     A
C452   O482    1.290   .     A
C453   C457    1.413   .     A
C453   C459    1.399   .     A
C454   C460    1.399   .     A
C454   C458    1.413   .     A
C455   C463    1.403   .     A
C455   C457    1.390   .     A
C455   H467    1.081   .     S
C456   H468    1.081   .     S
C456   C458    1.390   .     A
C456   C464    1.403   .     A
C457   Br492   1.928   .     S
C458   Br491   1.928   .     S
C459   C461    1.409   .     A
C459   Br490   1.943   .     S
C460   C462    1.409   .     A
C460   Br489   1.943   .     S
C461   C463    1.421   .     A
C461   C465    1.422   .     A
C462   C464    1.421   .     A
C462   C466    1.422   .     A
C463   C997    1.400   .     S
C464   C998    1.400   1_554 S
C465   C1024   1.415   .     S
C466   C1023   1.415   1_554 S
N475   Zn485   2.016   .     S
N476   Zn486   2.016   .     S
O477   Zn485   1.991   .     S
O478   Zn486   1.991   .     S
O479   Zn486   2.000   .     S
O480   Zn485   2.000   .     S
O481   Zn485   1.975   .     S
O482   Zn486   1.975   .     S
O483   Zn486   1.924   .     S
O484   Zn485   1.924   .     S
C497   O541    1.289   .     A
C497   C508    1.416   .     S
C497   O539    1.278   .     A
C498   C507    1.416   .     S
C498   O540    1.278   .     A
C498   O542    1.289   .     A
C499   H531    1.077   .     S
C499   C528    1.408   .     A
C499   C501    1.386   .     A
C500   H532    1.077   .     S
C500   C527    1.408   .     A
C500   C502    1.386   .     A
C501   Br549   1.918   .     S
C501   C1083   1.400   1_554 S
C502   Br550   1.918   .     S
C502   C1084   1.400   .     S
C503   Br555   1.920   .     S
C503   C508    1.398   .     A
C503   C133    1.384   1_565 S
C504   Br556   1.920   .     S
C504   C507    1.398   .     A
C505   C507    1.400   .     A
C505   I557    2.135   .     S
C506   I558    2.135   .     S
C506   C508    1.400   .     A
C506   C132    1.384   1_565 S
C509   N538    1.367   .     A
C509   H533    1.082   .     S
C509   C387    1.418   1_655 S
C510   N537    1.367   .     A
C510   H534    1.082   .     S
C511   H535    1.081   .     S
C511   N537    1.368   .     A
C512   N538    1.368   .     A
C512   H536    1.081   .     S
C512   C386    1.418   1_655 S
C513   C515    1.464   .     S
C513   O545    1.303   .     A
C513   O543    1.290   .     A
C514   C516    1.464   .     S
C514   O546    1.303   .     A
C514   O544    1.290   .     A
C515   C519    1.413   .     A
C515   C521    1.399   .     A
C516   C522    1.399   .     A
C516   C520    1.413   .     A
C517   C525    1.403   .     A
C517   C519    1.390   .     A
C517   H529    1.081   .     S
C518   H530    1.081   .     S
C518   C520    1.390   .     A
C518   C526    1.403   .     A
C519   Br554   1.928   .     S
C520   Br553   1.928   .     S
C521   C523    1.409   .     A
C521   Br552   1.943   .     S
C522   C524    1.409   .     A
C522   Br551   1.943   .     S
C523   C525    1.421   .     A
C523   C527    1.422   .     A
C524   C526    1.421   .     A
C524   C528    1.422   .     A
C525   C1059   1.400   .     S
C526   C1060   1.400   1_554 S
C527   C1086   1.415   .     S
C528   C1085   1.415   1_554 S
N537   Zn547   2.016   .     S
N538   Zn548   2.016   .     S
O539   Zn547   1.991   .     S
O540   Zn548   1.991   .     S
O541   Zn548   2.000   .     S
O542   Zn547   2.000   .     S
O543   Zn547   1.975   .     S
O544   Zn548   1.975   .     S
O545   Zn548   1.924   .     S
O546   Zn547   1.924   .     S
C559   O603    1.289   .     A
C559   C570    1.416   .     S
C559   O601    1.278   .     A
C560   C569    1.416   .     S
C560   O602    1.278   .     A
C560   O604    1.289   .     A
C561   H593    1.077   .     S
C561   C590    1.408   .     A
C561   C563    1.386   .     A
C562   H594    1.077   .     S
C562   C589    1.408   .     A
C562   C564    1.386   .     A
C563   Br611   1.918   .     S
C564   Br612   1.918   .     S
C564   C30     1.400   1_556 S
C565   Br617   1.920   .     S
C565   C570    1.398   .     A
C565   C753    1.384   .     S
C566   Br618   1.920   .     S
C566   C569    1.398   .     A
C566   C940    1.384   1_545 S
C567   C569    1.400   .     A
C567   I619    2.135   .     S
C567   C937    1.384   1_545 S
C568   I620    2.135   .     S
C568   C570    1.400   .     A
C568   C752    1.384   .     S
C571   N600    1.367   .     A
C571   H595    1.082   .     S
C571   C635    1.418   .     S
C572   N599    1.367   .     A
C572   H596    1.082   .     S
C572   C698    1.418   1_455 S
C573   H597    1.081   .     S
C573   N599    1.368   .     A
C573   C695    1.418   1_455 S
C574   N600    1.368   .     A
C574   H598    1.081   .     S
C574   C634    1.418   .     S
C575   C577    1.464   .     S
C575   O607    1.303   .     A
C575   O605    1.290   .     A
C576   C578    1.464   .     S
C576   O608    1.303   .     A
C576   O606    1.290   .     A
C577   C581    1.413   .     A
C577   C583    1.399   .     A
C578   C584    1.399   .     A
C578   C582    1.413   .     A
C579   C587    1.403   .     A
C579   C581    1.390   .     A
C579   H591    1.081   .     S
C580   H592    1.081   .     S
C580   C582    1.390   .     A
C580   C588    1.403   .     A
C581   Br616   1.928   .     S
C582   Br615   1.928   .     S
C583   C585    1.409   .     A
C583   Br614   1.943   .     S
C584   C586    1.409   .     A
C584   Br613   1.943   .     S
C585   C587    1.421   .     A
C585   C589    1.422   .     A
C586   C588    1.421   .     A
C586   C590    1.422   .     A
C587   C5      1.400   1_556 S
C589   C32     1.415   1_556 S
N599   Zn609   2.016   .     S
N600   Zn610   2.016   .     S
O601   Zn609   1.991   .     S
O602   Zn610   1.991   .     S
O603   Zn610   2.000   .     S
O604   Zn609   2.000   .     S
O605   Zn609   1.975   .     S
O606   Zn610   1.975   .     S
O607   Zn610   1.924   .     S
O608   Zn609   1.924   .     S
C621   O665    1.289   .     A
C621   C632    1.416   .     S
C621   O663    1.278   .     A
C622   C631    1.416   .     S
C622   O664    1.278   .     A
C622   O666    1.289   .     A
C623   H655    1.077   .     S
C623   C652    1.408   .     A
C623   C625    1.386   .     A
C624   H656    1.077   .     S
C624   C651    1.408   .     A
C624   C626    1.386   .     A
C625   Br673   1.918   .     S
C626   Br674   1.918   .     S
C626   C92     1.400   1_556 S
C627   Br679   1.920   .     S
C627   C632    1.398   .     A
C627   C815    1.384   .     S
C628   Br680   1.920   .     S
C628   C631    1.398   .     A
C628   C1002   1.384   1_545 S
C629   C631    1.400   .     A
C629   I681    2.135   .     S
C629   C999    1.384   1_545 S
C630   I682    2.135   .     S
C630   C632    1.400   .     A
C630   C814    1.384   .     S
C633   N662    1.367   .     A
C633   H657    1.082   .     S
C633   C697    1.418   .     S
C634   N661    1.367   .     A
C634   H658    1.082   .     S
C635   H659    1.081   .     S
C635   N661    1.368   .     A
C636   N662    1.368   .     A
C636   H660    1.081   .     S
C636   C696    1.418   .     S
C637   C639    1.464   .     S
C637   O669    1.303   .     A
C637   O667    1.290   .     A
C638   C640    1.464   .     S
C638   O670    1.303   .     A
C638   O668    1.290   .     A
C639   C643    1.413   .     A
C639   C645    1.399   .     A
C640   C646    1.399   .     A
C640   C644    1.413   .     A
C641   C649    1.403   .     A
C641   C643    1.390   .     A
C641   H653    1.081   .     S
C642   H654    1.081   .     S
C642   C644    1.390   .     A
C642   C650    1.403   .     A
C643   Br678   1.928   .     S
C644   Br677   1.928   .     S
C645   C647    1.409   .     A
C645   Br676   1.943   .     S
C646   C648    1.409   .     A
C646   Br675   1.943   .     S
C647   C649    1.421   .     A
C647   C651    1.422   .     A
C648   C650    1.421   .     A
C648   C652    1.422   .     A
C649   C67     1.400   1_556 S
C651   C94     1.415   1_556 S
N661   Zn671   2.016   .     S
N662   Zn672   2.016   .     S
O663   Zn671   1.991   .     S
O664   Zn672   1.991   .     S
O665   Zn672   2.000   .     S
O666   Zn671   2.000   .     S
O667   Zn671   1.975   .     S
O668   Zn672   1.975   .     S
O669   Zn672   1.924   .     S
O670   Zn671   1.924   .     S
C683   O727    1.289   .     A
C683   C694    1.416   .     S
C683   O725    1.278   .     A
C684   C693    1.416   .     S
C684   O726    1.278   .     A
C684   O728    1.289   .     A
C685   H717    1.077   .     S
C685   C714    1.408   .     A
C685   C687    1.386   .     A
C686   H718    1.077   .     S
C686   C713    1.408   .     A
C686   C688    1.386   .     A
C687   Br735   1.918   .     S
C688   Br736   1.918   .     S
C688   C154    1.400   1_556 S
C689   Br741   1.920   .     S
C689   C694    1.398   .     A
C689   C877    1.384   .     S
C690   Br742   1.920   .     S
C690   C693    1.398   .     A
C690   C1064   1.384   1_545 S
C691   C693    1.400   .     A
C691   I743    2.135   .     S
C691   C1061   1.384   1_545 S
C692   I744    2.135   .     S
C692   C694    1.400   .     A
C692   C876    1.384   .     S
C695   N724    1.367   .     A
C695   H719    1.082   .     S
C695   C573    1.418   1_655 S
C696   N723    1.367   .     A
C696   H720    1.082   .     S
C697   H721    1.081   .     S
C697   N723    1.368   .     A
C698   N724    1.368   .     A
C698   H722    1.081   .     S
C698   C572    1.418   1_655 S
C699   C701    1.464   .     S
C699   O731    1.303   .     A
C699   O729    1.290   .     A
C700   C702    1.464   .     S
C700   O732    1.303   .     A
C700   O730    1.290   .     A
C701   C705    1.413   .     A
C701   C707    1.399   .     A
C702   C708    1.399   .     A
C702   C706    1.413   .     A
C703   C711    1.403   .     A
C703   C705    1.390   .     A
C703   H715    1.081   .     S
C704   H716    1.081   .     S
C704   C706    1.390   .     A
C704   C712    1.403   .     A
C705   Br740   1.928   .     S
C706   Br739   1.928   .     S
C707   C709    1.409   .     A
C707   Br738   1.943   .     S
C708   C710    1.409   .     A
C708   Br737   1.943   .     S
C709   C711    1.421   .     A
C709   C713    1.422   .     A
C710   C712    1.421   .     A
C710   C714    1.422   .     A
C711   C129    1.400   1_556 S
C713   C156    1.415   1_556 S
N723   Zn733   2.016   .     S
N724   Zn734   2.016   .     S
O725   Zn733   1.991   .     S
O726   Zn734   1.991   .     S
O727   Zn734   2.000   .     S
O728   Zn733   2.000   .     S
O729   Zn733   1.975   .     S
O730   Zn734   1.975   .     S
O731   Zn734   1.924   .     S
O732   Zn733   1.924   .     S
C745   O789    1.289   .     A
C745   C756    1.416   .     S
C745   O787    1.278   .     A
C746   C755    1.416   .     S
C746   O788    1.278   .     A
C746   O790    1.289   .     A
C747   H779    1.077   .     S
C747   C776    1.408   .     A
C747   C749    1.386   .     A
C748   H780    1.077   .     S
C748   C775    1.408   .     A
C748   C750    1.386   .     A
C749   Br797   1.918   .     S
C750   Br798   1.918   .     S
C750   C216    1.400   1_556 S
C751   Br803   1.920   .     S
C751   C756    1.398   .     A
C751   C939    1.384   .     S
C752   Br804   1.920   .     S
C752   C755    1.398   .     A
C753   C755    1.400   .     A
C753   I805    2.135   .     S
C754   I806    2.135   .     S
C754   C756    1.400   .     A
C754   C938    1.384   .     S
C757   N786    1.367   .     A
C757   H781    1.082   .     S
C757   C821    1.418   .     S
C758   N785    1.367   .     A
C758   H782    1.082   .     S
C758   C884    1.418   1_455 S
C759   H783    1.081   .     S
C759   N785    1.368   .     A
C759   C881    1.418   1_455 S
C760   N786    1.368   .     A
C760   H784    1.081   .     S
C760   C820    1.418   .     S
C761   C763    1.464   .     S
C761   O793    1.303   .     A
C761   O791    1.290   .     A
C762   C764    1.464   .     S
C762   O794    1.303   .     A
C762   O792    1.290   .     A
C763   C767    1.413   .     A
C763   C769    1.399   .     A
C764   C770    1.399   .     A
C764   C768    1.413   .     A
C765   C773    1.403   .     A
C765   C767    1.390   .     A
C765   H777    1.081   .     S
C766   H778    1.081   .     S
C766   C768    1.390   .     A
C766   C774    1.403   .     A
C767   Br802   1.928   .     S
C768   Br801   1.928   .     S
C769   C771    1.409   .     A
C769   Br800   1.943   .     S
C770   C772    1.409   .     A
C770   Br799   1.943   .     S
C771   C773    1.421   .     A
C771   C775    1.422   .     A
C772   C774    1.421   .     A
C772   C776    1.422   .     A
C773   C191    1.400   1_556 S
C775   C218    1.415   1_556 S
N785   Zn795   2.016   .     S
N786   Zn796   2.016   .     S
O787   Zn795   1.991   .     S
O788   Zn796   1.991   .     S
O789   Zn796   2.000   .     S
O790   Zn795   2.000   .     S
O791   Zn795   1.975   .     S
O792   Zn796   1.975   .     S
O793   Zn796   1.924   .     S
O794   Zn795   1.924   .     S
C807   O851    1.289   .     A
C807   C818    1.416   .     S
C807   O849    1.278   .     A
C808   C817    1.416   .     S
C808   O850    1.278   .     A
C808   O852    1.289   .     A
C809   H841    1.077   .     S
C809   C838    1.408   .     A
C809   C811    1.386   .     A
C810   H842    1.077   .     S
C810   C837    1.408   .     A
C810   C812    1.386   .     A
C811   Br859   1.918   .     S
C812   Br860   1.918   .     S
C812   C278    1.400   1_556 S
C813   Br865   1.920   .     S
C813   C818    1.398   .     A
C813   C1001   1.384   .     S
C814   Br866   1.920   .     S
C814   C817    1.398   .     A
C815   C817    1.400   .     A
C815   I867    2.135   .     S
C816   I868    2.135   .     S
C816   C818    1.400   .     A
C816   C1000   1.384   .     S
C819   N848    1.367   .     A
C819   H843    1.082   .     S
C819   C883    1.418   .     S
C820   N847    1.367   .     A
C820   H844    1.082   .     S
C821   H845    1.081   .     S
C821   N847    1.368   .     A
C822   N848    1.368   .     A
C822   H846    1.081   .     S
C822   C882    1.418   .     S
C823   C825    1.464   .     S
C823   O855    1.303   .     A
C823   O853    1.290   .     A
C824   C826    1.464   .     S
C824   O856    1.303   .     A
C824   O854    1.290   .     A
C825   C829    1.413   .     A
C825   C831    1.399   .     A
C826   C832    1.399   .     A
C826   C830    1.413   .     A
C827   C835    1.403   .     A
C827   C829    1.390   .     A
C827   H839    1.081   .     S
C828   H840    1.081   .     S
C828   C830    1.390   .     A
C828   C836    1.403   .     A
C829   Br864   1.928   .     S
C830   Br863   1.928   .     S
C831   C833    1.409   .     A
C831   Br862   1.943   .     S
C832   C834    1.409   .     A
C832   Br861   1.943   .     S
C833   C835    1.421   .     A
C833   C837    1.422   .     A
C834   C836    1.421   .     A
C834   C838    1.422   .     A
C835   C253    1.400   1_556 S
C837   C280    1.415   1_556 S
N847   Zn857   2.016   .     S
N848   Zn858   2.016   .     S
O849   Zn857   1.991   .     S
O850   Zn858   1.991   .     S
O851   Zn858   2.000   .     S
O852   Zn857   2.000   .     S
O853   Zn857   1.975   .     S
O854   Zn858   1.975   .     S
O855   Zn858   1.924   .     S
O856   Zn857   1.924   .     S
C869   O913    1.289   .     A
C869   C880    1.416   .     S
C869   O911    1.278   .     A
C870   C879    1.416   .     S
C870   O912    1.278   .     A
C870   O914    1.289   .     A
C871   H903    1.077   .     S
C871   C900    1.408   .     A
C871   C873    1.386   .     A
C872   H904    1.077   .     S
C872   C899    1.408   .     A
C872   C874    1.386   .     A
C873   Br921   1.918   .     S
C874   Br922   1.918   .     S
C874   C340    1.400   1_556 S
C875   Br927   1.920   .     S
C875   C880    1.398   .     A
C875   C1063   1.384   .     S
C876   Br928   1.920   .     S
C876   C879    1.398   .     A
C877   C879    1.400   .     A
C877   I929    2.135   .     S
C878   I930    2.135   .     S
C878   C880    1.400   .     A
C878   C1062   1.384   .     S
C881   N910    1.367   .     A
C881   H905    1.082   .     S
C881   C759    1.418   1_655 S
C882   N909    1.367   .     A
C882   H906    1.082   .     S
C883   H907    1.081   .     S
C883   N909    1.368   .     A
C884   N910    1.368   .     A
C884   H908    1.081   .     S
C884   C758    1.418   1_655 S
C885   C887    1.464   .     S
C885   O917    1.303   .     A
C885   O915    1.290   .     A
C886   C888    1.464   .     S
C886   O918    1.303   .     A
C886   O916    1.290   .     A
C887   C891    1.413   .     A
C887   C893    1.399   .     A
C888   C894    1.399   .     A
C888   C892    1.413   .     A
C889   C897    1.403   .     A
C889   C891    1.390   .     A
C889   H901    1.081   .     S
C890   H902    1.081   .     S
C890   C892    1.390   .     A
C890   C898    1.403   .     A
C891   Br926   1.928   .     S
C892   Br925   1.928   .     S
C893   C895    1.409   .     A
C893   Br924   1.943   .     S
C894   C896    1.409   .     A
C894   Br923   1.943   .     S
C895   C897    1.421   .     A
C895   C899    1.422   .     A
C896   C898    1.421   .     A
C896   C900    1.422   .     A
C897   C315    1.400   1_556 S
C899   C342    1.415   1_556 S
N909   Zn919   2.016   .     S
N910   Zn920   2.016   .     S
O911   Zn919   1.991   .     S
O912   Zn920   1.991   .     S
O913   Zn920   2.000   .     S
O914   Zn919   2.000   .     S
O915   Zn919   1.975   .     S
O916   Zn920   1.975   .     S
O917   Zn920   1.924   .     S
O918   Zn919   1.924   .     S
C931   O975    1.289   .     A
C931   C942    1.416   .     S
C931   O973    1.278   .     A
C932   C941    1.416   .     S
C932   O974    1.278   .     A
C932   O976    1.289   .     A
C933   H965    1.077   .     S
C933   C962    1.408   .     A
C933   C935    1.386   .     A
C934   H966    1.077   .     S
C934   C961    1.408   .     A
C934   C936    1.386   .     A
C935   Br983   1.918   .     S
C936   Br984   1.918   .     S
C936   C402    1.400   1_556 S
C937   Br989   1.920   .     S
C937   C942    1.398   .     A
C937   C567    1.384   1_565 S
C938   Br990   1.920   .     S
C938   C941    1.398   .     A
C939   C941    1.400   .     A
C939   I991    2.135   .     S
C940   I992    2.135   .     S
C940   C942    1.400   .     A
C940   C566    1.384   1_565 S
C943   N972    1.367   .     A
C943   H967    1.082   .     S
C943   C1007   1.418   .     S
C944   N971    1.367   .     A
C944   H968    1.082   .     S
C944   C1070   1.418   1_455 S
C945   H969    1.081   .     S
C945   N971    1.368   .     A
C945   C1067   1.418   1_455 S
C946   N972    1.368   .     A
C946   H970    1.081   .     S
C946   C1006   1.418   .     S
C947   C949    1.464   .     S
C947   O979    1.303   .     A
C947   O977    1.290   .     A
C948   C950    1.464   .     S
C948   O980    1.303   .     A
C948   O978    1.290   .     A
C949   C953    1.413   .     A
C949   C955    1.399   .     A
C950   C956    1.399   .     A
C950   C954    1.413   .     A
C951   C959    1.403   .     A
C951   C953    1.390   .     A
C951   H963    1.081   .     S
C952   H964    1.081   .     S
C952   C954    1.390   .     A
C952   C960    1.403   .     A
C953   Br988   1.928   .     S
C954   Br987   1.928   .     S
C955   C957    1.409   .     A
C955   Br986   1.943   .     S
C956   C958    1.409   .     A
C956   Br985   1.943   .     S
C957   C959    1.421   .     A
C957   C961    1.422   .     A
C958   C960    1.421   .     A
C958   C962    1.422   .     A
C959   C377    1.400   1_556 S
C961   C404    1.415   1_556 S
N971   Zn981   2.016   .     S
N972   Zn982   2.016   .     S
O973   Zn981   1.991   .     S
O974   Zn982   1.991   .     S
O975   Zn982   2.000   .     S
O976   Zn981   2.000   .     S
O977   Zn981   1.975   .     S
O978   Zn982   1.975   .     S
O979   Zn982   1.924   .     S
O980   Zn981   1.924   .     S
C993   O1037   1.289   .     A
C993   C1004   1.416   .     S
C993   O1035   1.278   .     A
C994   C1003   1.416   .     S
C994   O1036   1.278   .     A
C994   O1038   1.289   .     A
C995   H1027   1.077   .     S
C995   C1024   1.408   .     A
C995   C997    1.386   .     A
C996   H1028   1.077   .     S
C996   C1023   1.408   .     A
C996   C998    1.386   .     A
C997   Br1045  1.918   .     S
C998   Br1046  1.918   .     S
C998   C464    1.400   1_556 S
C999   Br1051  1.920   .     S
C999   C1004   1.398   .     A
C999   C629    1.384   1_565 S
C1000  Br1052  1.920   .     S
C1000  C1003   1.398   .     A
C1001  C1003   1.400   .     A
C1001  I1053   2.135   .     S
C1002  I1054   2.135   .     S
C1002  C1004   1.400   .     A
C1002  C628    1.384   1_565 S
C1005  N1034   1.367   .     A
C1005  H1029   1.082   .     S
C1005  C1069   1.418   .     S
C1006  N1033   1.367   .     A
C1006  H1030   1.082   .     S
C1007  H1031   1.081   .     S
C1007  N1033   1.368   .     A
C1008  N1034   1.368   .     A
C1008  H1032   1.081   .     S
C1008  C1068   1.418   .     S
C1009  C1011   1.464   .     S
C1009  O1041   1.303   .     A
C1009  O1039   1.290   .     A
C1010  C1012   1.464   .     S
C1010  O1042   1.303   .     A
C1010  O1040   1.290   .     A
C1011  C1015   1.413   .     A
C1011  C1017   1.399   .     A
C1012  C1018   1.399   .     A
C1012  C1016   1.413   .     A
C1013  C1021   1.403   .     A
C1013  C1015   1.390   .     A
C1013  H1025   1.081   .     S
C1014  H1026   1.081   .     S
C1014  C1016   1.390   .     A
C1014  C1022   1.403   .     A
C1015  Br1050  1.928   .     S
C1016  Br1049  1.928   .     S
C1017  C1019   1.409   .     A
C1017  Br1048  1.943   .     S
C1018  C1020   1.409   .     A
C1018  Br1047  1.943   .     S
C1019  C1021   1.421   .     A
C1019  C1023   1.422   .     A
C1020  C1022   1.421   .     A
C1020  C1024   1.422   .     A
C1021  C439    1.400   1_556 S
C1023  C466    1.415   1_556 S
N1033  Zn1043  2.016   .     S
N1034  Zn1044  2.016   .     S
O1035  Zn1043  1.991   .     S
O1036  Zn1044  1.991   .     S
O1037  Zn1044  2.000   .     S
O1038  Zn1043  2.000   .     S
O1039  Zn1043  1.975   .     S
O1040  Zn1044  1.975   .     S
O1041  Zn1044  1.924   .     S
O1042  Zn1043  1.924   .     S
C1055  O1099   1.289   .     A
C1055  C1066   1.416   .     S
C1055  O1097   1.278   .     A
C1056  C1065   1.416   .     S
C1056  O1098   1.278   .     A
C1056  O1100   1.289   .     A
C1057  H1089   1.077   .     S
C1057  C1086   1.408   .     A
C1057  C1059   1.386   .     A
C1058  H1090   1.077   .     S
C1058  C1085   1.408   .     A
C1058  C1060   1.386   .     A
C1059  Br1107  1.918   .     S
C1060  Br1108  1.918   .     S
C1060  C526    1.400   1_556 S
C1061  Br1113  1.920   .     S
C1061  C1066   1.398   .     A
C1061  C691    1.384   1_565 S
C1062  Br1114  1.920   .     S
C1062  C1065   1.398   .     A
C1063  C1065   1.400   .     A
C1063  I1115   2.135   .     S
C1064  I1116   2.135   .     S
C1064  C1066   1.400   .     A
C1064  C690    1.384   1_565 S
C1067  N1096   1.367   .     A
C1067  H1091   1.082   .     S
C1067  C945    1.418   1_655 S
C1068  N1095   1.367   .     A
C1068  H1092   1.082   .     S
C1069  H1093   1.081   .     S
C1069  N1095   1.368   .     A
C1070  N1096   1.368   .     A
C1070  H1094   1.081   .     S
C1070  C944    1.418   1_655 S
C1071  C1073   1.464   .     S
C1071  O1103   1.303   .     A
C1071  O1101   1.290   .     A
C1072  C1074   1.464   .     S
C1072  O1104   1.303   .     A
C1072  O1102   1.290   .     A
C1073  C1077   1.413   .     A
C1073  C1079   1.399   .     A
C1074  C1080   1.399   .     A
C1074  C1078   1.413   .     A
C1075  C1083   1.403   .     A
C1075  C1077   1.390   .     A
C1075  H1087   1.081   .     S
C1076  H1088   1.081   .     S
C1076  C1078   1.390   .     A
C1076  C1084   1.403   .     A
C1077  Br1112  1.928   .     S
C1078  Br1111  1.928   .     S
C1079  C1081   1.409   .     A
C1079  Br1110  1.943   .     S
C1080  C1082   1.409   .     A
C1080  Br1109  1.943   .     S
C1081  C1083   1.421   .     A
C1081  C1085   1.422   .     A
C1082  C1084   1.421   .     A
C1082  C1086   1.422   .     A
C1083  C501    1.400   1_556 S
C1085  C528    1.415   1_556 S
N1095  Zn1105  2.016   .     S
N1096  Zn1106  2.016   .     S
O1097  Zn1105  1.991   .     S
O1098  Zn1106  1.991   .     S
O1099  Zn1106  2.000   .     S
O1100  Zn1105  2.000   .     S
O1101  Zn1105  1.975   .     S
O1102  Zn1106  1.975   .     S
O1103  Zn1106  1.924   .     S
O1104  Zn1105  1.924   .     S
