data_str_m3_o10_o18_pcu_sym.70
_audit_creation_date              2020-01-03
_audit_creation_method            'Materials Studio'
_symmetry_space_group_name_H-M    'P1'
_symmetry_Int_Tables_number       1
_symmetry_cell_setting            triclinic
loop_
_symmetry_equiv_pos_as_xyz
  x,y,z
_cell_length_a                    23.5101
_cell_length_b                    25.9031
_cell_length_c                    28.1094
_cell_angle_alpha                 94.5112
_cell_angle_beta                  93.5672
_cell_angle_gamma                 93.3012
loop_
_atom_site_label
_atom_site_type_symbol
_atom_site_fract_x
_atom_site_fract_y
_atom_site_fract_z
_atom_site_U_iso_or_equiv
_atom_site_adp_type
_atom_site_occupancy
C1     C     0.01459   0.26477   0.24907   0.00000  Uiso   1.00
C2     C     0.31226   0.16317   0.15929   0.00000  Uiso   1.00
C3     C     0.03159   0.17543   0.39259   0.00000  Uiso   1.00
C4     C     0.30171   0.15781   0.10741   0.00000  Uiso   1.00
C5     C     0.01505   0.21628   0.47029   0.00000  Uiso   1.00
C6     C     0.31813   0.11678   0.02976   0.00000  Uiso   1.00
C7     C     0.32823   0.20045   0.42351   0.00000  Uiso   1.00
C8     C     0.00500   0.13266   0.07651   0.00000  Uiso   1.00
C9     C     0.08335   0.15926   0.41074   0.00000  Uiso   1.00
C10    C     0.24997   0.17400   0.08926   0.00000  Uiso   1.00
C11    C     0.10274   0.17185   0.45830   0.00000  Uiso   1.00
C12    C     0.31874   0.06856   0.25093   0.00000  Uiso   1.00
C13    C     0.23050   0.16130   0.04173   0.00000  Uiso   1.00
C14    C     0.06945   0.20382   0.48714   0.00000  Uiso   1.00
C15    C     0.26374   0.12926   0.01291   0.00000  Uiso   1.00
C16    C     0.15578   0.15608   0.47697   0.00000  Uiso   1.00
C17    C     0.17743   0.17705   0.02308   0.00000  Uiso   1.00
C18    C     0.06304   0.12321   0.09152   0.00000  Uiso   1.00
C19    C     0.27018   0.20985   0.40850   0.00000  Uiso   1.00
C20    C     0.04604   0.32792   0.19452   0.00000  Uiso   1.00
C21    C     0.10521   0.32440   0.19257   0.00000  Uiso   1.00
C22    C     0.13099   0.32863   0.14950   0.00000  Uiso   1.00
C23    C     0.14519   0.21280   0.04909   0.00000  Uiso   1.00
C24    C     0.09762   0.00196   0.10787   0.00000  Uiso   1.00
C25    C     0.03849   0.00480   0.10931   0.00000  Uiso   1.00
C26    C     0.01275   0.00159   0.15254   0.00000  Uiso   1.00
C27    C     0.28727   0.00540   0.30549   0.00000  Uiso   1.00
C28    C     0.32053   0.33151   0.34743   0.00000  Uiso   1.00
C29    C     0.29477   0.32820   0.39064   0.00000  Uiso   1.00
C30    C     0.23567   0.33113   0.39209   0.00000  Uiso   1.00
C31    C     0.20233   0.00470   0.35051   0.00000  Uiso   1.00
C32    C     0.22812   0.00905   0.30747   0.00000  Uiso   1.00
C33    C     0.18798   0.12028   0.45098   0.00000  Uiso   1.00
C34    C     0.09099   0.22365   0.03224   0.00000  Uiso   1.00
C35    C     0.24217   0.10939   0.46784   0.00000  Uiso   1.00
C36    C     0.01801   0.31736   0.23915   0.00000  Uiso   1.00
C37    C     0.31532   0.01597   0.26087   0.00000  Uiso   1.00
C38    C     0.02107   0.17014   0.34071   0.00000  Uiso   1.00
H39    H     0.06574   0.24804   0.05437   0.00000  Uiso   1.00
H40    H     0.17079   0.20857   0.28608   0.00000  Uiso   1.00
H41    H     0.13093   0.31705   0.22416   0.00000  Uiso   1.00
H42    H     0.17666   0.32588   0.14824   0.00000  Uiso   1.00
H43    H     0.11753   0.00481   0.07439   0.00000  Uiso   1.00
H44    H     0.01265   0.00946   0.07687   0.00000  Uiso   1.00
H45    H     0.30016   0.00298   0.15307   0.00000  Uiso   1.00
H46    H     0.03310   0.33001   0.34688   0.00000  Uiso   1.00
H47    H     0.32058   0.32337   0.42305   0.00000  Uiso   1.00
H48    H     0.21575   0.32819   0.42556   0.00000  Uiso   1.00
H49    H     0.15668   0.00756   0.35179   0.00000  Uiso   1.00
H50    H     0.26737   0.08495   0.44572   0.00000  Uiso   1.00
H51    H     0.20243   0.01659   0.27591   0.00000  Uiso   1.00
H52    H     0.22389   0.19388   0.11397   0.00000  Uiso   1.00
H53    H     0.10951   0.13950   0.38602   0.00000  Uiso   1.00
H54    H     0.32171   0.23825   0.49356   0.00000  Uiso   1.00
H55    H     0.01143   0.09474   0.00651   0.00000  Uiso   1.00
H56    H     0.16006   0.23277   0.08300   0.00000  Uiso   1.00
H57    H     0.17306   0.10029   0.41709   0.00000  Uiso   1.00
H58    H     0.16254   0.12476   0.21392   0.00000  Uiso   1.00
N59    N     0.14695   0.15216   0.23739   0.00000  Uiso   1.00
N60    N     0.18638   0.18117   0.26260   0.00000  Uiso   1.00
N61    N     0.10974   0.11646   0.10378   0.00000  Uiso   1.00
N62    N     0.22347   0.21657   0.39625   0.00000  Uiso   1.00
O63    O     0.29719   0.24631   0.25309   0.00000  Uiso   1.00
O64    O     0.03614   0.08702   0.24690   0.00000  Uiso   1.00
O65    O     0.05822   0.23702   0.24501   0.00000  Uiso   1.00
O66    O     0.27512   0.09632   0.25498   0.00000  Uiso   1.00
O67    O     0.30328   0.17397   0.32247   0.00000  Uiso   1.00
O68    O     0.03005   0.15937   0.17753   0.00000  Uiso   1.00
O69    O     0.06431   0.16467   0.31439   0.00000  Uiso   1.00
O70    O     0.26902   0.16866   0.18561   0.00000  Uiso   1.00
Zn71   Zn    0.27033   0.17287   0.25539   0.00000  Uiso   1.00
Zn72   Zn    0.06300   0.16046   0.24460   0.00000  Uiso   1.00
C73    C     0.34792   0.26477   0.24907   0.00000  Uiso   1.00
C74    C     0.64560   0.16317   0.15929   0.00000  Uiso   1.00
C75    C     0.36493   0.17543   0.39259   0.00000  Uiso   1.00
C76    C     0.63504   0.15781   0.10741   0.00000  Uiso   1.00
C77    C     0.34838   0.21628   0.47029   0.00000  Uiso   1.00
C78    C     0.65147   0.11678   0.02976   0.00000  Uiso   1.00
C79    C     0.66156   0.20045   0.42351   0.00000  Uiso   1.00
C80    C     0.33834   0.13266   0.07651   0.00000  Uiso   1.00
C81    C     0.41668   0.15926   0.41074   0.00000  Uiso   1.00
C82    C     0.58330   0.17400   0.08926   0.00000  Uiso   1.00
C83    C     0.43607   0.17185   0.45830   0.00000  Uiso   1.00
C84    C     0.65208   0.06856   0.25093   0.00000  Uiso   1.00
C85    C     0.56383   0.16130   0.04173   0.00000  Uiso   1.00
C86    C     0.40278   0.20382   0.48714   0.00000  Uiso   1.00
C87    C     0.59707   0.12926   0.01291   0.00000  Uiso   1.00
C88    C     0.48911   0.15608   0.47697   0.00000  Uiso   1.00
C89    C     0.51077   0.17705   0.02308   0.00000  Uiso   1.00
C90    C     0.39637   0.12321   0.09152   0.00000  Uiso   1.00
C91    C     0.60351   0.20985   0.40850   0.00000  Uiso   1.00
C92    C     0.37938   0.32792   0.19452   0.00000  Uiso   1.00
C93    C     0.43855   0.32440   0.19257   0.00000  Uiso   1.00
C94    C     0.46433   0.32863   0.14950   0.00000  Uiso   1.00
C95    C     0.47852   0.21280   0.04909   0.00000  Uiso   1.00
C96    C     0.43095   0.00196   0.10787   0.00000  Uiso   1.00
C97    C     0.37182   0.00480   0.10931   0.00000  Uiso   1.00
C98    C     0.34608   0.00159   0.15254   0.00000  Uiso   1.00
C99    C     0.62060   0.00540   0.30549   0.00000  Uiso   1.00
C100   C     0.65386   0.33151   0.34743   0.00000  Uiso   1.00
C101   C     0.62811   0.32820   0.39064   0.00000  Uiso   1.00
C102   C     0.56900   0.33113   0.39209   0.00000  Uiso   1.00
C103   C     0.53566   0.00470   0.35051   0.00000  Uiso   1.00
C104   C     0.56145   0.00905   0.30747   0.00000  Uiso   1.00
C105   C     0.52132   0.12028   0.45098   0.00000  Uiso   1.00
C106   C     0.42432   0.22365   0.03224   0.00000  Uiso   1.00
C107   C     0.57550   0.10939   0.46784   0.00000  Uiso   1.00
C108   C     0.35135   0.31736   0.23915   0.00000  Uiso   1.00
C109   C     0.64866   0.01597   0.26087   0.00000  Uiso   1.00
C110   C     0.35440   0.17014   0.34071   0.00000  Uiso   1.00
H111   H     0.39908   0.24804   0.05437   0.00000  Uiso   1.00
H112   H     0.50413   0.20857   0.28608   0.00000  Uiso   1.00
H113   H     0.46426   0.31705   0.22416   0.00000  Uiso   1.00
H114   H     0.50999   0.32588   0.14824   0.00000  Uiso   1.00
H115   H     0.45086   0.00481   0.07439   0.00000  Uiso   1.00
H116   H     0.34599   0.00946   0.07687   0.00000  Uiso   1.00
H117   H     0.63349   0.00298   0.15307   0.00000  Uiso   1.00
H118   H     0.36643   0.33001   0.34688   0.00000  Uiso   1.00
H119   H     0.65392   0.32337   0.42305   0.00000  Uiso   1.00
H120   H     0.54908   0.32819   0.42556   0.00000  Uiso   1.00
H121   H     0.49002   0.00756   0.35179   0.00000  Uiso   1.00
H122   H     0.60071   0.08495   0.44572   0.00000  Uiso   1.00
H123   H     0.53576   0.01659   0.27591   0.00000  Uiso   1.00
H124   H     0.55723   0.19388   0.11397   0.00000  Uiso   1.00
H125   H     0.44284   0.13950   0.38602   0.00000  Uiso   1.00
H126   H     0.65504   0.23825   0.49356   0.00000  Uiso   1.00
H127   H     0.34476   0.09474   0.00651   0.00000  Uiso   1.00
H128   H     0.49339   0.23277   0.08300   0.00000  Uiso   1.00
H129   H     0.50639   0.10029   0.41709   0.00000  Uiso   1.00
H130   H     0.49587   0.12476   0.21392   0.00000  Uiso   1.00
N131   N     0.48029   0.15216   0.23739   0.00000  Uiso   1.00
N132   N     0.51971   0.18117   0.26260   0.00000  Uiso   1.00
N133   N     0.44307   0.11646   0.10378   0.00000  Uiso   1.00
N134   N     0.55680   0.21657   0.39625   0.00000  Uiso   1.00
O135   O     0.63052   0.24631   0.25309   0.00000  Uiso   1.00
O136   O     0.36948   0.08702   0.24690   0.00000  Uiso   1.00
O137   O     0.39155   0.23702   0.24501   0.00000  Uiso   1.00
O138   O     0.60845   0.09632   0.25498   0.00000  Uiso   1.00
O139   O     0.63662   0.17397   0.32247   0.00000  Uiso   1.00
O140   O     0.36338   0.15937   0.17753   0.00000  Uiso   1.00
O141   O     0.39764   0.16467   0.31439   0.00000  Uiso   1.00
O142   O     0.60236   0.16866   0.18561   0.00000  Uiso   1.00
Zn143  Zn    0.60366   0.17287   0.25539   0.00000  Uiso   1.00
Zn144  Zn    0.39634   0.16046   0.24460   0.00000  Uiso   1.00
C145   C     0.68126   0.26477   0.24907   0.00000  Uiso   1.00
C146   C     0.97893   0.16317   0.15929   0.00000  Uiso   1.00
C147   C     0.69826   0.17543   0.39259   0.00000  Uiso   1.00
C148   C     0.96838   0.15781   0.10741   0.00000  Uiso   1.00
C149   C     0.68171   0.21628   0.47029   0.00000  Uiso   1.00
C150   C     0.98480   0.11678   0.02976   0.00000  Uiso   1.00
C151   C     0.99489   0.20045   0.42351   0.00000  Uiso   1.00
C152   C     0.67167   0.13266   0.07651   0.00000  Uiso   1.00
C153   C     0.75001   0.15926   0.41074   0.00000  Uiso   1.00
C154   C     0.91663   0.17400   0.08926   0.00000  Uiso   1.00
C155   C     0.76940   0.17185   0.45830   0.00000  Uiso   1.00
C156   C     0.98541   0.06856   0.25093   0.00000  Uiso   1.00
C157   C     0.89716   0.16130   0.04173   0.00000  Uiso   1.00
C158   C     0.73611   0.20382   0.48714   0.00000  Uiso   1.00
C159   C     0.93041   0.12926   0.01291   0.00000  Uiso   1.00
C160   C     0.82244   0.15608   0.47697   0.00000  Uiso   1.00
C161   C     0.84410   0.17705   0.02308   0.00000  Uiso   1.00
C162   C     0.72970   0.12321   0.09152   0.00000  Uiso   1.00
C163   C     0.93684   0.20985   0.40850   0.00000  Uiso   1.00
C164   C     0.71271   0.32792   0.19452   0.00000  Uiso   1.00
C165   C     0.77188   0.32440   0.19257   0.00000  Uiso   1.00
C166   C     0.79766   0.32863   0.14950   0.00000  Uiso   1.00
C167   C     0.81185   0.21280   0.04909   0.00000  Uiso   1.00
C168   C     0.76428   0.00196   0.10787   0.00000  Uiso   1.00
C169   C     0.70516   0.00480   0.10931   0.00000  Uiso   1.00
C170   C     0.67941   0.00159   0.15254   0.00000  Uiso   1.00
C171   C     0.95393   0.00540   0.30549   0.00000  Uiso   1.00
C172   C     0.98719   0.33151   0.34743   0.00000  Uiso   1.00
C173   C     0.96144   0.32820   0.39064   0.00000  Uiso   1.00
C174   C     0.90234   0.33113   0.39209   0.00000  Uiso   1.00
C175   C     0.86899   0.00470   0.35051   0.00000  Uiso   1.00
C176   C     0.89479   0.00905   0.30747   0.00000  Uiso   1.00
C177   C     0.85465   0.12028   0.45098   0.00000  Uiso   1.00
C178   C     0.75765   0.22365   0.03224   0.00000  Uiso   1.00
C179   C     0.90883   0.10939   0.46784   0.00000  Uiso   1.00
C180   C     0.68468   0.31736   0.23915   0.00000  Uiso   1.00
C181   C     0.98199   0.01597   0.26087   0.00000  Uiso   1.00
C182   C     0.68773   0.17014   0.34071   0.00000  Uiso   1.00
H183   H     0.73241   0.24804   0.05437   0.00000  Uiso   1.00
H184   H     0.83746   0.20857   0.28608   0.00000  Uiso   1.00
H185   H     0.79760   0.31705   0.22416   0.00000  Uiso   1.00
H186   H     0.84332   0.32588   0.14824   0.00000  Uiso   1.00
H187   H     0.78419   0.00481   0.07439   0.00000  Uiso   1.00
H188   H     0.67932   0.00946   0.07687   0.00000  Uiso   1.00
H189   H     0.96683   0.00298   0.15307   0.00000  Uiso   1.00
H190   H     0.69976   0.33001   0.34688   0.00000  Uiso   1.00
H191   H     0.98725   0.32337   0.42305   0.00000  Uiso   1.00
H192   H     0.88242   0.32819   0.42556   0.00000  Uiso   1.00
H193   H     0.82335   0.00756   0.35179   0.00000  Uiso   1.00
H194   H     0.93404   0.08495   0.44572   0.00000  Uiso   1.00
H195   H     0.86910   0.01659   0.27591   0.00000  Uiso   1.00
H196   H     0.89056   0.19388   0.11397   0.00000  Uiso   1.00
H197   H     0.77617   0.13950   0.38602   0.00000  Uiso   1.00
H198   H     0.98838   0.23825   0.49356   0.00000  Uiso   1.00
H199   H     0.67810   0.09474   0.00651   0.00000  Uiso   1.00
H200   H     0.82673   0.23277   0.08300   0.00000  Uiso   1.00
H201   H     0.83973   0.10029   0.41709   0.00000  Uiso   1.00
H202   H     0.82921   0.12476   0.21392   0.00000  Uiso   1.00
N203   N     0.81362   0.15216   0.23739   0.00000  Uiso   1.00
N204   N     0.85305   0.18117   0.26260   0.00000  Uiso   1.00
N205   N     0.77641   0.11646   0.10378   0.00000  Uiso   1.00
N206   N     0.89013   0.21657   0.39625   0.00000  Uiso   1.00
O207   O     0.96386   0.24631   0.25309   0.00000  Uiso   1.00
O208   O     0.70281   0.08702   0.24690   0.00000  Uiso   1.00
O209   O     0.72488   0.23702   0.24501   0.00000  Uiso   1.00
O210   O     0.94178   0.09632   0.25498   0.00000  Uiso   1.00
O211   O     0.96995   0.17397   0.32247   0.00000  Uiso   1.00
O212   O     0.69672   0.15937   0.17753   0.00000  Uiso   1.00
O213   O     0.73098   0.16467   0.31439   0.00000  Uiso   1.00
O214   O     0.93569   0.16866   0.18561   0.00000  Uiso   1.00
Zn215  Zn    0.93700   0.17287   0.25539   0.00000  Uiso   1.00
Zn216  Zn    0.72967   0.16046   0.24460   0.00000  Uiso   1.00
C217   C     0.01459   0.59810   0.24907   0.00000  Uiso   1.00
C218   C     0.31226   0.49651   0.15929   0.00000  Uiso   1.00
C219   C     0.03159   0.50876   0.39259   0.00000  Uiso   1.00
C220   C     0.30171   0.49115   0.10741   0.00000  Uiso   1.00
C221   C     0.01505   0.54961   0.47029   0.00000  Uiso   1.00
C222   C     0.31813   0.45011   0.02976   0.00000  Uiso   1.00
C223   C     0.32823   0.53378   0.42351   0.00000  Uiso   1.00
C224   C     0.00500   0.46600   0.07651   0.00000  Uiso   1.00
C225   C     0.08335   0.49260   0.41074   0.00000  Uiso   1.00
C226   C     0.24997   0.50733   0.08926   0.00000  Uiso   1.00
C227   C     0.10274   0.50519   0.45830   0.00000  Uiso   1.00
C228   C     0.31874   0.40189   0.25093   0.00000  Uiso   1.00
C229   C     0.23050   0.49463   0.04173   0.00000  Uiso   1.00
C230   C     0.06945   0.53715   0.48714   0.00000  Uiso   1.00
C231   C     0.26374   0.46260   0.01291   0.00000  Uiso   1.00
C232   C     0.15578   0.48941   0.47697   0.00000  Uiso   1.00
C233   C     0.17743   0.51038   0.02308   0.00000  Uiso   1.00
C234   C     0.06304   0.45654   0.09152   0.00000  Uiso   1.00
C235   C     0.27018   0.54318   0.40850   0.00000  Uiso   1.00
C236   C     0.04604   0.66125   0.19452   0.00000  Uiso   1.00
C237   C     0.10521   0.65774   0.19257   0.00000  Uiso   1.00
C238   C     0.13099   0.66197   0.14950   0.00000  Uiso   1.00
C239   C     0.14519   0.54613   0.04909   0.00000  Uiso   1.00
C240   C     0.09762   0.33529   0.10787   0.00000  Uiso   1.00
C241   C     0.03849   0.33813   0.10931   0.00000  Uiso   1.00
C242   C     0.01275   0.33492   0.15254   0.00000  Uiso   1.00
C243   C     0.28727   0.33874   0.30549   0.00000  Uiso   1.00
C244   C     0.32053   0.66485   0.34743   0.00000  Uiso   1.00
C245   C     0.29477   0.66153   0.39064   0.00000  Uiso   1.00
C246   C     0.23567   0.66447   0.39209   0.00000  Uiso   1.00
C247   C     0.20233   0.33804   0.35051   0.00000  Uiso   1.00
C248   C     0.22812   0.34239   0.30747   0.00000  Uiso   1.00
C249   C     0.18798   0.45362   0.45098   0.00000  Uiso   1.00
C250   C     0.09099   0.55699   0.03224   0.00000  Uiso   1.00
C251   C     0.24217   0.44272   0.46784   0.00000  Uiso   1.00
C252   C     0.01801   0.65070   0.23915   0.00000  Uiso   1.00
C253   C     0.31532   0.34931   0.26087   0.00000  Uiso   1.00
C254   C     0.02107   0.50348   0.34071   0.00000  Uiso   1.00
H255   H     0.06574   0.58137   0.05437   0.00000  Uiso   1.00
H256   H     0.17079   0.54190   0.28608   0.00000  Uiso   1.00
H257   H     0.13093   0.65038   0.22416   0.00000  Uiso   1.00
H258   H     0.17666   0.65921   0.14824   0.00000  Uiso   1.00
H259   H     0.11753   0.33814   0.07439   0.00000  Uiso   1.00
H260   H     0.01265   0.34279   0.07687   0.00000  Uiso   1.00
H261   H     0.30016   0.33632   0.15307   0.00000  Uiso   1.00
H262   H     0.03310   0.66335   0.34688   0.00000  Uiso   1.00
H263   H     0.32058   0.65670   0.42305   0.00000  Uiso   1.00
H264   H     0.21575   0.66152   0.42556   0.00000  Uiso   1.00
H265   H     0.15668   0.34089   0.35179   0.00000  Uiso   1.00
H266   H     0.26737   0.41828   0.44572   0.00000  Uiso   1.00
H267   H     0.20243   0.34992   0.27591   0.00000  Uiso   1.00
H268   H     0.22389   0.52721   0.11397   0.00000  Uiso   1.00
H269   H     0.10951   0.47283   0.38602   0.00000  Uiso   1.00
H270   H     0.32171   0.57159   0.49356   0.00000  Uiso   1.00
H271   H     0.01143   0.42807   0.00651   0.00000  Uiso   1.00
H272   H     0.16006   0.56611   0.08300   0.00000  Uiso   1.00
H273   H     0.17306   0.43362   0.41709   0.00000  Uiso   1.00
H274   H     0.16254   0.45809   0.21392   0.00000  Uiso   1.00
N275   N     0.14695   0.48550   0.23739   0.00000  Uiso   1.00
N276   N     0.18638   0.51450   0.26260   0.00000  Uiso   1.00
N277   N     0.10974   0.44980   0.10378   0.00000  Uiso   1.00
N278   N     0.22347   0.54990   0.39625   0.00000  Uiso   1.00
O279   O     0.29719   0.57964   0.25309   0.00000  Uiso   1.00
O280   O     0.03614   0.42036   0.24690   0.00000  Uiso   1.00
O281   O     0.05822   0.57035   0.24501   0.00000  Uiso   1.00
O282   O     0.27512   0.42965   0.25498   0.00000  Uiso   1.00
O283   O     0.30328   0.50730   0.32247   0.00000  Uiso   1.00
O284   O     0.03005   0.49270   0.17753   0.00000  Uiso   1.00
O285   O     0.06431   0.49801   0.31439   0.00000  Uiso   1.00
O286   O     0.26902   0.50199   0.18561   0.00000  Uiso   1.00
Zn287  Zn    0.27033   0.50621   0.25539   0.00000  Uiso   1.00
Zn288  Zn    0.06300   0.49379   0.24460   0.00000  Uiso   1.00
C289   C     0.34792   0.59810   0.24907   0.00000  Uiso   1.00
C290   C     0.64560   0.49651   0.15929   0.00000  Uiso   1.00
C291   C     0.36493   0.50876   0.39259   0.00000  Uiso   1.00
C292   C     0.63504   0.49115   0.10741   0.00000  Uiso   1.00
C293   C     0.34838   0.54961   0.47029   0.00000  Uiso   1.00
C294   C     0.65147   0.45011   0.02976   0.00000  Uiso   1.00
C295   C     0.66156   0.53378   0.42351   0.00000  Uiso   1.00
C296   C     0.33834   0.46600   0.07651   0.00000  Uiso   1.00
C297   C     0.41668   0.49260   0.41074   0.00000  Uiso   1.00
C298   C     0.58330   0.50733   0.08926   0.00000  Uiso   1.00
C299   C     0.43607   0.50519   0.45830   0.00000  Uiso   1.00
C300   C     0.65208   0.40189   0.25093   0.00000  Uiso   1.00
C301   C     0.56383   0.49463   0.04173   0.00000  Uiso   1.00
C302   C     0.40278   0.53715   0.48714   0.00000  Uiso   1.00
C303   C     0.59707   0.46260   0.01291   0.00000  Uiso   1.00
C304   C     0.48911   0.48941   0.47697   0.00000  Uiso   1.00
C305   C     0.51077   0.51038   0.02308   0.00000  Uiso   1.00
C306   C     0.39637   0.45654   0.09152   0.00000  Uiso   1.00
C307   C     0.60351   0.54318   0.40850   0.00000  Uiso   1.00
C308   C     0.37938   0.66125   0.19452   0.00000  Uiso   1.00
C309   C     0.43855   0.65774   0.19257   0.00000  Uiso   1.00
C310   C     0.46433   0.66197   0.14950   0.00000  Uiso   1.00
C311   C     0.47852   0.54613   0.04909   0.00000  Uiso   1.00
C312   C     0.43095   0.33529   0.10787   0.00000  Uiso   1.00
C313   C     0.37182   0.33813   0.10931   0.00000  Uiso   1.00
C314   C     0.34608   0.33492   0.15254   0.00000  Uiso   1.00
C315   C     0.62060   0.33874   0.30549   0.00000  Uiso   1.00
C316   C     0.65386   0.66485   0.34743   0.00000  Uiso   1.00
C317   C     0.62811   0.66153   0.39064   0.00000  Uiso   1.00
C318   C     0.56900   0.66447   0.39209   0.00000  Uiso   1.00
C319   C     0.53566   0.33804   0.35051   0.00000  Uiso   1.00
C320   C     0.56145   0.34239   0.30747   0.00000  Uiso   1.00
C321   C     0.52132   0.45362   0.45098   0.00000  Uiso   1.00
C322   C     0.42432   0.55699   0.03224   0.00000  Uiso   1.00
C323   C     0.57550   0.44272   0.46784   0.00000  Uiso   1.00
C324   C     0.35135   0.65070   0.23915   0.00000  Uiso   1.00
C325   C     0.64866   0.34931   0.26087   0.00000  Uiso   1.00
C326   C     0.35440   0.50348   0.34071   0.00000  Uiso   1.00
H327   H     0.39908   0.58137   0.05437   0.00000  Uiso   1.00
H328   H     0.50413   0.54190   0.28608   0.00000  Uiso   1.00
H329   H     0.46426   0.65038   0.22416   0.00000  Uiso   1.00
H330   H     0.50999   0.65921   0.14824   0.00000  Uiso   1.00
H331   H     0.45086   0.33814   0.07439   0.00000  Uiso   1.00
H332   H     0.34599   0.34279   0.07687   0.00000  Uiso   1.00
H333   H     0.63349   0.33632   0.15307   0.00000  Uiso   1.00
H334   H     0.36643   0.66335   0.34688   0.00000  Uiso   1.00
H335   H     0.65392   0.65670   0.42305   0.00000  Uiso   1.00
H336   H     0.54908   0.66152   0.42556   0.00000  Uiso   1.00
H337   H     0.49002   0.34089   0.35179   0.00000  Uiso   1.00
H338   H     0.60071   0.41828   0.44572   0.00000  Uiso   1.00
H339   H     0.53576   0.34992   0.27591   0.00000  Uiso   1.00
H340   H     0.55723   0.52721   0.11397   0.00000  Uiso   1.00
H341   H     0.44284   0.47283   0.38602   0.00000  Uiso   1.00
H342   H     0.65504   0.57159   0.49356   0.00000  Uiso   1.00
H343   H     0.34476   0.42807   0.00651   0.00000  Uiso   1.00
H344   H     0.49339   0.56611   0.08300   0.00000  Uiso   1.00
H345   H     0.50639   0.43362   0.41709   0.00000  Uiso   1.00
H346   H     0.49587   0.45809   0.21392   0.00000  Uiso   1.00
N347   N     0.48029   0.48550   0.23739   0.00000  Uiso   1.00
N348   N     0.51971   0.51450   0.26260   0.00000  Uiso   1.00
N349   N     0.44307   0.44980   0.10378   0.00000  Uiso   1.00
N350   N     0.55680   0.54990   0.39625   0.00000  Uiso   1.00
O351   O     0.63052   0.57964   0.25309   0.00000  Uiso   1.00
O352   O     0.36948   0.42036   0.24690   0.00000  Uiso   1.00
O353   O     0.39155   0.57035   0.24501   0.00000  Uiso   1.00
O354   O     0.60845   0.42965   0.25498   0.00000  Uiso   1.00
O355   O     0.63662   0.50730   0.32247   0.00000  Uiso   1.00
O356   O     0.36338   0.49270   0.17753   0.00000  Uiso   1.00
O357   O     0.39764   0.49801   0.31439   0.00000  Uiso   1.00
O358   O     0.60236   0.50199   0.18561   0.00000  Uiso   1.00
Zn359  Zn    0.60366   0.50621   0.25539   0.00000  Uiso   1.00
Zn360  Zn    0.39634   0.49379   0.24460   0.00000  Uiso   1.00
C361   C     0.68126   0.59810   0.24907   0.00000  Uiso   1.00
C362   C     0.97893   0.49651   0.15929   0.00000  Uiso   1.00
C363   C     0.69826   0.50876   0.39259   0.00000  Uiso   1.00
C364   C     0.96838   0.49115   0.10741   0.00000  Uiso   1.00
C365   C     0.68171   0.54961   0.47029   0.00000  Uiso   1.00
C366   C     0.98480   0.45011   0.02976   0.00000  Uiso   1.00
C367   C     0.99489   0.53378   0.42351   0.00000  Uiso   1.00
C368   C     0.67167   0.46600   0.07651   0.00000  Uiso   1.00
C369   C     0.75001   0.49260   0.41074   0.00000  Uiso   1.00
C370   C     0.91663   0.50733   0.08926   0.00000  Uiso   1.00
C371   C     0.76940   0.50519   0.45830   0.00000  Uiso   1.00
C372   C     0.98541   0.40189   0.25093   0.00000  Uiso   1.00
C373   C     0.89716   0.49463   0.04173   0.00000  Uiso   1.00
C374   C     0.73611   0.53715   0.48714   0.00000  Uiso   1.00
C375   C     0.93041   0.46260   0.01291   0.00000  Uiso   1.00
C376   C     0.82244   0.48941   0.47697   0.00000  Uiso   1.00
C377   C     0.84410   0.51038   0.02308   0.00000  Uiso   1.00
C378   C     0.72970   0.45654   0.09152   0.00000  Uiso   1.00
C379   C     0.93684   0.54318   0.40850   0.00000  Uiso   1.00
C380   C     0.71271   0.66125   0.19452   0.00000  Uiso   1.00
C381   C     0.77188   0.65774   0.19257   0.00000  Uiso   1.00
C382   C     0.79766   0.66197   0.14950   0.00000  Uiso   1.00
C383   C     0.81185   0.54613   0.04909   0.00000  Uiso   1.00
C384   C     0.76428   0.33529   0.10787   0.00000  Uiso   1.00
C385   C     0.70516   0.33813   0.10931   0.00000  Uiso   1.00
C386   C     0.67941   0.33492   0.15254   0.00000  Uiso   1.00
C387   C     0.95393   0.33874   0.30549   0.00000  Uiso   1.00
C388   C     0.98719   0.66485   0.34743   0.00000  Uiso   1.00
C389   C     0.96144   0.66153   0.39064   0.00000  Uiso   1.00
C390   C     0.90234   0.66447   0.39209   0.00000  Uiso   1.00
C391   C     0.86899   0.33804   0.35051   0.00000  Uiso   1.00
C392   C     0.89479   0.34239   0.30747   0.00000  Uiso   1.00
C393   C     0.85465   0.45362   0.45098   0.00000  Uiso   1.00
C394   C     0.75765   0.55699   0.03224   0.00000  Uiso   1.00
C395   C     0.90883   0.44272   0.46784   0.00000  Uiso   1.00
C396   C     0.68468   0.65070   0.23915   0.00000  Uiso   1.00
C397   C     0.98199   0.34931   0.26087   0.00000  Uiso   1.00
C398   C     0.68773   0.50348   0.34071   0.00000  Uiso   1.00
H399   H     0.73241   0.58137   0.05437   0.00000  Uiso   1.00
H400   H     0.83746   0.54190   0.28608   0.00000  Uiso   1.00
H401   H     0.79760   0.65038   0.22416   0.00000  Uiso   1.00
H402   H     0.84332   0.65921   0.14824   0.00000  Uiso   1.00
H403   H     0.78419   0.33814   0.07439   0.00000  Uiso   1.00
H404   H     0.67932   0.34279   0.07687   0.00000  Uiso   1.00
H405   H     0.96683   0.33632   0.15307   0.00000  Uiso   1.00
H406   H     0.69976   0.66335   0.34688   0.00000  Uiso   1.00
H407   H     0.98725   0.65670   0.42305   0.00000  Uiso   1.00
H408   H     0.88242   0.66152   0.42556   0.00000  Uiso   1.00
H409   H     0.82335   0.34089   0.35179   0.00000  Uiso   1.00
H410   H     0.93404   0.41828   0.44572   0.00000  Uiso   1.00
H411   H     0.86910   0.34992   0.27591   0.00000  Uiso   1.00
H412   H     0.89056   0.52721   0.11397   0.00000  Uiso   1.00
H413   H     0.77617   0.47283   0.38602   0.00000  Uiso   1.00
H414   H     0.98838   0.57159   0.49356   0.00000  Uiso   1.00
H415   H     0.67810   0.42807   0.00651   0.00000  Uiso   1.00
H416   H     0.82673   0.56611   0.08300   0.00000  Uiso   1.00
H417   H     0.83973   0.43362   0.41709   0.00000  Uiso   1.00
H418   H     0.82921   0.45809   0.21392   0.00000  Uiso   1.00
N419   N     0.81362   0.48550   0.23739   0.00000  Uiso   1.00
N420   N     0.85305   0.51450   0.26260   0.00000  Uiso   1.00
N421   N     0.77641   0.44980   0.10378   0.00000  Uiso   1.00
N422   N     0.89013   0.54990   0.39625   0.00000  Uiso   1.00
O423   O     0.96386   0.57964   0.25309   0.00000  Uiso   1.00
O424   O     0.70281   0.42036   0.24690   0.00000  Uiso   1.00
O425   O     0.72488   0.57035   0.24501   0.00000  Uiso   1.00
O426   O     0.94178   0.42965   0.25498   0.00000  Uiso   1.00
O427   O     0.96995   0.50730   0.32247   0.00000  Uiso   1.00
O428   O     0.69672   0.49270   0.17753   0.00000  Uiso   1.00
O429   O     0.73098   0.49801   0.31439   0.00000  Uiso   1.00
O430   O     0.93569   0.50199   0.18561   0.00000  Uiso   1.00
Zn431  Zn    0.93700   0.50621   0.25539   0.00000  Uiso   1.00
Zn432  Zn    0.72967   0.49379   0.24460   0.00000  Uiso   1.00
C433   C     0.01459   0.93144   0.24907   0.00000  Uiso   1.00
C434   C     0.31226   0.82984   0.15929   0.00000  Uiso   1.00
C435   C     0.03159   0.84209   0.39259   0.00000  Uiso   1.00
C436   C     0.30171   0.82448   0.10741   0.00000  Uiso   1.00
C437   C     0.01505   0.88295   0.47029   0.00000  Uiso   1.00
C438   C     0.31813   0.78344   0.02976   0.00000  Uiso   1.00
C439   C     0.32823   0.86712   0.42351   0.00000  Uiso   1.00
C440   C     0.00500   0.79933   0.07651   0.00000  Uiso   1.00
C441   C     0.08335   0.82593   0.41074   0.00000  Uiso   1.00
C442   C     0.24997   0.84066   0.08926   0.00000  Uiso   1.00
C443   C     0.10274   0.83852   0.45830   0.00000  Uiso   1.00
C444   C     0.31874   0.73523   0.25093   0.00000  Uiso   1.00
C445   C     0.23050   0.82796   0.04173   0.00000  Uiso   1.00
C446   C     0.06945   0.87049   0.48714   0.00000  Uiso   1.00
C447   C     0.26374   0.79593   0.01291   0.00000  Uiso   1.00
C448   C     0.15578   0.82275   0.47697   0.00000  Uiso   1.00
C449   C     0.17743   0.84371   0.02308   0.00000  Uiso   1.00
C450   C     0.06304   0.78988   0.09152   0.00000  Uiso   1.00
C451   C     0.27018   0.87652   0.40850   0.00000  Uiso   1.00
C452   C     0.04604   0.99459   0.19452   0.00000  Uiso   1.00
C453   C     0.10521   0.99107   0.19257   0.00000  Uiso   1.00
C454   C     0.13099   0.99530   0.14950   0.00000  Uiso   1.00
C455   C     0.14519   0.87947   0.04909   0.00000  Uiso   1.00
C456   C     0.09762   0.66862   0.10787   0.00000  Uiso   1.00
C457   C     0.03849   0.67147   0.10931   0.00000  Uiso   1.00
C458   C     0.01275   0.66825   0.15254   0.00000  Uiso   1.00
C459   C     0.28727   0.67207   0.30549   0.00000  Uiso   1.00
C460   C     0.32053   0.99818   0.34743   0.00000  Uiso   1.00
C461   C     0.29477   0.99486   0.39064   0.00000  Uiso   1.00
C462   C     0.23567   0.99780   0.39209   0.00000  Uiso   1.00
C463   C     0.20233   0.67137   0.35051   0.00000  Uiso   1.00
C464   C     0.22812   0.67572   0.30747   0.00000  Uiso   1.00
C465   C     0.18798   0.78695   0.45098   0.00000  Uiso   1.00
C466   C     0.09099   0.89032   0.03224   0.00000  Uiso   1.00
C467   C     0.24217   0.77606   0.46784   0.00000  Uiso   1.00
C468   C     0.01801   0.98403   0.23915   0.00000  Uiso   1.00
C469   C     0.31532   0.68264   0.26087   0.00000  Uiso   1.00
C470   C     0.02107   0.83681   0.34071   0.00000  Uiso   1.00
H471   H     0.06574   0.91471   0.05437   0.00000  Uiso   1.00
H472   H     0.17079   0.87524   0.28608   0.00000  Uiso   1.00
H473   H     0.13093   0.98372   0.22416   0.00000  Uiso   1.00
H474   H     0.17666   0.99255   0.14824   0.00000  Uiso   1.00
H475   H     0.11753   0.67147   0.07439   0.00000  Uiso   1.00
H476   H     0.01265   0.67612   0.07687   0.00000  Uiso   1.00
H477   H     0.30016   0.66965   0.15307   0.00000  Uiso   1.00
H478   H     0.03310   0.99668   0.34688   0.00000  Uiso   1.00
H479   H     0.32058   0.99003   0.42305   0.00000  Uiso   1.00
H480   H     0.21575   0.99485   0.42556   0.00000  Uiso   1.00
H481   H     0.15668   0.67422   0.35179   0.00000  Uiso   1.00
H482   H     0.26737   0.75161   0.44572   0.00000  Uiso   1.00
H483   H     0.20243   0.68325   0.27591   0.00000  Uiso   1.00
H484   H     0.22389   0.86054   0.11397   0.00000  Uiso   1.00
H485   H     0.10951   0.80617   0.38602   0.00000  Uiso   1.00
H486   H     0.32171   0.90492   0.49356   0.00000  Uiso   1.00
H487   H     0.01143   0.76140   0.00651   0.00000  Uiso   1.00
H488   H     0.16006   0.89944   0.08300   0.00000  Uiso   1.00
H489   H     0.17306   0.76696   0.41709   0.00000  Uiso   1.00
H490   H     0.16254   0.79143   0.21392   0.00000  Uiso   1.00
N491   N     0.14695   0.81883   0.23739   0.00000  Uiso   1.00
N492   N     0.18638   0.84784   0.26260   0.00000  Uiso   1.00
N493   N     0.10974   0.78313   0.10378   0.00000  Uiso   1.00
N494   N     0.22347   0.88323   0.39625   0.00000  Uiso   1.00
O495   O     0.29719   0.91298   0.25309   0.00000  Uiso   1.00
O496   O     0.03614   0.75369   0.24690   0.00000  Uiso   1.00
O497   O     0.05822   0.90368   0.24501   0.00000  Uiso   1.00
O498   O     0.27512   0.76298   0.25498   0.00000  Uiso   1.00
O499   O     0.30328   0.84063   0.32247   0.00000  Uiso   1.00
O500   O     0.03005   0.82603   0.17753   0.00000  Uiso   1.00
O501   O     0.06431   0.83134   0.31439   0.00000  Uiso   1.00
O502   O     0.26902   0.83533   0.18561   0.00000  Uiso   1.00
Zn503  Zn    0.27033   0.83954   0.25539   0.00000  Uiso   1.00
Zn504  Zn    0.06300   0.82713   0.24460   0.00000  Uiso   1.00
C505   C     0.34792   0.93144   0.24907   0.00000  Uiso   1.00
C506   C     0.64560   0.82984   0.15929   0.00000  Uiso   1.00
C507   C     0.36493   0.84209   0.39259   0.00000  Uiso   1.00
C508   C     0.63504   0.82448   0.10741   0.00000  Uiso   1.00
C509   C     0.34838   0.88295   0.47029   0.00000  Uiso   1.00
C510   C     0.65147   0.78344   0.02976   0.00000  Uiso   1.00
C511   C     0.66156   0.86712   0.42351   0.00000  Uiso   1.00
C512   C     0.33834   0.79933   0.07651   0.00000  Uiso   1.00
C513   C     0.41668   0.82593   0.41074   0.00000  Uiso   1.00
C514   C     0.58330   0.84066   0.08926   0.00000  Uiso   1.00
C515   C     0.43607   0.83852   0.45830   0.00000  Uiso   1.00
C516   C     0.65208   0.73523   0.25093   0.00000  Uiso   1.00
C517   C     0.56383   0.82796   0.04173   0.00000  Uiso   1.00
C518   C     0.40278   0.87049   0.48714   0.00000  Uiso   1.00
C519   C     0.59707   0.79593   0.01291   0.00000  Uiso   1.00
C520   C     0.48911   0.82275   0.47697   0.00000  Uiso   1.00
C521   C     0.51077   0.84371   0.02308   0.00000  Uiso   1.00
C522   C     0.39637   0.78988   0.09152   0.00000  Uiso   1.00
C523   C     0.60351   0.87652   0.40850   0.00000  Uiso   1.00
C524   C     0.37938   0.99459   0.19452   0.00000  Uiso   1.00
C525   C     0.43855   0.99107   0.19257   0.00000  Uiso   1.00
C526   C     0.46433   0.99530   0.14950   0.00000  Uiso   1.00
C527   C     0.47852   0.87947   0.04909   0.00000  Uiso   1.00
C528   C     0.43095   0.66862   0.10787   0.00000  Uiso   1.00
C529   C     0.37182   0.67147   0.10931   0.00000  Uiso   1.00
C530   C     0.34608   0.66825   0.15254   0.00000  Uiso   1.00
C531   C     0.62060   0.67207   0.30549   0.00000  Uiso   1.00
C532   C     0.65386   0.99818   0.34743   0.00000  Uiso   1.00
C533   C     0.62811   0.99486   0.39064   0.00000  Uiso   1.00
C534   C     0.56900   0.99780   0.39209   0.00000  Uiso   1.00
C535   C     0.53566   0.67137   0.35051   0.00000  Uiso   1.00
C536   C     0.56145   0.67572   0.30747   0.00000  Uiso   1.00
C537   C     0.52132   0.78695   0.45098   0.00000  Uiso   1.00
C538   C     0.42432   0.89032   0.03224   0.00000  Uiso   1.00
C539   C     0.57550   0.77606   0.46784   0.00000  Uiso   1.00
C540   C     0.35135   0.98403   0.23915   0.00000  Uiso   1.00
C541   C     0.64866   0.68264   0.26087   0.00000  Uiso   1.00
C542   C     0.35440   0.83681   0.34071   0.00000  Uiso   1.00
H543   H     0.39908   0.91471   0.05437   0.00000  Uiso   1.00
H544   H     0.50413   0.87524   0.28608   0.00000  Uiso   1.00
H545   H     0.46426   0.98372   0.22416   0.00000  Uiso   1.00
H546   H     0.50999   0.99255   0.14824   0.00000  Uiso   1.00
H547   H     0.45086   0.67147   0.07439   0.00000  Uiso   1.00
H548   H     0.34599   0.67612   0.07687   0.00000  Uiso   1.00
H549   H     0.63349   0.66965   0.15307   0.00000  Uiso   1.00
H550   H     0.36643   0.99668   0.34688   0.00000  Uiso   1.00
H551   H     0.65392   0.99003   0.42305   0.00000  Uiso   1.00
H552   H     0.54908   0.99485   0.42556   0.00000  Uiso   1.00
H553   H     0.49002   0.67422   0.35179   0.00000  Uiso   1.00
H554   H     0.60071   0.75161   0.44572   0.00000  Uiso   1.00
H555   H     0.53576   0.68325   0.27591   0.00000  Uiso   1.00
H556   H     0.55723   0.86054   0.11397   0.00000  Uiso   1.00
H557   H     0.44284   0.80617   0.38602   0.00000  Uiso   1.00
H558   H     0.65504   0.90492   0.49356   0.00000  Uiso   1.00
H559   H     0.34476   0.76140   0.00651   0.00000  Uiso   1.00
H560   H     0.49339   0.89944   0.08300   0.00000  Uiso   1.00
H561   H     0.50639   0.76696   0.41709   0.00000  Uiso   1.00
H562   H     0.49587   0.79143   0.21392   0.00000  Uiso   1.00
N563   N     0.48029   0.81883   0.23739   0.00000  Uiso   1.00
N564   N     0.51971   0.84784   0.26260   0.00000  Uiso   1.00
N565   N     0.44307   0.78313   0.10378   0.00000  Uiso   1.00
N566   N     0.55680   0.88323   0.39625   0.00000  Uiso   1.00
O567   O     0.63052   0.91298   0.25309   0.00000  Uiso   1.00
O568   O     0.36948   0.75369   0.24690   0.00000  Uiso   1.00
O569   O     0.39155   0.90368   0.24501   0.00000  Uiso   1.00
O570   O     0.60845   0.76298   0.25498   0.00000  Uiso   1.00
O571   O     0.63662   0.84063   0.32247   0.00000  Uiso   1.00
O572   O     0.36338   0.82603   0.17753   0.00000  Uiso   1.00
O573   O     0.39764   0.83134   0.31439   0.00000  Uiso   1.00
O574   O     0.60236   0.83533   0.18561   0.00000  Uiso   1.00
Zn575  Zn    0.60366   0.83954   0.25539   0.00000  Uiso   1.00
Zn576  Zn    0.39634   0.82713   0.24460   0.00000  Uiso   1.00
C577   C     0.68126   0.93144   0.24907   0.00000  Uiso   1.00
C578   C     0.97893   0.82984   0.15929   0.00000  Uiso   1.00
C579   C     0.69826   0.84209   0.39259   0.00000  Uiso   1.00
C580   C     0.96838   0.82448   0.10741   0.00000  Uiso   1.00
C581   C     0.68171   0.88295   0.47029   0.00000  Uiso   1.00
C582   C     0.98480   0.78344   0.02976   0.00000  Uiso   1.00
C583   C     0.99489   0.86712   0.42351   0.00000  Uiso   1.00
C584   C     0.67167   0.79933   0.07651   0.00000  Uiso   1.00
C585   C     0.75001   0.82593   0.41074   0.00000  Uiso   1.00
C586   C     0.91663   0.84066   0.08926   0.00000  Uiso   1.00
C587   C     0.76940   0.83852   0.45830   0.00000  Uiso   1.00
C588   C     0.98541   0.73523   0.25093   0.00000  Uiso   1.00
C589   C     0.89716   0.82796   0.04173   0.00000  Uiso   1.00
C590   C     0.73611   0.87049   0.48714   0.00000  Uiso   1.00
C591   C     0.93041   0.79593   0.01291   0.00000  Uiso   1.00
C592   C     0.82244   0.82275   0.47697   0.00000  Uiso   1.00
C593   C     0.84410   0.84371   0.02308   0.00000  Uiso   1.00
C594   C     0.72970   0.78988   0.09152   0.00000  Uiso   1.00
C595   C     0.93684   0.87652   0.40850   0.00000  Uiso   1.00
C596   C     0.71271   0.99459   0.19452   0.00000  Uiso   1.00
C597   C     0.77188   0.99107   0.19257   0.00000  Uiso   1.00
C598   C     0.79766   0.99530   0.14950   0.00000  Uiso   1.00
C599   C     0.81185   0.87947   0.04909   0.00000  Uiso   1.00
C600   C     0.76428   0.66862   0.10787   0.00000  Uiso   1.00
C601   C     0.70516   0.67147   0.10931   0.00000  Uiso   1.00
C602   C     0.67941   0.66825   0.15254   0.00000  Uiso   1.00
C603   C     0.95393   0.67207   0.30549   0.00000  Uiso   1.00
C604   C     0.98719   0.99818   0.34743   0.00000  Uiso   1.00
C605   C     0.96144   0.99486   0.39064   0.00000  Uiso   1.00
C606   C     0.90234   0.99780   0.39209   0.00000  Uiso   1.00
C607   C     0.86899   0.67137   0.35051   0.00000  Uiso   1.00
C608   C     0.89479   0.67572   0.30747   0.00000  Uiso   1.00
C609   C     0.85465   0.78695   0.45098   0.00000  Uiso   1.00
C610   C     0.75765   0.89032   0.03224   0.00000  Uiso   1.00
C611   C     0.90883   0.77606   0.46784   0.00000  Uiso   1.00
C612   C     0.68468   0.98403   0.23915   0.00000  Uiso   1.00
C613   C     0.98199   0.68264   0.26087   0.00000  Uiso   1.00
C614   C     0.68773   0.83681   0.34071   0.00000  Uiso   1.00
H615   H     0.73241   0.91471   0.05437   0.00000  Uiso   1.00
H616   H     0.83746   0.87524   0.28608   0.00000  Uiso   1.00
H617   H     0.79760   0.98372   0.22416   0.00000  Uiso   1.00
H618   H     0.84332   0.99255   0.14824   0.00000  Uiso   1.00
H619   H     0.78419   0.67147   0.07439   0.00000  Uiso   1.00
H620   H     0.67932   0.67612   0.07687   0.00000  Uiso   1.00
H621   H     0.96683   0.66965   0.15307   0.00000  Uiso   1.00
H622   H     0.69976   0.99668   0.34688   0.00000  Uiso   1.00
H623   H     0.98725   0.99003   0.42305   0.00000  Uiso   1.00
H624   H     0.88242   0.99485   0.42556   0.00000  Uiso   1.00
H625   H     0.82335   0.67422   0.35179   0.00000  Uiso   1.00
H626   H     0.93404   0.75161   0.44572   0.00000  Uiso   1.00
H627   H     0.86910   0.68325   0.27591   0.00000  Uiso   1.00
H628   H     0.89056   0.86054   0.11397   0.00000  Uiso   1.00
H629   H     0.77617   0.80617   0.38602   0.00000  Uiso   1.00
H630   H     0.98838   0.90492   0.49356   0.00000  Uiso   1.00
H631   H     0.67810   0.76140   0.00651   0.00000  Uiso   1.00
H632   H     0.82673   0.89944   0.08300   0.00000  Uiso   1.00
H633   H     0.83973   0.76696   0.41709   0.00000  Uiso   1.00
H634   H     0.82921   0.79143   0.21392   0.00000  Uiso   1.00
N635   N     0.81362   0.81883   0.23739   0.00000  Uiso   1.00
N636   N     0.85305   0.84784   0.26260   0.00000  Uiso   1.00
N637   N     0.77641   0.78313   0.10378   0.00000  Uiso   1.00
N638   N     0.89013   0.88323   0.39625   0.00000  Uiso   1.00
O639   O     0.96386   0.91298   0.25309   0.00000  Uiso   1.00
O640   O     0.70281   0.75369   0.24690   0.00000  Uiso   1.00
O641   O     0.72488   0.90368   0.24501   0.00000  Uiso   1.00
O642   O     0.94178   0.76298   0.25498   0.00000  Uiso   1.00
O643   O     0.96995   0.84063   0.32247   0.00000  Uiso   1.00
O644   O     0.69672   0.82603   0.17753   0.00000  Uiso   1.00
O645   O     0.73098   0.83134   0.31439   0.00000  Uiso   1.00
O646   O     0.93569   0.83533   0.18561   0.00000  Uiso   1.00
Zn647  Zn    0.93700   0.83954   0.25539   0.00000  Uiso   1.00
Zn648  Zn    0.72967   0.82713   0.24460   0.00000  Uiso   1.00
C649   C     0.01459   0.26477   0.74907   0.00000  Uiso   1.00
C650   C     0.31226   0.16317   0.65929   0.00000  Uiso   1.00
C651   C     0.03159   0.17543   0.89259   0.00000  Uiso   1.00
C652   C     0.30171   0.15781   0.60741   0.00000  Uiso   1.00
C653   C     0.01505   0.21628   0.97029   0.00000  Uiso   1.00
C654   C     0.31813   0.11678   0.52976   0.00000  Uiso   1.00
C655   C     0.32823   0.20045   0.92351   0.00000  Uiso   1.00
C656   C     0.00500   0.13266   0.57651   0.00000  Uiso   1.00
C657   C     0.08335   0.15926   0.91074   0.00000  Uiso   1.00
C658   C     0.24997   0.17400   0.58926   0.00000  Uiso   1.00
C659   C     0.10274   0.17185   0.95830   0.00000  Uiso   1.00
C660   C     0.31874   0.06856   0.75093   0.00000  Uiso   1.00
C661   C     0.23050   0.16130   0.54173   0.00000  Uiso   1.00
C662   C     0.06945   0.20382   0.98714   0.00000  Uiso   1.00
C663   C     0.26374   0.12926   0.51291   0.00000  Uiso   1.00
C664   C     0.15578   0.15608   0.97697   0.00000  Uiso   1.00
C665   C     0.17743   0.17705   0.52308   0.00000  Uiso   1.00
C666   C     0.06304   0.12321   0.59152   0.00000  Uiso   1.00
C667   C     0.27018   0.20985   0.90850   0.00000  Uiso   1.00
C668   C     0.04604   0.32792   0.69452   0.00000  Uiso   1.00
C669   C     0.10521   0.32440   0.69257   0.00000  Uiso   1.00
C670   C     0.13099   0.32863   0.64950   0.00000  Uiso   1.00
C671   C     0.14519   0.21280   0.54909   0.00000  Uiso   1.00
C672   C     0.09762   0.00196   0.60787   0.00000  Uiso   1.00
C673   C     0.03849   0.00480   0.60931   0.00000  Uiso   1.00
C674   C     0.01275   0.00159   0.65254   0.00000  Uiso   1.00
C675   C     0.28727   0.00540   0.80549   0.00000  Uiso   1.00
C676   C     0.32053   0.33151   0.84743   0.00000  Uiso   1.00
C677   C     0.29477   0.32820   0.89064   0.00000  Uiso   1.00
C678   C     0.23567   0.33113   0.89209   0.00000  Uiso   1.00
C679   C     0.20233   0.00470   0.85051   0.00000  Uiso   1.00
C680   C     0.22812   0.00905   0.80747   0.00000  Uiso   1.00
C681   C     0.18798   0.12028   0.95098   0.00000  Uiso   1.00
C682   C     0.09099   0.22365   0.53224   0.00000  Uiso   1.00
C683   C     0.24217   0.10939   0.96784   0.00000  Uiso   1.00
C684   C     0.01801   0.31736   0.73915   0.00000  Uiso   1.00
C685   C     0.31532   0.01597   0.76087   0.00000  Uiso   1.00
C686   C     0.02107   0.17014   0.84071   0.00000  Uiso   1.00
H687   H     0.06574   0.24804   0.55437   0.00000  Uiso   1.00
H688   H     0.17079   0.20857   0.78608   0.00000  Uiso   1.00
H689   H     0.13093   0.31705   0.72416   0.00000  Uiso   1.00
H690   H     0.17666   0.32588   0.64824   0.00000  Uiso   1.00
H691   H     0.11753   0.00481   0.57439   0.00000  Uiso   1.00
H692   H     0.01265   0.00946   0.57687   0.00000  Uiso   1.00
H693   H     0.30016   0.00298   0.65307   0.00000  Uiso   1.00
H694   H     0.03310   0.33001   0.84688   0.00000  Uiso   1.00
H695   H     0.32058   0.32337   0.92305   0.00000  Uiso   1.00
H696   H     0.21575   0.32819   0.92556   0.00000  Uiso   1.00
H697   H     0.15668   0.00756   0.85179   0.00000  Uiso   1.00
H698   H     0.26737   0.08495   0.94572   0.00000  Uiso   1.00
H699   H     0.20243   0.01659   0.77591   0.00000  Uiso   1.00
H700   H     0.22389   0.19388   0.61397   0.00000  Uiso   1.00
H701   H     0.10951   0.13950   0.88602   0.00000  Uiso   1.00
H702   H     0.32171   0.23825   0.99356   0.00000  Uiso   1.00
H703   H     0.01143   0.09474   0.50651   0.00000  Uiso   1.00
H704   H     0.16006   0.23277   0.58300   0.00000  Uiso   1.00
H705   H     0.17306   0.10029   0.91709   0.00000  Uiso   1.00
H706   H     0.16254   0.12476   0.71392   0.00000  Uiso   1.00
N707   N     0.14695   0.15216   0.73739   0.00000  Uiso   1.00
N708   N     0.18638   0.18117   0.76260   0.00000  Uiso   1.00
N709   N     0.10974   0.11646   0.60378   0.00000  Uiso   1.00
N710   N     0.22347   0.21657   0.89625   0.00000  Uiso   1.00
O711   O     0.29719   0.24631   0.75309   0.00000  Uiso   1.00
O712   O     0.03614   0.08702   0.74690   0.00000  Uiso   1.00
O713   O     0.05822   0.23702   0.74501   0.00000  Uiso   1.00
O714   O     0.27512   0.09632   0.75498   0.00000  Uiso   1.00
O715   O     0.30328   0.17397   0.82247   0.00000  Uiso   1.00
O716   O     0.03005   0.15937   0.67753   0.00000  Uiso   1.00
O717   O     0.06431   0.16467   0.81439   0.00000  Uiso   1.00
O718   O     0.26902   0.16866   0.68561   0.00000  Uiso   1.00
Zn719  Zn    0.27033   0.17287   0.75539   0.00000  Uiso   1.00
Zn720  Zn    0.06300   0.16046   0.74460   0.00000  Uiso   1.00
C721   C     0.34792   0.26477   0.74907   0.00000  Uiso   1.00
C722   C     0.64560   0.16317   0.65929   0.00000  Uiso   1.00
C723   C     0.36493   0.17543   0.89259   0.00000  Uiso   1.00
C724   C     0.63504   0.15781   0.60741   0.00000  Uiso   1.00
C725   C     0.34838   0.21628   0.97029   0.00000  Uiso   1.00
C726   C     0.65147   0.11678   0.52976   0.00000  Uiso   1.00
C727   C     0.66156   0.20045   0.92351   0.00000  Uiso   1.00
C728   C     0.33834   0.13266   0.57651   0.00000  Uiso   1.00
C729   C     0.41668   0.15926   0.91074   0.00000  Uiso   1.00
C730   C     0.58330   0.17400   0.58926   0.00000  Uiso   1.00
C731   C     0.43607   0.17185   0.95830   0.00000  Uiso   1.00
C732   C     0.65208   0.06856   0.75093   0.00000  Uiso   1.00
C733   C     0.56383   0.16130   0.54173   0.00000  Uiso   1.00
C734   C     0.40278   0.20382   0.98714   0.00000  Uiso   1.00
C735   C     0.59707   0.12926   0.51291   0.00000  Uiso   1.00
C736   C     0.48911   0.15608   0.97697   0.00000  Uiso   1.00
C737   C     0.51077   0.17705   0.52308   0.00000  Uiso   1.00
C738   C     0.39637   0.12321   0.59152   0.00000  Uiso   1.00
C739   C     0.60351   0.20985   0.90850   0.00000  Uiso   1.00
C740   C     0.37938   0.32792   0.69452   0.00000  Uiso   1.00
C741   C     0.43855   0.32440   0.69257   0.00000  Uiso   1.00
C742   C     0.46433   0.32863   0.64950   0.00000  Uiso   1.00
C743   C     0.47852   0.21280   0.54909   0.00000  Uiso   1.00
C744   C     0.43095   0.00196   0.60787   0.00000  Uiso   1.00
C745   C     0.37182   0.00480   0.60931   0.00000  Uiso   1.00
C746   C     0.34608   0.00159   0.65254   0.00000  Uiso   1.00
C747   C     0.62060   0.00540   0.80549   0.00000  Uiso   1.00
C748   C     0.65386   0.33151   0.84743   0.00000  Uiso   1.00
C749   C     0.62811   0.32820   0.89064   0.00000  Uiso   1.00
C750   C     0.56900   0.33113   0.89209   0.00000  Uiso   1.00
C751   C     0.53566   0.00470   0.85051   0.00000  Uiso   1.00
C752   C     0.56145   0.00905   0.80747   0.00000  Uiso   1.00
C753   C     0.52132   0.12028   0.95098   0.00000  Uiso   1.00
C754   C     0.42432   0.22365   0.53224   0.00000  Uiso   1.00
C755   C     0.57550   0.10939   0.96784   0.00000  Uiso   1.00
C756   C     0.35135   0.31736   0.73915   0.00000  Uiso   1.00
C757   C     0.64866   0.01597   0.76087   0.00000  Uiso   1.00
C758   C     0.35440   0.17014   0.84071   0.00000  Uiso   1.00
H759   H     0.39908   0.24804   0.55437   0.00000  Uiso   1.00
H760   H     0.50413   0.20857   0.78608   0.00000  Uiso   1.00
H761   H     0.46426   0.31705   0.72416   0.00000  Uiso   1.00
H762   H     0.50999   0.32588   0.64824   0.00000  Uiso   1.00
H763   H     0.45086   0.00481   0.57439   0.00000  Uiso   1.00
H764   H     0.34599   0.00946   0.57687   0.00000  Uiso   1.00
H765   H     0.63349   0.00298   0.65307   0.00000  Uiso   1.00
H766   H     0.36643   0.33001   0.84688   0.00000  Uiso   1.00
H767   H     0.65392   0.32337   0.92305   0.00000  Uiso   1.00
H768   H     0.54908   0.32819   0.92556   0.00000  Uiso   1.00
H769   H     0.49002   0.00756   0.85179   0.00000  Uiso   1.00
H770   H     0.60071   0.08495   0.94572   0.00000  Uiso   1.00
H771   H     0.53576   0.01659   0.77591   0.00000  Uiso   1.00
H772   H     0.55723   0.19388   0.61397   0.00000  Uiso   1.00
H773   H     0.44284   0.13950   0.88602   0.00000  Uiso   1.00
H774   H     0.65504   0.23825   0.99356   0.00000  Uiso   1.00
H775   H     0.34476   0.09474   0.50651   0.00000  Uiso   1.00
H776   H     0.49339   0.23277   0.58300   0.00000  Uiso   1.00
H777   H     0.50639   0.10029   0.91709   0.00000  Uiso   1.00
H778   H     0.49587   0.12476   0.71392   0.00000  Uiso   1.00
N779   N     0.48029   0.15216   0.73739   0.00000  Uiso   1.00
N780   N     0.51971   0.18117   0.76260   0.00000  Uiso   1.00
N781   N     0.44307   0.11646   0.60378   0.00000  Uiso   1.00
N782   N     0.55680   0.21657   0.89625   0.00000  Uiso   1.00
O783   O     0.63052   0.24631   0.75309   0.00000  Uiso   1.00
O784   O     0.36948   0.08702   0.74690   0.00000  Uiso   1.00
O785   O     0.39155   0.23702   0.74501   0.00000  Uiso   1.00
O786   O     0.60845   0.09632   0.75498   0.00000  Uiso   1.00
O787   O     0.63662   0.17397   0.82247   0.00000  Uiso   1.00
O788   O     0.36338   0.15937   0.67753   0.00000  Uiso   1.00
O789   O     0.39764   0.16467   0.81439   0.00000  Uiso   1.00
O790   O     0.60236   0.16866   0.68561   0.00000  Uiso   1.00
Zn791  Zn    0.60366   0.17287   0.75539   0.00000  Uiso   1.00
Zn792  Zn    0.39634   0.16046   0.74460   0.00000  Uiso   1.00
C793   C     0.68126   0.26477   0.74907   0.00000  Uiso   1.00
C794   C     0.97893   0.16317   0.65929   0.00000  Uiso   1.00
C795   C     0.69826   0.17543   0.89259   0.00000  Uiso   1.00
C796   C     0.96838   0.15781   0.60741   0.00000  Uiso   1.00
C797   C     0.68171   0.21628   0.97029   0.00000  Uiso   1.00
C798   C     0.98480   0.11678   0.52976   0.00000  Uiso   1.00
C799   C     0.99489   0.20045   0.92351   0.00000  Uiso   1.00
C800   C     0.67167   0.13266   0.57651   0.00000  Uiso   1.00
C801   C     0.75001   0.15926   0.91074   0.00000  Uiso   1.00
C802   C     0.91663   0.17400   0.58926   0.00000  Uiso   1.00
C803   C     0.76940   0.17185   0.95830   0.00000  Uiso   1.00
C804   C     0.98541   0.06856   0.75093   0.00000  Uiso   1.00
C805   C     0.89716   0.16130   0.54173   0.00000  Uiso   1.00
C806   C     0.73611   0.20382   0.98714   0.00000  Uiso   1.00
C807   C     0.93041   0.12926   0.51291   0.00000  Uiso   1.00
C808   C     0.82244   0.15608   0.97697   0.00000  Uiso   1.00
C809   C     0.84410   0.17705   0.52308   0.00000  Uiso   1.00
C810   C     0.72970   0.12321   0.59152   0.00000  Uiso   1.00
C811   C     0.93684   0.20985   0.90850   0.00000  Uiso   1.00
C812   C     0.71271   0.32792   0.69452   0.00000  Uiso   1.00
C813   C     0.77188   0.32440   0.69257   0.00000  Uiso   1.00
C814   C     0.79766   0.32863   0.64950   0.00000  Uiso   1.00
C815   C     0.81185   0.21280   0.54909   0.00000  Uiso   1.00
C816   C     0.76428   0.00196   0.60787   0.00000  Uiso   1.00
C817   C     0.70516   0.00480   0.60931   0.00000  Uiso   1.00
C818   C     0.67941   0.00159   0.65254   0.00000  Uiso   1.00
C819   C     0.95393   0.00540   0.80549   0.00000  Uiso   1.00
C820   C     0.98719   0.33151   0.84743   0.00000  Uiso   1.00
C821   C     0.96144   0.32820   0.89064   0.00000  Uiso   1.00
C822   C     0.90234   0.33113   0.89209   0.00000  Uiso   1.00
C823   C     0.86899   0.00470   0.85051   0.00000  Uiso   1.00
C824   C     0.89479   0.00905   0.80747   0.00000  Uiso   1.00
C825   C     0.85465   0.12028   0.95098   0.00000  Uiso   1.00
C826   C     0.75765   0.22365   0.53224   0.00000  Uiso   1.00
C827   C     0.90883   0.10939   0.96784   0.00000  Uiso   1.00
C828   C     0.68468   0.31736   0.73915   0.00000  Uiso   1.00
C829   C     0.98199   0.01597   0.76087   0.00000  Uiso   1.00
C830   C     0.68773   0.17014   0.84071   0.00000  Uiso   1.00
H831   H     0.73241   0.24804   0.55437   0.00000  Uiso   1.00
H832   H     0.83746   0.20857   0.78608   0.00000  Uiso   1.00
H833   H     0.79760   0.31705   0.72416   0.00000  Uiso   1.00
H834   H     0.84332   0.32588   0.64824   0.00000  Uiso   1.00
H835   H     0.78419   0.00481   0.57439   0.00000  Uiso   1.00
H836   H     0.67932   0.00946   0.57687   0.00000  Uiso   1.00
H837   H     0.96683   0.00298   0.65307   0.00000  Uiso   1.00
H838   H     0.69976   0.33001   0.84688   0.00000  Uiso   1.00
H839   H     0.98725   0.32337   0.92305   0.00000  Uiso   1.00
H840   H     0.88242   0.32819   0.92556   0.00000  Uiso   1.00
H841   H     0.82335   0.00756   0.85179   0.00000  Uiso   1.00
H842   H     0.93404   0.08495   0.94572   0.00000  Uiso   1.00
H843   H     0.86910   0.01659   0.77591   0.00000  Uiso   1.00
H844   H     0.89056   0.19388   0.61397   0.00000  Uiso   1.00
H845   H     0.77617   0.13950   0.88602   0.00000  Uiso   1.00
H846   H     0.98838   0.23825   0.99356   0.00000  Uiso   1.00
H847   H     0.67810   0.09474   0.50651   0.00000  Uiso   1.00
H848   H     0.82673   0.23277   0.58300   0.00000  Uiso   1.00
H849   H     0.83973   0.10029   0.91709   0.00000  Uiso   1.00
H850   H     0.82921   0.12476   0.71392   0.00000  Uiso   1.00
N851   N     0.81362   0.15216   0.73739   0.00000  Uiso   1.00
N852   N     0.85305   0.18117   0.76260   0.00000  Uiso   1.00
N853   N     0.77641   0.11646   0.60378   0.00000  Uiso   1.00
N854   N     0.89013   0.21657   0.89625   0.00000  Uiso   1.00
O855   O     0.96386   0.24631   0.75309   0.00000  Uiso   1.00
O856   O     0.70281   0.08702   0.74690   0.00000  Uiso   1.00
O857   O     0.72488   0.23702   0.74501   0.00000  Uiso   1.00
O858   O     0.94178   0.09632   0.75498   0.00000  Uiso   1.00
O859   O     0.96995   0.17397   0.82247   0.00000  Uiso   1.00
O860   O     0.69672   0.15937   0.67753   0.00000  Uiso   1.00
O861   O     0.73098   0.16467   0.81439   0.00000  Uiso   1.00
O862   O     0.93569   0.16866   0.68561   0.00000  Uiso   1.00
Zn863  Zn    0.93700   0.17287   0.75539   0.00000  Uiso   1.00
Zn864  Zn    0.72967   0.16046   0.74460   0.00000  Uiso   1.00
C865   C     0.01459   0.59810   0.74907   0.00000  Uiso   1.00
C866   C     0.31226   0.49651   0.65929   0.00000  Uiso   1.00
C867   C     0.03159   0.50876   0.89259   0.00000  Uiso   1.00
C868   C     0.30171   0.49115   0.60741   0.00000  Uiso   1.00
C869   C     0.01505   0.54961   0.97029   0.00000  Uiso   1.00
C870   C     0.31813   0.45011   0.52976   0.00000  Uiso   1.00
C871   C     0.32823   0.53378   0.92351   0.00000  Uiso   1.00
C872   C     0.00500   0.46600   0.57651   0.00000  Uiso   1.00
C873   C     0.08335   0.49260   0.91074   0.00000  Uiso   1.00
C874   C     0.24997   0.50733   0.58926   0.00000  Uiso   1.00
C875   C     0.10274   0.50519   0.95830   0.00000  Uiso   1.00
C876   C     0.31874   0.40189   0.75093   0.00000  Uiso   1.00
C877   C     0.23050   0.49463   0.54173   0.00000  Uiso   1.00
C878   C     0.06945   0.53715   0.98714   0.00000  Uiso   1.00
C879   C     0.26374   0.46260   0.51291   0.00000  Uiso   1.00
C880   C     0.15578   0.48941   0.97697   0.00000  Uiso   1.00
C881   C     0.17743   0.51038   0.52308   0.00000  Uiso   1.00
C882   C     0.06304   0.45654   0.59152   0.00000  Uiso   1.00
C883   C     0.27018   0.54318   0.90850   0.00000  Uiso   1.00
C884   C     0.04604   0.66125   0.69452   0.00000  Uiso   1.00
C885   C     0.10521   0.65774   0.69257   0.00000  Uiso   1.00
C886   C     0.13099   0.66197   0.64950   0.00000  Uiso   1.00
C887   C     0.14519   0.54613   0.54909   0.00000  Uiso   1.00
C888   C     0.09762   0.33529   0.60787   0.00000  Uiso   1.00
C889   C     0.03849   0.33813   0.60931   0.00000  Uiso   1.00
C890   C     0.01275   0.33492   0.65254   0.00000  Uiso   1.00
C891   C     0.28727   0.33874   0.80549   0.00000  Uiso   1.00
C892   C     0.32053   0.66485   0.84743   0.00000  Uiso   1.00
C893   C     0.29477   0.66153   0.89064   0.00000  Uiso   1.00
C894   C     0.23567   0.66447   0.89209   0.00000  Uiso   1.00
C895   C     0.20233   0.33804   0.85051   0.00000  Uiso   1.00
C896   C     0.22812   0.34239   0.80747   0.00000  Uiso   1.00
C897   C     0.18798   0.45362   0.95098   0.00000  Uiso   1.00
C898   C     0.09099   0.55699   0.53224   0.00000  Uiso   1.00
C899   C     0.24217   0.44272   0.96784   0.00000  Uiso   1.00
C900   C     0.01801   0.65070   0.73915   0.00000  Uiso   1.00
C901   C     0.31532   0.34931   0.76087   0.00000  Uiso   1.00
C902   C     0.02107   0.50348   0.84071   0.00000  Uiso   1.00
H903   H     0.06574   0.58137   0.55437   0.00000  Uiso   1.00
H904   H     0.17079   0.54190   0.78608   0.00000  Uiso   1.00
H905   H     0.13093   0.65038   0.72416   0.00000  Uiso   1.00
H906   H     0.17666   0.65921   0.64824   0.00000  Uiso   1.00
H907   H     0.11753   0.33814   0.57439   0.00000  Uiso   1.00
H908   H     0.01265   0.34279   0.57687   0.00000  Uiso   1.00
H909   H     0.30016   0.33632   0.65307   0.00000  Uiso   1.00
H910   H     0.03310   0.66335   0.84688   0.00000  Uiso   1.00
H911   H     0.32058   0.65670   0.92305   0.00000  Uiso   1.00
H912   H     0.21575   0.66152   0.92556   0.00000  Uiso   1.00
H913   H     0.15668   0.34089   0.85179   0.00000  Uiso   1.00
H914   H     0.26737   0.41828   0.94572   0.00000  Uiso   1.00
H915   H     0.20243   0.34992   0.77591   0.00000  Uiso   1.00
H916   H     0.22389   0.52721   0.61397   0.00000  Uiso   1.00
H917   H     0.10951   0.47283   0.88602   0.00000  Uiso   1.00
H918   H     0.32171   0.57159   0.99356   0.00000  Uiso   1.00
H919   H     0.01143   0.42807   0.50651   0.00000  Uiso   1.00
H920   H     0.16006   0.56611   0.58300   0.00000  Uiso   1.00
H921   H     0.17306   0.43362   0.91709   0.00000  Uiso   1.00
H922   H     0.16254   0.45809   0.71392   0.00000  Uiso   1.00
N923   N     0.14695   0.48550   0.73739   0.00000  Uiso   1.00
N924   N     0.18638   0.51450   0.76260   0.00000  Uiso   1.00
N925   N     0.10974   0.44980   0.60378   0.00000  Uiso   1.00
N926   N     0.22347   0.54990   0.89625   0.00000  Uiso   1.00
O927   O     0.29719   0.57964   0.75309   0.00000  Uiso   1.00
O928   O     0.03614   0.42036   0.74690   0.00000  Uiso   1.00
O929   O     0.05822   0.57035   0.74501   0.00000  Uiso   1.00
O930   O     0.27512   0.42965   0.75498   0.00000  Uiso   1.00
O931   O     0.30328   0.50730   0.82247   0.00000  Uiso   1.00
O932   O     0.03005   0.49270   0.67753   0.00000  Uiso   1.00
O933   O     0.06431   0.49801   0.81439   0.00000  Uiso   1.00
O934   O     0.26902   0.50199   0.68561   0.00000  Uiso   1.00
Zn935  Zn    0.27033   0.50621   0.75539   0.00000  Uiso   1.00
Zn936  Zn    0.06300   0.49379   0.74460   0.00000  Uiso   1.00
C937   C     0.34792   0.59810   0.74907   0.00000  Uiso   1.00
C938   C     0.64560   0.49651   0.65929   0.00000  Uiso   1.00
C939   C     0.36493   0.50876   0.89259   0.00000  Uiso   1.00
C940   C     0.63504   0.49115   0.60741   0.00000  Uiso   1.00
C941   C     0.34838   0.54961   0.97029   0.00000  Uiso   1.00
C942   C     0.65147   0.45011   0.52976   0.00000  Uiso   1.00
C943   C     0.66156   0.53378   0.92351   0.00000  Uiso   1.00
C944   C     0.33834   0.46600   0.57651   0.00000  Uiso   1.00
C945   C     0.41668   0.49260   0.91074   0.00000  Uiso   1.00
C946   C     0.58330   0.50733   0.58926   0.00000  Uiso   1.00
C947   C     0.43607   0.50519   0.95830   0.00000  Uiso   1.00
C948   C     0.65208   0.40189   0.75093   0.00000  Uiso   1.00
C949   C     0.56383   0.49463   0.54173   0.00000  Uiso   1.00
C950   C     0.40278   0.53715   0.98714   0.00000  Uiso   1.00
C951   C     0.59707   0.46260   0.51291   0.00000  Uiso   1.00
C952   C     0.48911   0.48941   0.97697   0.00000  Uiso   1.00
C953   C     0.51077   0.51038   0.52308   0.00000  Uiso   1.00
C954   C     0.39637   0.45654   0.59152   0.00000  Uiso   1.00
C955   C     0.60351   0.54318   0.90850   0.00000  Uiso   1.00
C956   C     0.37938   0.66125   0.69452   0.00000  Uiso   1.00
C957   C     0.43855   0.65774   0.69257   0.00000  Uiso   1.00
C958   C     0.46433   0.66197   0.64950   0.00000  Uiso   1.00
C959   C     0.47852   0.54613   0.54909   0.00000  Uiso   1.00
C960   C     0.43095   0.33529   0.60787   0.00000  Uiso   1.00
C961   C     0.37182   0.33813   0.60931   0.00000  Uiso   1.00
C962   C     0.34608   0.33492   0.65254   0.00000  Uiso   1.00
C963   C     0.62060   0.33874   0.80549   0.00000  Uiso   1.00
C964   C     0.65386   0.66485   0.84743   0.00000  Uiso   1.00
C965   C     0.62811   0.66153   0.89064   0.00000  Uiso   1.00
C966   C     0.56900   0.66447   0.89209   0.00000  Uiso   1.00
C967   C     0.53566   0.33804   0.85051   0.00000  Uiso   1.00
C968   C     0.56145   0.34239   0.80747   0.00000  Uiso   1.00
C969   C     0.52132   0.45362   0.95098   0.00000  Uiso   1.00
C970   C     0.42432   0.55699   0.53224   0.00000  Uiso   1.00
C971   C     0.57550   0.44272   0.96784   0.00000  Uiso   1.00
C972   C     0.35135   0.65070   0.73915   0.00000  Uiso   1.00
C973   C     0.64866   0.34931   0.76087   0.00000  Uiso   1.00
C974   C     0.35440   0.50348   0.84071   0.00000  Uiso   1.00
H975   H     0.39908   0.58137   0.55437   0.00000  Uiso   1.00
H976   H     0.50413   0.54190   0.78608   0.00000  Uiso   1.00
H977   H     0.46426   0.65038   0.72416   0.00000  Uiso   1.00
H978   H     0.50999   0.65921   0.64824   0.00000  Uiso   1.00
H979   H     0.45086   0.33814   0.57439   0.00000  Uiso   1.00
H980   H     0.34599   0.34279   0.57687   0.00000  Uiso   1.00
H981   H     0.63349   0.33632   0.65307   0.00000  Uiso   1.00
H982   H     0.36643   0.66335   0.84688   0.00000  Uiso   1.00
H983   H     0.65392   0.65670   0.92305   0.00000  Uiso   1.00
H984   H     0.54908   0.66152   0.92556   0.00000  Uiso   1.00
H985   H     0.49002   0.34089   0.85179   0.00000  Uiso   1.00
H986   H     0.60071   0.41828   0.94572   0.00000  Uiso   1.00
H987   H     0.53576   0.34992   0.77591   0.00000  Uiso   1.00
H988   H     0.55723   0.52721   0.61397   0.00000  Uiso   1.00
H989   H     0.44284   0.47283   0.88602   0.00000  Uiso   1.00
H990   H     0.65504   0.57159   0.99356   0.00000  Uiso   1.00
H991   H     0.34476   0.42807   0.50651   0.00000  Uiso   1.00
H992   H     0.49339   0.56611   0.58300   0.00000  Uiso   1.00
H993   H     0.50639   0.43362   0.91709   0.00000  Uiso   1.00
H994   H     0.49587   0.45809   0.71392   0.00000  Uiso   1.00
N995   N     0.48029   0.48550   0.73739   0.00000  Uiso   1.00
N996   N     0.51971   0.51450   0.76260   0.00000  Uiso   1.00
N997   N     0.44307   0.44980   0.60378   0.00000  Uiso   1.00
N998   N     0.55680   0.54990   0.89625   0.00000  Uiso   1.00
O999   O     0.63052   0.57964   0.75309   0.00000  Uiso   1.00
O1000  O     0.36948   0.42036   0.74690   0.00000  Uiso   1.00
O1001  O     0.39155   0.57035   0.74501   0.00000  Uiso   1.00
O1002  O     0.60845   0.42965   0.75498   0.00000  Uiso   1.00
O1003  O     0.63662   0.50730   0.82247   0.00000  Uiso   1.00
O1004  O     0.36338   0.49270   0.67753   0.00000  Uiso   1.00
O1005  O     0.39764   0.49801   0.81439   0.00000  Uiso   1.00
O1006  O     0.60236   0.50199   0.68561   0.00000  Uiso   1.00
Zn1007 Zn    0.60366   0.50621   0.75539   0.00000  Uiso   1.00
Zn1008 Zn    0.39634   0.49379   0.74460   0.00000  Uiso   1.00
C1009  C     0.68126   0.59810   0.74907   0.00000  Uiso   1.00
C1010  C     0.97893   0.49651   0.65929   0.00000  Uiso   1.00
C1011  C     0.69826   0.50876   0.89259   0.00000  Uiso   1.00
C1012  C     0.96838   0.49115   0.60741   0.00000  Uiso   1.00
C1013  C     0.68171   0.54961   0.97029   0.00000  Uiso   1.00
C1014  C     0.98480   0.45011   0.52976   0.00000  Uiso   1.00
C1015  C     0.99489   0.53378   0.92351   0.00000  Uiso   1.00
C1016  C     0.67167   0.46600   0.57651   0.00000  Uiso   1.00
C1017  C     0.75001   0.49260   0.91074   0.00000  Uiso   1.00
C1018  C     0.91663   0.50733   0.58926   0.00000  Uiso   1.00
C1019  C     0.76940   0.50519   0.95830   0.00000  Uiso   1.00
C1020  C     0.98541   0.40189   0.75093   0.00000  Uiso   1.00
C1021  C     0.89716   0.49463   0.54173   0.00000  Uiso   1.00
C1022  C     0.73611   0.53715   0.98714   0.00000  Uiso   1.00
C1023  C     0.93041   0.46260   0.51291   0.00000  Uiso   1.00
C1024  C     0.82244   0.48941   0.97697   0.00000  Uiso   1.00
C1025  C     0.84410   0.51038   0.52308   0.00000  Uiso   1.00
C1026  C     0.72970   0.45654   0.59152   0.00000  Uiso   1.00
C1027  C     0.93684   0.54318   0.90850   0.00000  Uiso   1.00
C1028  C     0.71271   0.66125   0.69452   0.00000  Uiso   1.00
C1029  C     0.77188   0.65774   0.69257   0.00000  Uiso   1.00
C1030  C     0.79766   0.66197   0.64950   0.00000  Uiso   1.00
C1031  C     0.81185   0.54613   0.54909   0.00000  Uiso   1.00
C1032  C     0.76428   0.33529   0.60787   0.00000  Uiso   1.00
C1033  C     0.70516   0.33813   0.60931   0.00000  Uiso   1.00
C1034  C     0.67941   0.33492   0.65254   0.00000  Uiso   1.00
C1035  C     0.95393   0.33874   0.80549   0.00000  Uiso   1.00
C1036  C     0.98719   0.66485   0.84743   0.00000  Uiso   1.00
C1037  C     0.96144   0.66153   0.89064   0.00000  Uiso   1.00
C1038  C     0.90234   0.66447   0.89209   0.00000  Uiso   1.00
C1039  C     0.86899   0.33804   0.85051   0.00000  Uiso   1.00
C1040  C     0.89479   0.34239   0.80747   0.00000  Uiso   1.00
C1041  C     0.85465   0.45362   0.95098   0.00000  Uiso   1.00
C1042  C     0.75765   0.55699   0.53224   0.00000  Uiso   1.00
C1043  C     0.90883   0.44272   0.96784   0.00000  Uiso   1.00
C1044  C     0.68468   0.65070   0.73915   0.00000  Uiso   1.00
C1045  C     0.98199   0.34931   0.76087   0.00000  Uiso   1.00
C1046  C     0.68773   0.50348   0.84071   0.00000  Uiso   1.00
H1047  H     0.73241   0.58137   0.55437   0.00000  Uiso   1.00
H1048  H     0.83746   0.54190   0.78608   0.00000  Uiso   1.00
H1049  H     0.79760   0.65038   0.72416   0.00000  Uiso   1.00
H1050  H     0.84332   0.65921   0.64824   0.00000  Uiso   1.00
H1051  H     0.78419   0.33814   0.57439   0.00000  Uiso   1.00
H1052  H     0.67932   0.34279   0.57687   0.00000  Uiso   1.00
H1053  H     0.96683   0.33632   0.65307   0.00000  Uiso   1.00
H1054  H     0.69976   0.66335   0.84688   0.00000  Uiso   1.00
H1055  H     0.98725   0.65670   0.92305   0.00000  Uiso   1.00
H1056  H     0.88242   0.66152   0.92556   0.00000  Uiso   1.00
H1057  H     0.82335   0.34089   0.85179   0.00000  Uiso   1.00
H1058  H     0.93404   0.41828   0.94572   0.00000  Uiso   1.00
H1059  H     0.86910   0.34992   0.77591   0.00000  Uiso   1.00
H1060  H     0.89056   0.52721   0.61397   0.00000  Uiso   1.00
H1061  H     0.77617   0.47283   0.88602   0.00000  Uiso   1.00
H1062  H     0.98838   0.57159   0.99356   0.00000  Uiso   1.00
H1063  H     0.67810   0.42807   0.50651   0.00000  Uiso   1.00
H1064  H     0.82673   0.56611   0.58300   0.00000  Uiso   1.00
H1065  H     0.83973   0.43362   0.91709   0.00000  Uiso   1.00
H1066  H     0.82921   0.45809   0.71392   0.00000  Uiso   1.00
N1067  N     0.81362   0.48550   0.73739   0.00000  Uiso   1.00
N1068  N     0.85305   0.51450   0.76260   0.00000  Uiso   1.00
N1069  N     0.77641   0.44980   0.60378   0.00000  Uiso   1.00
N1070  N     0.89013   0.54990   0.89625   0.00000  Uiso   1.00
O1071  O     0.96386   0.57964   0.75309   0.00000  Uiso   1.00
O1072  O     0.70281   0.42036   0.74690   0.00000  Uiso   1.00
O1073  O     0.72488   0.57035   0.74501   0.00000  Uiso   1.00
O1074  O     0.94178   0.42965   0.75498   0.00000  Uiso   1.00
O1075  O     0.96995   0.50730   0.82247   0.00000  Uiso   1.00
O1076  O     0.69672   0.49270   0.67753   0.00000  Uiso   1.00
O1077  O     0.73098   0.49801   0.81439   0.00000  Uiso   1.00
O1078  O     0.93569   0.50199   0.68561   0.00000  Uiso   1.00
Zn1079 Zn    0.93700   0.50621   0.75539   0.00000  Uiso   1.00
Zn1080 Zn    0.72967   0.49379   0.74460   0.00000  Uiso   1.00
C1081  C     0.01459   0.93144   0.74907   0.00000  Uiso   1.00
C1082  C     0.31226   0.82984   0.65929   0.00000  Uiso   1.00
C1083  C     0.03159   0.84209   0.89259   0.00000  Uiso   1.00
C1084  C     0.30171   0.82448   0.60741   0.00000  Uiso   1.00
C1085  C     0.01505   0.88295   0.97029   0.00000  Uiso   1.00
C1086  C     0.31813   0.78344   0.52976   0.00000  Uiso   1.00
C1087  C     0.32823   0.86712   0.92351   0.00000  Uiso   1.00
C1088  C     0.00500   0.79933   0.57651   0.00000  Uiso   1.00
C1089  C     0.08335   0.82593   0.91074   0.00000  Uiso   1.00
C1090  C     0.24997   0.84066   0.58926   0.00000  Uiso   1.00
C1091  C     0.10274   0.83852   0.95830   0.00000  Uiso   1.00
C1092  C     0.31874   0.73523   0.75093   0.00000  Uiso   1.00
C1093  C     0.23050   0.82796   0.54173   0.00000  Uiso   1.00
C1094  C     0.06945   0.87049   0.98714   0.00000  Uiso   1.00
C1095  C     0.26374   0.79593   0.51291   0.00000  Uiso   1.00
C1096  C     0.15578   0.82275   0.97697   0.00000  Uiso   1.00
C1097  C     0.17743   0.84371   0.52308   0.00000  Uiso   1.00
C1098  C     0.06304   0.78988   0.59152   0.00000  Uiso   1.00
C1099  C     0.27018   0.87652   0.90850   0.00000  Uiso   1.00
C1100  C     0.04604   0.99459   0.69452   0.00000  Uiso   1.00
C1101  C     0.10521   0.99107   0.69257   0.00000  Uiso   1.00
C1102  C     0.13099   0.99530   0.64950   0.00000  Uiso   1.00
C1103  C     0.14519   0.87947   0.54909   0.00000  Uiso   1.00
C1104  C     0.09762   0.66862   0.60787   0.00000  Uiso   1.00
C1105  C     0.03849   0.67147   0.60931   0.00000  Uiso   1.00
C1106  C     0.01275   0.66825   0.65254   0.00000  Uiso   1.00
C1107  C     0.28727   0.67207   0.80549   0.00000  Uiso   1.00
C1108  C     0.32053   0.99818   0.84743   0.00000  Uiso   1.00
C1109  C     0.29477   0.99486   0.89064   0.00000  Uiso   1.00
C1110  C     0.23567   0.99780   0.89209   0.00000  Uiso   1.00
C1111  C     0.20233   0.67137   0.85051   0.00000  Uiso   1.00
C1112  C     0.22812   0.67572   0.80747   0.00000  Uiso   1.00
C1113  C     0.18798   0.78695   0.95098   0.00000  Uiso   1.00
C1114  C     0.09099   0.89032   0.53224   0.00000  Uiso   1.00
C1115  C     0.24217   0.77606   0.96784   0.00000  Uiso   1.00
C1116  C     0.01801   0.98403   0.73915   0.00000  Uiso   1.00
C1117  C     0.31532   0.68264   0.76087   0.00000  Uiso   1.00
C1118  C     0.02107   0.83681   0.84071   0.00000  Uiso   1.00
H1119  H     0.06574   0.91471   0.55437   0.00000  Uiso   1.00
H1120  H     0.17079   0.87524   0.78608   0.00000  Uiso   1.00
H1121  H     0.13093   0.98372   0.72416   0.00000  Uiso   1.00
H1122  H     0.17666   0.99255   0.64824   0.00000  Uiso   1.00
H1123  H     0.11753   0.67147   0.57439   0.00000  Uiso   1.00
H1124  H     0.01265   0.67612   0.57687   0.00000  Uiso   1.00
H1125  H     0.30016   0.66965   0.65307   0.00000  Uiso   1.00
H1126  H     0.03310   0.99668   0.84688   0.00000  Uiso   1.00
H1127  H     0.32058   0.99003   0.92305   0.00000  Uiso   1.00
H1128  H     0.21575   0.99485   0.92556   0.00000  Uiso   1.00
H1129  H     0.15668   0.67422   0.85179   0.00000  Uiso   1.00
H1130  H     0.26737   0.75161   0.94572   0.00000  Uiso   1.00
H1131  H     0.20243   0.68325   0.77591   0.00000  Uiso   1.00
H1132  H     0.22389   0.86054   0.61397   0.00000  Uiso   1.00
H1133  H     0.10951   0.80617   0.88602   0.00000  Uiso   1.00
H1134  H     0.32171   0.90492   0.99356   0.00000  Uiso   1.00
H1135  H     0.01143   0.76140   0.50651   0.00000  Uiso   1.00
H1136  H     0.16006   0.89944   0.58300   0.00000  Uiso   1.00
H1137  H     0.17306   0.76696   0.91709   0.00000  Uiso   1.00
H1138  H     0.16254   0.79143   0.71392   0.00000  Uiso   1.00
N1139  N     0.14695   0.81883   0.73739   0.00000  Uiso   1.00
N1140  N     0.18638   0.84784   0.76260   0.00000  Uiso   1.00
N1141  N     0.10974   0.78313   0.60378   0.00000  Uiso   1.00
N1142  N     0.22347   0.88323   0.89625   0.00000  Uiso   1.00
O1143  O     0.29719   0.91298   0.75309   0.00000  Uiso   1.00
O1144  O     0.03614   0.75369   0.74690   0.00000  Uiso   1.00
O1145  O     0.05822   0.90368   0.74501   0.00000  Uiso   1.00
O1146  O     0.27512   0.76298   0.75498   0.00000  Uiso   1.00
O1147  O     0.30328   0.84063   0.82247   0.00000  Uiso   1.00
O1148  O     0.03005   0.82603   0.67753   0.00000  Uiso   1.00
O1149  O     0.06431   0.83134   0.81439   0.00000  Uiso   1.00
O1150  O     0.26902   0.83533   0.68561   0.00000  Uiso   1.00
Zn1151 Zn    0.27033   0.83954   0.75539   0.00000  Uiso   1.00
Zn1152 Zn    0.06300   0.82713   0.74460   0.00000  Uiso   1.00
C1153  C     0.34792   0.93144   0.74907   0.00000  Uiso   1.00
C1154  C     0.64560   0.82984   0.65929   0.00000  Uiso   1.00
C1155  C     0.36493   0.84209   0.89259   0.00000  Uiso   1.00
C1156  C     0.63504   0.82448   0.60741   0.00000  Uiso   1.00
C1157  C     0.34838   0.88295   0.97029   0.00000  Uiso   1.00
C1158  C     0.65147   0.78344   0.52976   0.00000  Uiso   1.00
C1159  C     0.66156   0.86712   0.92351   0.00000  Uiso   1.00
C1160  C     0.33834   0.79933   0.57651   0.00000  Uiso   1.00
C1161  C     0.41668   0.82593   0.91074   0.00000  Uiso   1.00
C1162  C     0.58330   0.84066   0.58926   0.00000  Uiso   1.00
C1163  C     0.43607   0.83852   0.95830   0.00000  Uiso   1.00
C1164  C     0.65208   0.73523   0.75093   0.00000  Uiso   1.00
C1165  C     0.56383   0.82796   0.54173   0.00000  Uiso   1.00
C1166  C     0.40278   0.87049   0.98714   0.00000  Uiso   1.00
C1167  C     0.59707   0.79593   0.51291   0.00000  Uiso   1.00
C1168  C     0.48911   0.82275   0.97697   0.00000  Uiso   1.00
C1169  C     0.51077   0.84371   0.52308   0.00000  Uiso   1.00
C1170  C     0.39637   0.78988   0.59152   0.00000  Uiso   1.00
C1171  C     0.60351   0.87652   0.90850   0.00000  Uiso   1.00
C1172  C     0.37938   0.99459   0.69452   0.00000  Uiso   1.00
C1173  C     0.43855   0.99107   0.69257   0.00000  Uiso   1.00
C1174  C     0.46433   0.99530   0.64950   0.00000  Uiso   1.00
C1175  C     0.47852   0.87947   0.54909   0.00000  Uiso   1.00
C1176  C     0.43095   0.66862   0.60787   0.00000  Uiso   1.00
C1177  C     0.37182   0.67147   0.60931   0.00000  Uiso   1.00
C1178  C     0.34608   0.66825   0.65254   0.00000  Uiso   1.00
C1179  C     0.62060   0.67207   0.80549   0.00000  Uiso   1.00
C1180  C     0.65386   0.99818   0.84743   0.00000  Uiso   1.00
C1181  C     0.62811   0.99486   0.89064   0.00000  Uiso   1.00
C1182  C     0.56900   0.99780   0.89209   0.00000  Uiso   1.00
C1183  C     0.53566   0.67137   0.85051   0.00000  Uiso   1.00
C1184  C     0.56145   0.67572   0.80747   0.00000  Uiso   1.00
C1185  C     0.52132   0.78695   0.95098   0.00000  Uiso   1.00
C1186  C     0.42432   0.89032   0.53224   0.00000  Uiso   1.00
C1187  C     0.57550   0.77606   0.96784   0.00000  Uiso   1.00
C1188  C     0.35135   0.98403   0.73915   0.00000  Uiso   1.00
C1189  C     0.64866   0.68264   0.76087   0.00000  Uiso   1.00
C1190  C     0.35440   0.83681   0.84071   0.00000  Uiso   1.00
H1191  H     0.39908   0.91471   0.55437   0.00000  Uiso   1.00
H1192  H     0.50413   0.87524   0.78608   0.00000  Uiso   1.00
H1193  H     0.46426   0.98372   0.72416   0.00000  Uiso   1.00
H1194  H     0.50999   0.99255   0.64824   0.00000  Uiso   1.00
H1195  H     0.45086   0.67147   0.57439   0.00000  Uiso   1.00
H1196  H     0.34599   0.67612   0.57687   0.00000  Uiso   1.00
H1197  H     0.63349   0.66965   0.65307   0.00000  Uiso   1.00
H1198  H     0.36643   0.99668   0.84688   0.00000  Uiso   1.00
H1199  H     0.65392   0.99003   0.92305   0.00000  Uiso   1.00
H1200  H     0.54908   0.99485   0.92556   0.00000  Uiso   1.00
H1201  H     0.49002   0.67422   0.85179   0.00000  Uiso   1.00
H1202  H     0.60071   0.75161   0.94572   0.00000  Uiso   1.00
H1203  H     0.53576   0.68325   0.77591   0.00000  Uiso   1.00
H1204  H     0.55723   0.86054   0.61397   0.00000  Uiso   1.00
H1205  H     0.44284   0.80617   0.88602   0.00000  Uiso   1.00
H1206  H     0.65504   0.90492   0.99356   0.00000  Uiso   1.00
H1207  H     0.34476   0.76140   0.50651   0.00000  Uiso   1.00
H1208  H     0.49339   0.89944   0.58300   0.00000  Uiso   1.00
H1209  H     0.50639   0.76696   0.91709   0.00000  Uiso   1.00
H1210  H     0.49587   0.79143   0.71392   0.00000  Uiso   1.00
N1211  N     0.48029   0.81883   0.73739   0.00000  Uiso   1.00
N1212  N     0.51971   0.84784   0.76260   0.00000  Uiso   1.00
N1213  N     0.44307   0.78313   0.60378   0.00000  Uiso   1.00
N1214  N     0.55680   0.88323   0.89625   0.00000  Uiso   1.00
O1215  O     0.63052   0.91298   0.75309   0.00000  Uiso   1.00
O1216  O     0.36948   0.75369   0.74690   0.00000  Uiso   1.00
O1217  O     0.39155   0.90368   0.74501   0.00000  Uiso   1.00
O1218  O     0.60845   0.76298   0.75498   0.00000  Uiso   1.00
O1219  O     0.63662   0.84063   0.82247   0.00000  Uiso   1.00
O1220  O     0.36338   0.82603   0.67753   0.00000  Uiso   1.00
O1221  O     0.39764   0.83134   0.81439   0.00000  Uiso   1.00
O1222  O     0.60236   0.83533   0.68561   0.00000  Uiso   1.00
Zn1223 Zn    0.60366   0.83954   0.75539   0.00000  Uiso   1.00
Zn1224 Zn    0.39634   0.82713   0.74460   0.00000  Uiso   1.00
C1225  C     0.68126   0.93144   0.74907   0.00000  Uiso   1.00
C1226  C     0.97893   0.82984   0.65929   0.00000  Uiso   1.00
C1227  C     0.69826   0.84209   0.89259   0.00000  Uiso   1.00
C1228  C     0.96838   0.82448   0.60741   0.00000  Uiso   1.00
C1229  C     0.68171   0.88295   0.97029   0.00000  Uiso   1.00
C1230  C     0.98480   0.78344   0.52976   0.00000  Uiso   1.00
C1231  C     0.99489   0.86712   0.92351   0.00000  Uiso   1.00
C1232  C     0.67167   0.79933   0.57651   0.00000  Uiso   1.00
C1233  C     0.75001   0.82593   0.91074   0.00000  Uiso   1.00
C1234  C     0.91663   0.84066   0.58926   0.00000  Uiso   1.00
C1235  C     0.76940   0.83852   0.95830   0.00000  Uiso   1.00
C1236  C     0.98541   0.73523   0.75093   0.00000  Uiso   1.00
C1237  C     0.89716   0.82796   0.54173   0.00000  Uiso   1.00
C1238  C     0.73611   0.87049   0.98714   0.00000  Uiso   1.00
C1239  C     0.93041   0.79593   0.51291   0.00000  Uiso   1.00
C1240  C     0.82244   0.82275   0.97697   0.00000  Uiso   1.00
C1241  C     0.84410   0.84371   0.52308   0.00000  Uiso   1.00
C1242  C     0.72970   0.78988   0.59152   0.00000  Uiso   1.00
C1243  C     0.93684   0.87652   0.90850   0.00000  Uiso   1.00
C1244  C     0.71271   0.99459   0.69452   0.00000  Uiso   1.00
C1245  C     0.77188   0.99107   0.69257   0.00000  Uiso   1.00
C1246  C     0.79766   0.99530   0.64950   0.00000  Uiso   1.00
C1247  C     0.81185   0.87947   0.54909   0.00000  Uiso   1.00
C1248  C     0.76428   0.66862   0.60787   0.00000  Uiso   1.00
C1249  C     0.70516   0.67147   0.60931   0.00000  Uiso   1.00
C1250  C     0.67941   0.66825   0.65254   0.00000  Uiso   1.00
C1251  C     0.95393   0.67207   0.80549   0.00000  Uiso   1.00
C1252  C     0.98719   0.99818   0.84743   0.00000  Uiso   1.00
C1253  C     0.96144   0.99486   0.89064   0.00000  Uiso   1.00
C1254  C     0.90234   0.99780   0.89209   0.00000  Uiso   1.00
C1255  C     0.86899   0.67137   0.85051   0.00000  Uiso   1.00
C1256  C     0.89479   0.67572   0.80747   0.00000  Uiso   1.00
C1257  C     0.85465   0.78695   0.95098   0.00000  Uiso   1.00
C1258  C     0.75765   0.89032   0.53224   0.00000  Uiso   1.00
C1259  C     0.90883   0.77606   0.96784   0.00000  Uiso   1.00
C1260  C     0.68468   0.98403   0.73915   0.00000  Uiso   1.00
C1261  C     0.98199   0.68264   0.76087   0.00000  Uiso   1.00
C1262  C     0.68773   0.83681   0.84071   0.00000  Uiso   1.00
H1263  H     0.73241   0.91471   0.55437   0.00000  Uiso   1.00
H1264  H     0.83746   0.87524   0.78608   0.00000  Uiso   1.00
H1265  H     0.79760   0.98372   0.72416   0.00000  Uiso   1.00
H1266  H     0.84332   0.99255   0.64824   0.00000  Uiso   1.00
H1267  H     0.78419   0.67147   0.57439   0.00000  Uiso   1.00
H1268  H     0.67932   0.67612   0.57687   0.00000  Uiso   1.00
H1269  H     0.96683   0.66965   0.65307   0.00000  Uiso   1.00
H1270  H     0.69976   0.99668   0.84688   0.00000  Uiso   1.00
H1271  H     0.98725   0.99003   0.92305   0.00000  Uiso   1.00
H1272  H     0.88242   0.99485   0.92556   0.00000  Uiso   1.00
H1273  H     0.82335   0.67422   0.85179   0.00000  Uiso   1.00
H1274  H     0.93404   0.75161   0.94572   0.00000  Uiso   1.00
H1275  H     0.86910   0.68325   0.77591   0.00000  Uiso   1.00
H1276  H     0.89056   0.86054   0.61397   0.00000  Uiso   1.00
H1277  H     0.77617   0.80617   0.88602   0.00000  Uiso   1.00
H1278  H     0.98838   0.90492   0.99356   0.00000  Uiso   1.00
H1279  H     0.67810   0.76140   0.50651   0.00000  Uiso   1.00
H1280  H     0.82673   0.89944   0.58300   0.00000  Uiso   1.00
H1281  H     0.83973   0.76696   0.91709   0.00000  Uiso   1.00
H1282  H     0.82921   0.79143   0.71392   0.00000  Uiso   1.00
N1283  N     0.81362   0.81883   0.73739   0.00000  Uiso   1.00
N1284  N     0.85305   0.84784   0.76260   0.00000  Uiso   1.00
N1285  N     0.77641   0.78313   0.60378   0.00000  Uiso   1.00
N1286  N     0.89013   0.88323   0.89625   0.00000  Uiso   1.00
O1287  O     0.96386   0.91298   0.75309   0.00000  Uiso   1.00
O1288  O     0.70281   0.75369   0.74690   0.00000  Uiso   1.00
O1289  O     0.72488   0.90368   0.74501   0.00000  Uiso   1.00
O1290  O     0.94178   0.76298   0.75498   0.00000  Uiso   1.00
O1291  O     0.96995   0.84063   0.82247   0.00000  Uiso   1.00
O1292  O     0.69672   0.82603   0.67753   0.00000  Uiso   1.00
O1293  O     0.73098   0.83134   0.81439   0.00000  Uiso   1.00
O1294  O     0.93569   0.83533   0.68561   0.00000  Uiso   1.00
Zn1295 Zn    0.93700   0.83954   0.75539   0.00000  Uiso   1.00
Zn1296 Zn    0.72967   0.82713   0.74460   0.00000  Uiso   1.00
loop_
_geom_bond_atom_site_label_1
_geom_bond_atom_site_label_2
_geom_bond_distance
_geom_bond_site_symmetry_2
_ccdc_geom_bond_type
C1     O65     1.292   .     A
C1     C36     1.411   .     S
C1     O207    1.274   1_455 S
C2     C4      1.458   .     S
C2     O70     1.302   .     A
C2     O140    1.289   .     S
C3     C9      1.390   .     A
C3     C38     1.458   .     S
C3     C151    1.410   1_455 S
C4     C10     1.390   .     A
C4     C80     1.410   .     S
C5     C14     1.400   .     A
C5     C151    1.392   1_455 S
C5     H198    1.086   1_455 S
C6     C15     1.400   .     A
C6     C80     1.392   .     S
C6     H127    1.086   .     S
C7     C19     1.443   .     S
C7     C75     1.410   .     S
C7     C77     1.392   .     S
C8     C18     1.443   .     S
C8     C148    1.410   1_455 S
C8     C150    1.392   1_455 S
C9     C11     1.393   .     A
C9     H53     1.075   .     S
C10    H52     1.075   .     S
C10    C13     1.393   .     A
C11    C16     1.417   .     A
C11    C14     1.415   .     A
C12    C37     1.411   .     S
C12    O66     1.292   .     A
C12    O136    1.274   .     S
C13    C17     1.417   .     A
C13    C15     1.415   .     A
C14    C682    1.384   .     S
C15    C683    1.384   1_554 S
C16    C33     1.418   .     A
C16    C665    1.418   .     S
C17    C23     1.418   .     A
C17    C664    1.418   1_554 S
C18    N61     1.157   .     T
C19    N62     1.157   .     T
C20    C36     1.490   .     S
C20    C21     1.403   .     A
C20    C242    1.405   .     S
C21    C22     1.396   .     A
C21    H41     1.079   .     S
C22    H42     1.083   .     S
C22    C240    1.396   .     S
C23    C34     1.384   .     A
C23    H56     1.076   .     S
C24    C25     1.399   .     A
C24    H43     1.083   .     S
C24    C454    1.396   1_545 S
C25    H44     1.083   .     S
C25    C26     1.397   .     A
C26    C452    1.405   1_545 S
C26    H189    1.083   1_455 S
C27    C37     1.490   .     S
C27    C32     1.403   .     A
C27    C460    1.405   1_545 S
C28    C29     1.397   .     A
C28    C243    1.405   .     S
C28    H118    1.083   .     S
C29    C30     1.399   .     A
C29    H47     1.083   .     S
C30    H48     1.083   .     S
C30    C247    1.396   .     S
C31    C32     1.396   .     A
C31    H49     1.082   .     S
C31    C462    1.396   1_545 S
C32    H51     1.079   .     S
C33    C35     1.384   .     A
C33    H57     1.076   .     S
C34    H39     1.080   .     S
C34    C662    1.384   1_554 S
C35    H50     1.080   .     S
C35    C663    1.384   .     S
C36    C397    1.357   1_455 S
C37    C540    1.357   1_545 S
C38    O69     1.302   .     A
C38    O211    1.289   1_455 S
H40    N60     1.030   .     S
H45    C98     1.083   .     S
H46    C172    1.083   1_455 S
H54    C77     1.086   .     S
H55    C150    1.086   1_455 S
H58    N59     1.029   .     S
N59    Zn72    2.019   .     S
N59    N60     1.296   .     D
N60    Zn71    2.019   .     S
O63    Zn71    1.977   .     S
O63    C73     1.274   .     S
O64    Zn72    1.977   .     S
O64    C156    1.274   1_455 S
O65    Zn72    1.992   .     S
O66    Zn71    1.992   .     S
O67    Zn71    1.991   .     S
O67    C110    1.289   .     S
O68    Zn72    1.991   .     S
O68    C146    1.289   1_455 S
O69    Zn72    1.954   .     S
O70    Zn71    1.954   .     S
C73    O137    1.292   .     A
C73    C108    1.411   .     S
C74    C76     1.458   .     S
C74    O142    1.302   .     A
C74    O212    1.289   .     S
C75    C81     1.390   .     A
C75    C110    1.458   .     S
C76    C82     1.390   .     A
C76    C152    1.410   .     S
C77    C86     1.400   .     A
C78    C87     1.400   .     A
C78    C152    1.392   .     S
C78    H199    1.086   .     S
C79    C91     1.443   .     S
C79    C147    1.410   .     S
C79    C149    1.392   .     S
C80    C90     1.443   .     S
C81    C83     1.393   .     A
C81    H125    1.075   .     S
C82    H124    1.075   .     S
C82    C85     1.393   .     A
C83    C88     1.417   .     A
C83    C86     1.415   .     A
C84    C109    1.411   .     S
C84    O138    1.292   .     A
C84    O208    1.274   .     S
C85    C89     1.417   .     A
C85    C87     1.415   .     A
C86    C754    1.384   .     S
C87    C755    1.384   1_554 S
C88    C105    1.418   .     A
C88    C737    1.418   .     S
C89    C95     1.418   .     A
C89    C736    1.418   1_554 S
C90    N133    1.157   .     T
C91    N134    1.157   .     T
C92    C108    1.490   .     S
C92    C93     1.403   .     A
C92    C314    1.405   .     S
C93    C94     1.396   .     A
C93    H113    1.079   .     S
C94    H114    1.083   .     S
C94    C312    1.396   .     S
C95    C106    1.384   .     A
C95    H128    1.076   .     S
C96    C97     1.399   .     A
C96    H115    1.083   .     S
C96    C526    1.396   1_545 S
C97    H116    1.083   .     S
C97    C98     1.397   .     A
C98    C524    1.405   1_545 S
C99    C109    1.490   .     S
C99    C104    1.403   .     A
C99    C532    1.405   1_545 S
C100   C101    1.397   .     A
C100   C315    1.405   .     S
C100   H190    1.083   .     S
C101   C102    1.399   .     A
C101   H119    1.083   .     S
C102   H120    1.083   .     S
C102   C319    1.396   .     S
C103   C104    1.396   .     A
C103   H121    1.082   .     S
C103   C534    1.396   1_545 S
C104   H123    1.079   .     S
C105   C107    1.384   .     A
C105   H129    1.076   .     S
C106   H111    1.080   .     S
C106   C734    1.384   1_554 S
C107   H122    1.080   .     S
C107   C735    1.384   .     S
C108   C253    1.357   .     S
C109   C612    1.357   1_545 S
C110   O141    1.302   .     A
H112   N132    1.030   .     S
H117   C170    1.083   .     S
H126   C149    1.086   .     S
H130   N131    1.029   .     S
N131   Zn144   2.019   .     S
N131   N132    1.296   .     D
N132   Zn143   2.019   .     S
O135   Zn143   1.977   .     S
O135   C145    1.274   .     S
O136   Zn144   1.977   .     S
O137   Zn144   1.992   .     S
O138   Zn143   1.992   .     S
O139   Zn143   1.991   .     S
O139   C182    1.289   .     S
O140   Zn144   1.991   .     S
O141   Zn144   1.954   .     S
O142   Zn143   1.954   .     S
C145   O209    1.292   .     A
C145   C180    1.411   .     S
C146   C148    1.458   .     S
C146   O214    1.302   .     A
C146   O68     1.289   1_655 S
C147   C153    1.390   .     A
C147   C182    1.458   .     S
C148   C154    1.390   .     A
C148   C8      1.410   1_655 S
C149   C158    1.400   .     A
C150   C159    1.400   .     A
C150   C8      1.392   1_655 S
C150   H55     1.086   1_655 S
C151   C163    1.443   .     S
C151   C3      1.410   1_655 S
C151   C5      1.392   1_655 S
C152   C162    1.443   .     S
C153   C155    1.393   .     A
C153   H197    1.075   .     S
C154   H196    1.075   .     S
C154   C157    1.393   .     A
C155   C160    1.417   .     A
C155   C158    1.415   .     A
C156   C181    1.411   .     S
C156   O210    1.292   .     A
C156   O64     1.274   1_655 S
C157   C161    1.417   .     A
C157   C159    1.415   .     A
C158   C826    1.384   .     S
C159   C827    1.384   1_554 S
C160   C177    1.418   .     A
C160   C809    1.418   .     S
C161   C167    1.418   .     A
C161   C808    1.418   1_554 S
C162   N205    1.157   .     T
C163   N206    1.157   .     T
C164   C180    1.490   .     S
C164   C165    1.403   .     A
C164   C386    1.405   .     S
C165   C166    1.396   .     A
C165   H185    1.079   .     S
C166   H186    1.083   .     S
C166   C384    1.396   .     S
C167   C178    1.384   .     A
C167   H200    1.076   .     S
C168   C169    1.399   .     A
C168   H187    1.083   .     S
C168   C598    1.396   1_545 S
C169   H188    1.083   .     S
C169   C170    1.397   .     A
C170   C596    1.405   1_545 S
C171   C181    1.490   .     S
C171   C176    1.403   .     A
C171   C604    1.405   1_545 S
C172   C173    1.397   .     A
C172   C387    1.405   .     S
C172   H46     1.083   1_655 S
C173   C174    1.399   .     A
C173   H191    1.083   .     S
C174   H192    1.083   .     S
C174   C391    1.396   .     S
C175   C176    1.396   .     A
C175   H193    1.082   .     S
C175   C606    1.396   1_545 S
C176   H195    1.079   .     S
C177   C179    1.384   .     A
C177   H201    1.076   .     S
C178   H183    1.080   .     S
C178   C806    1.384   1_554 S
C179   H194    1.080   .     S
C179   C807    1.384   .     S
C180   C325    1.357   .     S
C181   C468    1.357   1_645 S
C182   O213    1.302   .     A
H184   N204    1.030   .     S
H189   C26     1.083   1_655 S
H198   C5      1.086   1_655 S
H202   N203    1.029   .     S
N203   Zn216   2.019   .     S
N203   N204    1.296   .     D
N204   Zn215   2.019   .     S
O207   Zn215   1.977   .     S
O207   C1      1.274   1_655 S
O208   Zn216   1.977   .     S
O209   Zn216   1.992   .     S
O210   Zn215   1.992   .     S
O211   Zn215   1.991   .     S
O211   C38     1.289   1_655 S
O212   Zn216   1.991   .     S
O213   Zn216   1.954   .     S
O214   Zn215   1.954   .     S
C217   O281    1.292   .     A
C217   C252    1.411   .     S
C217   O423    1.274   1_455 S
C218   C220    1.458   .     S
C218   O286    1.302   .     A
C218   O356    1.289   .     S
C219   C225    1.390   .     A
C219   C254    1.458   .     S
C219   C367    1.410   1_455 S
C220   C226    1.390   .     A
C220   C296    1.410   .     S
C221   C230    1.400   .     A
C221   C367    1.392   1_455 S
C221   H414    1.086   1_455 S
C222   C231    1.400   .     A
C222   C296    1.392   .     S
C222   H343    1.086   .     S
C223   C235    1.443   .     S
C223   C291    1.410   .     S
C223   C293    1.392   .     S
C224   C234    1.443   .     S
C224   C364    1.410   1_455 S
C224   C366    1.392   1_455 S
C225   C227    1.393   .     A
C225   H269    1.075   .     S
C226   H268    1.075   .     S
C226   C229    1.393   .     A
C227   C232    1.417   .     A
C227   C230    1.415   .     A
C228   C253    1.411   .     S
C228   O282    1.292   .     A
C228   O352    1.274   .     S
C229   C233    1.417   .     A
C229   C231    1.415   .     A
C230   C898    1.384   .     S
C231   C899    1.384   1_554 S
C232   C249    1.418   .     A
C232   C881    1.418   .     S
C233   C239    1.418   .     A
C233   C880    1.418   1_554 S
C234   N277    1.157   .     T
C235   N278    1.157   .     T
C236   C252    1.490   .     S
C236   C237    1.403   .     A
C236   C458    1.405   .     S
C237   C238    1.396   .     A
C237   H257    1.079   .     S
C238   H258    1.083   .     S
C238   C456    1.396   .     S
C239   C250    1.384   .     A
C239   H272    1.076   .     S
C240   C241    1.399   .     A
C240   H259    1.083   .     S
C241   H260    1.083   .     S
C241   C242    1.397   .     A
C242   H405    1.083   1_455 S
C243   C253    1.490   .     S
C243   C248    1.403   .     A
C244   C245    1.397   .     A
C244   C459    1.405   .     S
C244   H334    1.083   .     S
C245   C246    1.399   .     A
C245   H263    1.083   .     S
C246   H264    1.083   .     S
C246   C463    1.396   .     S
C247   C248    1.396   .     A
C247   H265    1.082   .     S
C248   H267    1.079   .     S
C249   C251    1.384   .     A
C249   H273    1.076   .     S
C250   H255    1.080   .     S
C250   C878    1.384   1_554 S
C251   H266    1.080   .     S
C251   C879    1.384   .     S
C252   C613    1.357   1_455 S
C254   O285    1.302   .     A
C254   O427    1.289   1_455 S
H256   N276    1.030   .     S
H261   C314    1.083   .     S
H262   C388    1.083   1_455 S
H270   C293    1.086   .     S
H271   C366    1.086   1_455 S
H274   N275    1.029   .     S
N275   Zn288   2.019   .     S
N275   N276    1.296   .     D
N276   Zn287   2.019   .     S
O279   Zn287   1.977   .     S
O279   C289    1.274   .     S
O280   Zn288   1.977   .     S
O280   C372    1.274   1_455 S
O281   Zn288   1.992   .     S
O282   Zn287   1.992   .     S
O283   Zn287   1.991   .     S
O283   C326    1.289   .     S
O284   Zn288   1.991   .     S
O284   C362    1.289   1_455 S
O285   Zn288   1.954   .     S
O286   Zn287   1.954   .     S
C289   O353    1.292   .     A
C289   C324    1.411   .     S
C290   C292    1.458   .     S
C290   O358    1.302   .     A
C290   O428    1.289   .     S
C291   C297    1.390   .     A
C291   C326    1.458   .     S
C292   C298    1.390   .     A
C292   C368    1.410   .     S
C293   C302    1.400   .     A
C294   C303    1.400   .     A
C294   C368    1.392   .     S
C294   H415    1.086   .     S
C295   C307    1.443   .     S
C295   C363    1.410   .     S
C295   C365    1.392   .     S
C296   C306    1.443   .     S
C297   C299    1.393   .     A
C297   H341    1.075   .     S
C298   H340    1.075   .     S
C298   C301    1.393   .     A
C299   C304    1.417   .     A
C299   C302    1.415   .     A
C300   C325    1.411   .     S
C300   O354    1.292   .     A
C300   O424    1.274   .     S
C301   C305    1.417   .     A
C301   C303    1.415   .     A
C302   C970    1.384   .     S
C303   C971    1.384   1_554 S
C304   C321    1.418   .     A
C304   C953    1.418   .     S
C305   C311    1.418   .     A
C305   C952    1.418   1_554 S
C306   N349    1.157   .     T
C307   N350    1.157   .     T
C308   C324    1.490   .     S
C308   C309    1.403   .     A
C308   C530    1.405   .     S
C309   C310    1.396   .     A
C309   H329    1.079   .     S
C310   H330    1.083   .     S
C310   C528    1.396   .     S
C311   C322    1.384   .     A
C311   H344    1.076   .     S
C312   C313    1.399   .     A
C312   H331    1.083   .     S
C313   H332    1.083   .     S
C313   C314    1.397   .     A
C315   C325    1.490   .     S
C315   C320    1.403   .     A
C316   C317    1.397   .     A
C316   C531    1.405   .     S
C316   H406    1.083   .     S
C317   C318    1.399   .     A
C317   H335    1.083   .     S
C318   H336    1.083   .     S
C318   C535    1.396   .     S
C319   C320    1.396   .     A
C319   H337    1.082   .     S
C320   H339    1.079   .     S
C321   C323    1.384   .     A
C321   H345    1.076   .     S
C322   H327    1.080   .     S
C322   C950    1.384   1_554 S
C323   H338    1.080   .     S
C323   C951    1.384   .     S
C324   C469    1.357   .     S
C326   O357    1.302   .     A
H328   N348    1.030   .     S
H333   C386    1.083   .     S
H342   C365    1.086   .     S
H346   N347    1.029   .     S
N347   Zn360   2.019   .     S
N347   N348    1.296   .     D
N348   Zn359   2.019   .     S
O351   Zn359   1.977   .     S
O351   C361    1.274   .     S
O352   Zn360   1.977   .     S
O353   Zn360   1.992   .     S
O354   Zn359   1.992   .     S
O355   Zn359   1.991   .     S
O355   C398    1.289   .     S
O356   Zn360   1.991   .     S
O357   Zn360   1.954   .     S
O358   Zn359   1.954   .     S
C361   O425    1.292   .     A
C361   C396    1.411   .     S
C362   C364    1.458   .     S
C362   O430    1.302   .     A
C362   O284    1.289   1_655 S
C363   C369    1.390   .     A
C363   C398    1.458   .     S
C364   C370    1.390   .     A
C364   C224    1.410   1_655 S
C365   C374    1.400   .     A
C366   C375    1.400   .     A
C366   C224    1.392   1_655 S
C366   H271    1.086   1_655 S
C367   C379    1.443   .     S
C367   C219    1.410   1_655 S
C367   C221    1.392   1_655 S
C368   C378    1.443   .     S
C369   C371    1.393   .     A
C369   H413    1.075   .     S
C370   H412    1.075   .     S
C370   C373    1.393   .     A
C371   C376    1.417   .     A
C371   C374    1.415   .     A
C372   C397    1.411   .     S
C372   O426    1.292   .     A
C372   O280    1.274   1_655 S
C373   C377    1.417   .     A
C373   C375    1.415   .     A
C374   C1042   1.384   .     S
C375   C1043   1.384   1_554 S
C376   C393    1.418   .     A
C376   C1025   1.418   .     S
C377   C383    1.418   .     A
C377   C1024   1.418   1_554 S
C378   N421    1.157   .     T
C379   N422    1.157   .     T
C380   C396    1.490   .     S
C380   C381    1.403   .     A
C380   C602    1.405   .     S
C381   C382    1.396   .     A
C381   H401    1.079   .     S
C382   H402    1.083   .     S
C382   C600    1.396   .     S
C383   C394    1.384   .     A
C383   H416    1.076   .     S
C384   C385    1.399   .     A
C384   H403    1.083   .     S
C385   H404    1.083   .     S
C385   C386    1.397   .     A
C387   C397    1.490   .     S
C387   C392    1.403   .     A
C388   C389    1.397   .     A
C388   C603    1.405   .     S
C388   H262    1.083   1_655 S
C389   C390    1.399   .     A
C389   H407    1.083   .     S
C390   H408    1.083   .     S
C390   C607    1.396   .     S
C391   C392    1.396   .     A
C391   H409    1.082   .     S
C392   H411    1.079   .     S
C393   C395    1.384   .     A
C393   H417    1.076   .     S
C394   H399    1.080   .     S
C394   C1022   1.384   1_554 S
C395   H410    1.080   .     S
C395   C1023   1.384   .     S
C396   C541    1.357   .     S
C397   C36     1.357   1_655 S
C398   O429    1.302   .     A
H400   N420    1.030   .     S
H405   C242    1.083   1_655 S
H414   C221    1.086   1_655 S
H418   N419    1.029   .     S
N419   Zn432   2.019   .     S
N419   N420    1.296   .     D
N420   Zn431   2.019   .     S
O423   Zn431   1.977   .     S
O423   C217    1.274   1_655 S
O424   Zn432   1.977   .     S
O425   Zn432   1.992   .     S
O426   Zn431   1.992   .     S
O427   Zn431   1.991   .     S
O427   C254    1.289   1_655 S
O428   Zn432   1.991   .     S
O429   Zn432   1.954   .     S
O430   Zn431   1.954   .     S
C433   O497    1.292   .     A
C433   C468    1.411   .     S
C433   O639    1.274   1_455 S
C434   C436    1.458   .     S
C434   O502    1.302   .     A
C434   O572    1.289   .     S
C435   C441    1.390   .     A
C435   C470    1.458   .     S
C435   C583    1.410   1_455 S
C436   C442    1.390   .     A
C436   C512    1.410   .     S
C437   C446    1.400   .     A
C437   C583    1.392   1_455 S
C437   H630    1.086   1_455 S
C438   C447    1.400   .     A
C438   C512    1.392   .     S
C438   H559    1.086   .     S
C439   C451    1.443   .     S
C439   C507    1.410   .     S
C439   C509    1.392   .     S
C440   C450    1.443   .     S
C440   C580    1.410   1_455 S
C440   C582    1.392   1_455 S
C441   C443    1.393   .     A
C441   H485    1.075   .     S
C442   H484    1.075   .     S
C442   C445    1.393   .     A
C443   C448    1.417   .     A
C443   C446    1.415   .     A
C444   C469    1.411   .     S
C444   O498    1.292   .     A
C444   O568    1.274   .     S
C445   C449    1.417   .     A
C445   C447    1.415   .     A
C446   C1114   1.384   .     S
C447   C1115   1.384   1_554 S
C448   C465    1.418   .     A
C448   C1097   1.418   .     S
C449   C455    1.418   .     A
C449   C1096   1.418   1_554 S
C450   N493    1.157   .     T
C451   N494    1.157   .     T
C452   C468    1.490   .     S
C452   C453    1.403   .     A
C452   C26     1.405   1_565 S
C453   C454    1.396   .     A
C453   H473    1.079   .     S
C454   H474    1.083   .     S
C454   C24     1.396   1_565 S
C455   C466    1.384   .     A
C455   H488    1.076   .     S
C456   C457    1.399   .     A
C456   H475    1.083   .     S
C457   H476    1.083   .     S
C457   C458    1.397   .     A
C458   H621    1.083   1_455 S
C459   C469    1.490   .     S
C459   C464    1.403   .     A
C460   C461    1.397   .     A
C460   C27     1.405   1_565 S
C460   H550    1.083   .     S
C461   C462    1.399   .     A
C461   H479    1.083   .     S
C462   H480    1.083   .     S
C462   C31     1.396   1_565 S
C463   C464    1.396   .     A
C463   H481    1.082   .     S
C464   H483    1.079   .     S
C465   C467    1.384   .     A
C465   H489    1.076   .     S
C466   H471    1.080   .     S
C466   C1094   1.384   1_554 S
C467   H482    1.080   .     S
C467   C1095   1.384   .     S
C468   C181    1.357   1_465 S
C470   O501    1.302   .     A
C470   O643    1.289   1_455 S
H472   N492    1.030   .     S
H477   C530    1.083   .     S
H478   C604    1.083   1_455 S
H486   C509    1.086   .     S
H487   C582    1.086   1_455 S
H490   N491    1.029   .     S
N491   Zn504   2.019   .     S
N491   N492    1.296   .     D
N492   Zn503   2.019   .     S
O495   Zn503   1.977   .     S
O495   C505    1.274   .     S
O496   Zn504   1.977   .     S
O496   C588    1.274   1_455 S
O497   Zn504   1.992   .     S
O498   Zn503   1.992   .     S
O499   Zn503   1.991   .     S
O499   C542    1.289   .     S
O500   Zn504   1.991   .     S
O500   C578    1.289   1_455 S
O501   Zn504   1.954   .     S
O502   Zn503   1.954   .     S
C505   O569    1.292   .     A
C505   C540    1.411   .     S
C506   C508    1.458   .     S
C506   O574    1.302   .     A
C506   O644    1.289   .     S
C507   C513    1.390   .     A
C507   C542    1.458   .     S
C508   C514    1.390   .     A
C508   C584    1.410   .     S
C509   C518    1.400   .     A
C510   C519    1.400   .     A
C510   C584    1.392   .     S
C510   H631    1.086   .     S
C511   C523    1.443   .     S
C511   C579    1.410   .     S
C511   C581    1.392   .     S
C512   C522    1.443   .     S
C513   C515    1.393   .     A
C513   H557    1.075   .     S
C514   H556    1.075   .     S
C514   C517    1.393   .     A
C515   C520    1.417   .     A
C515   C518    1.415   .     A
C516   C541    1.411   .     S
C516   O570    1.292   .     A
C516   O640    1.274   .     S
C517   C521    1.417   .     A
C517   C519    1.415   .     A
C518   C1186   1.384   .     S
C519   C1187   1.384   1_554 S
C520   C537    1.418   .     A
C520   C1169   1.418   .     S
C521   C527    1.418   .     A
C521   C1168   1.418   1_554 S
C522   N565    1.157   .     T
C523   N566    1.157   .     T
C524   C540    1.490   .     S
C524   C525    1.403   .     A
C524   C98     1.405   1_565 S
C525   C526    1.396   .     A
C525   H545    1.079   .     S
C526   H546    1.083   .     S
C526   C96     1.396   1_565 S
C527   C538    1.384   .     A
C527   H560    1.076   .     S
C528   C529    1.399   .     A
C528   H547    1.083   .     S
C529   H548    1.083   .     S
C529   C530    1.397   .     A
C531   C541    1.490   .     S
C531   C536    1.403   .     A
C532   C533    1.397   .     A
C532   C99     1.405   1_565 S
C532   H622    1.083   .     S
C533   C534    1.399   .     A
C533   H551    1.083   .     S
C534   H552    1.083   .     S
C534   C103    1.396   1_565 S
C535   C536    1.396   .     A
C535   H553    1.082   .     S
C536   H555    1.079   .     S
C537   C539    1.384   .     A
C537   H561    1.076   .     S
C538   H543    1.080   .     S
C538   C1166   1.384   1_554 S
C539   H554    1.080   .     S
C539   C1167   1.384   .     S
C540   C37     1.357   1_565 S
C542   O573    1.302   .     A
H544   N564    1.030   .     S
H549   C602    1.083   .     S
H558   C581    1.086   .     S
H562   N563    1.029   .     S
N563   Zn576   2.019   .     S
N563   N564    1.296   .     D
N564   Zn575   2.019   .     S
O567   Zn575   1.977   .     S
O567   C577    1.274   .     S
O568   Zn576   1.977   .     S
O569   Zn576   1.992   .     S
O570   Zn575   1.992   .     S
O571   Zn575   1.991   .     S
O571   C614    1.289   .     S
O572   Zn576   1.991   .     S
O573   Zn576   1.954   .     S
O574   Zn575   1.954   .     S
C577   O641    1.292   .     A
C577   C612    1.411   .     S
C578   C580    1.458   .     S
C578   O646    1.302   .     A
C578   O500    1.289   1_655 S
C579   C585    1.390   .     A
C579   C614    1.458   .     S
C580   C586    1.390   .     A
C580   C440    1.410   1_655 S
C581   C590    1.400   .     A
C582   C591    1.400   .     A
C582   C440    1.392   1_655 S
C582   H487    1.086   1_655 S
C583   C595    1.443   .     S
C583   C435    1.410   1_655 S
C583   C437    1.392   1_655 S
C584   C594    1.443   .     S
C585   C587    1.393   .     A
C585   H629    1.075   .     S
C586   H628    1.075   .     S
C586   C589    1.393   .     A
C587   C592    1.417   .     A
C587   C590    1.415   .     A
C588   C613    1.411   .     S
C588   O642    1.292   .     A
C588   O496    1.274   1_655 S
C589   C593    1.417   .     A
C589   C591    1.415   .     A
C590   C1258   1.384   .     S
C591   C1259   1.384   1_554 S
C592   C609    1.418   .     A
C592   C1241   1.418   .     S
C593   C599    1.418   .     A
C593   C1240   1.418   1_554 S
C594   N637    1.157   .     T
C595   N638    1.157   .     T
C596   C612    1.490   .     S
C596   C597    1.403   .     A
C596   C170    1.405   1_565 S
C597   C598    1.396   .     A
C597   H617    1.079   .     S
C598   H618    1.083   .     S
C598   C168    1.396   1_565 S
C599   C610    1.384   .     A
C599   H632    1.076   .     S
C600   C601    1.399   .     A
C600   H619    1.083   .     S
C601   H620    1.083   .     S
C601   C602    1.397   .     A
C603   C613    1.490   .     S
C603   C608    1.403   .     A
C604   C605    1.397   .     A
C604   C171    1.405   1_565 S
C604   H478    1.083   1_655 S
C605   C606    1.399   .     A
C605   H623    1.083   .     S
C606   H624    1.083   .     S
C606   C175    1.396   1_565 S
C607   C608    1.396   .     A
C607   H625    1.082   .     S
C608   H627    1.079   .     S
C609   C611    1.384   .     A
C609   H633    1.076   .     S
C610   H615    1.080   .     S
C610   C1238   1.384   1_554 S
C611   H626    1.080   .     S
C611   C1239   1.384   .     S
C612   C109    1.357   1_565 S
C613   C252    1.357   1_655 S
C614   O645    1.302   .     A
H616   N636    1.030   .     S
H621   C458    1.083   1_655 S
H630   C437    1.086   1_655 S
H634   N635    1.029   .     S
N635   Zn648   2.019   .     S
N635   N636    1.296   .     D
N636   Zn647   2.019   .     S
O639   Zn647   1.977   .     S
O639   C433    1.274   1_655 S
O640   Zn648   1.977   .     S
O641   Zn648   1.992   .     S
O642   Zn647   1.992   .     S
O643   Zn647   1.991   .     S
O643   C470    1.289   1_655 S
O644   Zn648   1.991   .     S
O645   Zn648   1.954   .     S
O646   Zn647   1.954   .     S
C649   O713    1.292   .     A
C649   C684    1.411   .     S
C649   O855    1.274   1_455 S
C650   C652    1.458   .     S
C650   O718    1.302   .     A
C650   O788    1.289   .     S
C651   C657    1.390   .     A
C651   C686    1.458   .     S
C651   C799    1.410   1_455 S
C652   C658    1.390   .     A
C652   C728    1.410   .     S
C653   C662    1.400   .     A
C653   C799    1.392   1_455 S
C653   H846    1.086   1_455 S
C654   C663    1.400   .     A
C654   C728    1.392   .     S
C654   H775    1.086   .     S
C655   C667    1.443   .     S
C655   C723    1.410   .     S
C655   C725    1.392   .     S
C656   C666    1.443   .     S
C656   C796    1.410   1_455 S
C656   C798    1.392   1_455 S
C657   C659    1.393   .     A
C657   H701    1.075   .     S
C658   H700    1.075   .     S
C658   C661    1.393   .     A
C659   C664    1.417   .     A
C659   C662    1.415   .     A
C660   C685    1.411   .     S
C660   O714    1.292   .     A
C660   O784    1.274   .     S
C661   C665    1.417   .     A
C661   C663    1.415   .     A
C662   C34     1.384   1_556 S
C664   C681    1.418   .     A
C664   C17     1.418   1_556 S
C665   C671    1.418   .     A
C666   N709    1.157   .     T
C667   N710    1.157   .     T
C668   C684    1.490   .     S
C668   C669    1.403   .     A
C668   C890    1.405   .     S
C669   C670    1.396   .     A
C669   H689    1.079   .     S
C670   H690    1.083   .     S
C670   C888    1.396   .     S
C671   C682    1.384   .     A
C671   H704    1.076   .     S
C672   C673    1.399   .     A
C672   H691    1.083   .     S
C672   C1102   1.396   1_545 S
C673   H692    1.083   .     S
C673   C674    1.397   .     A
C674   C1100   1.405   1_545 S
C674   H837    1.083   1_455 S
C675   C685    1.490   .     S
C675   C680    1.403   .     A
C675   C1108   1.405   1_545 S
C676   C677    1.397   .     A
C676   C891    1.405   .     S
C676   H766    1.083   .     S
C677   C678    1.399   .     A
C677   H695    1.083   .     S
C678   H696    1.083   .     S
C678   C895    1.396   .     S
C679   C680    1.396   .     A
C679   H697    1.082   .     S
C679   C1110   1.396   1_545 S
C680   H699    1.079   .     S
C681   C683    1.384   .     A
C681   H705    1.076   .     S
C682   H687    1.080   .     S
C683   H698    1.080   .     S
C683   C15     1.384   1_556 S
C684   C1045   1.357   1_455 S
C685   C1188   1.357   1_545 S
C686   O717    1.302   .     A
C686   O859    1.289   1_455 S
H688   N708    1.030   .     S
H693   C746    1.083   .     S
H694   C820    1.083   1_455 S
H702   C725    1.086   .     S
H703   C798    1.086   1_455 S
H706   N707    1.029   .     S
N707   Zn720   2.019   .     S
N707   N708    1.296   .     D
N708   Zn719   2.019   .     S
O711   Zn719   1.977   .     S
O711   C721    1.274   .     S
O712   Zn720   1.977   .     S
O712   C804    1.274   1_455 S
O713   Zn720   1.992   .     S
O714   Zn719   1.992   .     S
O715   Zn719   1.991   .     S
O715   C758    1.289   .     S
O716   Zn720   1.991   .     S
O716   C794    1.289   1_455 S
O717   Zn720   1.954   .     S
O718   Zn719   1.954   .     S
C721   O785    1.292   .     A
C721   C756    1.411   .     S
C722   C724    1.458   .     S
C722   O790    1.302   .     A
C722   O860    1.289   .     S
C723   C729    1.390   .     A
C723   C758    1.458   .     S
C724   C730    1.390   .     A
C724   C800    1.410   .     S
C725   C734    1.400   .     A
C726   C735    1.400   .     A
C726   C800    1.392   .     S
C726   H847    1.086   .     S
C727   C739    1.443   .     S
C727   C795    1.410   .     S
C727   C797    1.392   .     S
C728   C738    1.443   .     S
C729   C731    1.393   .     A
C729   H773    1.075   .     S
C730   H772    1.075   .     S
C730   C733    1.393   .     A
C731   C736    1.417   .     A
C731   C734    1.415   .     A
C732   C757    1.411   .     S
C732   O786    1.292   .     A
C732   O856    1.274   .     S
C733   C737    1.417   .     A
C733   C735    1.415   .     A
C734   C106    1.384   1_556 S
C736   C753    1.418   .     A
C736   C89     1.418   1_556 S
C737   C743    1.418   .     A
C738   N781    1.157   .     T
C739   N782    1.157   .     T
C740   C756    1.490   .     S
C740   C741    1.403   .     A
C740   C962    1.405   .     S
C741   C742    1.396   .     A
C741   H761    1.079   .     S
C742   H762    1.083   .     S
C742   C960    1.396   .     S
C743   C754    1.384   .     A
C743   H776    1.076   .     S
C744   C745    1.399   .     A
C744   H763    1.083   .     S
C744   C1174   1.396   1_545 S
C745   H764    1.083   .     S
C745   C746    1.397   .     A
C746   C1172   1.405   1_545 S
C747   C757    1.490   .     S
C747   C752    1.403   .     A
C747   C1180   1.405   1_545 S
C748   C749    1.397   .     A
C748   C963    1.405   .     S
C748   H838    1.083   .     S
C749   C750    1.399   .     A
C749   H767    1.083   .     S
C750   H768    1.083   .     S
C750   C967    1.396   .     S
C751   C752    1.396   .     A
C751   H769    1.082   .     S
C751   C1182   1.396   1_545 S
C752   H771    1.079   .     S
C753   C755    1.384   .     A
C753   H777    1.076   .     S
C754   H759    1.080   .     S
C755   H770    1.080   .     S
C755   C87     1.384   1_556 S
C756   C901    1.357   .     S
C757   C1260   1.357   1_545 S
C758   O789    1.302   .     A
H760   N780    1.030   .     S
H765   C818    1.083   .     S
H774   C797    1.086   .     S
H778   N779    1.029   .     S
N779   Zn792   2.019   .     S
N779   N780    1.296   .     D
N780   Zn791   2.019   .     S
O783   Zn791   1.977   .     S
O783   C793    1.274   .     S
O784   Zn792   1.977   .     S
O785   Zn792   1.992   .     S
O786   Zn791   1.992   .     S
O787   Zn791   1.991   .     S
O787   C830    1.289   .     S
O788   Zn792   1.991   .     S
O789   Zn792   1.954   .     S
O790   Zn791   1.954   .     S
C793   O857    1.292   .     A
C793   C828    1.411   .     S
C794   C796    1.458   .     S
C794   O862    1.302   .     A
C794   O716    1.289   1_655 S
C795   C801    1.390   .     A
C795   C830    1.458   .     S
C796   C802    1.390   .     A
C796   C656    1.410   1_655 S
C797   C806    1.400   .     A
C798   C807    1.400   .     A
C798   C656    1.392   1_655 S
C798   H703    1.086   1_655 S
C799   C811    1.443   .     S
C799   C651    1.410   1_655 S
C799   C653    1.392   1_655 S
C800   C810    1.443   .     S
C801   C803    1.393   .     A
C801   H845    1.075   .     S
C802   H844    1.075   .     S
C802   C805    1.393   .     A
C803   C808    1.417   .     A
C803   C806    1.415   .     A
C804   C829    1.411   .     S
C804   O858    1.292   .     A
C804   O712    1.274   1_655 S
C805   C809    1.417   .     A
C805   C807    1.415   .     A
C806   C178    1.384   1_556 S
C808   C825    1.418   .     A
C808   C161    1.418   1_556 S
C809   C815    1.418   .     A
C810   N853    1.157   .     T
C811   N854    1.157   .     T
C812   C828    1.490   .     S
C812   C813    1.403   .     A
C812   C1034   1.405   .     S
C813   C814    1.396   .     A
C813   H833    1.079   .     S
C814   H834    1.083   .     S
C814   C1032   1.396   .     S
C815   C826    1.384   .     A
C815   H848    1.076   .     S
C816   C817    1.399   .     A
C816   H835    1.083   .     S
C816   C1246   1.396   1_545 S
C817   H836    1.083   .     S
C817   C818    1.397   .     A
C818   C1244   1.405   1_545 S
C819   C829    1.490   .     S
C819   C824    1.403   .     A
C819   C1252   1.405   1_545 S
C820   C821    1.397   .     A
C820   C1035   1.405   .     S
C820   H694    1.083   1_655 S
C821   C822    1.399   .     A
C821   H839    1.083   .     S
C822   H840    1.083   .     S
C822   C1039   1.396   .     S
C823   C824    1.396   .     A
C823   H841    1.082   .     S
C823   C1254   1.396   1_545 S
C824   H843    1.079   .     S
C825   C827    1.384   .     A
C825   H849    1.076   .     S
C826   H831    1.080   .     S
C827   H842    1.080   .     S
C827   C159    1.384   1_556 S
C828   C973    1.357   .     S
C829   C1116   1.357   1_645 S
C830   O861    1.302   .     A
H832   N852    1.030   .     S
H837   C674    1.083   1_655 S
H846   C653    1.086   1_655 S
H850   N851    1.029   .     S
N851   Zn864   2.019   .     S
N851   N852    1.296   .     D
N852   Zn863   2.019   .     S
O855   Zn863   1.977   .     S
O855   C649    1.274   1_655 S
O856   Zn864   1.977   .     S
O857   Zn864   1.992   .     S
O858   Zn863   1.992   .     S
O859   Zn863   1.991   .     S
O859   C686    1.289   1_655 S
O860   Zn864   1.991   .     S
O861   Zn864   1.954   .     S
O862   Zn863   1.954   .     S
C865   O929    1.292   .     A
C865   C900    1.411   .     S
C865   O1071   1.274   1_455 S
C866   C868    1.458   .     S
C866   O934    1.302   .     A
C866   O1004   1.289   .     S
C867   C873    1.390   .     A
C867   C902    1.458   .     S
C867   C1015   1.410   1_455 S
C868   C874    1.390   .     A
C868   C944    1.410   .     S
C869   C878    1.400   .     A
C869   C1015   1.392   1_455 S
C869   H1062   1.086   1_455 S
C870   C879    1.400   .     A
C870   C944    1.392   .     S
C870   H991    1.086   .     S
C871   C883    1.443   .     S
C871   C939    1.410   .     S
C871   C941    1.392   .     S
C872   C882    1.443   .     S
C872   C1012   1.410   1_455 S
C872   C1014   1.392   1_455 S
C873   C875    1.393   .     A
C873   H917    1.075   .     S
C874   H916    1.075   .     S
C874   C877    1.393   .     A
C875   C880    1.417   .     A
C875   C878    1.415   .     A
C876   C901    1.411   .     S
C876   O930    1.292   .     A
C876   O1000   1.274   .     S
C877   C881    1.417   .     A
C877   C879    1.415   .     A
C878   C250    1.384   1_556 S
C880   C897    1.418   .     A
C880   C233    1.418   1_556 S
C881   C887    1.418   .     A
C882   N925    1.157   .     T
C883   N926    1.157   .     T
C884   C900    1.490   .     S
C884   C885    1.403   .     A
C884   C1106   1.405   .     S
C885   C886    1.396   .     A
C885   H905    1.079   .     S
C886   H906    1.083   .     S
C886   C1104   1.396   .     S
C887   C898    1.384   .     A
C887   H920    1.076   .     S
C888   C889    1.399   .     A
C888   H907    1.083   .     S
C889   H908    1.083   .     S
C889   C890    1.397   .     A
C890   H1053   1.083   1_455 S
C891   C901    1.490   .     S
C891   C896    1.403   .     A
C892   C893    1.397   .     A
C892   C1107   1.405   .     S
C892   H982    1.083   .     S
C893   C894    1.399   .     A
C893   H911    1.083   .     S
C894   H912    1.083   .     S
C894   C1111   1.396   .     S
C895   C896    1.396   .     A
C895   H913    1.082   .     S
C896   H915    1.079   .     S
C897   C899    1.384   .     A
C897   H921    1.076   .     S
C898   H903    1.080   .     S
C899   H914    1.080   .     S
C899   C231    1.384   1_556 S
C900   C1261   1.357   1_455 S
C902   O933    1.302   .     A
C902   O1075   1.289   1_455 S
H904   N924    1.030   .     S
H909   C962    1.083   .     S
H910   C1036   1.083   1_455 S
H918   C941    1.086   .     S
H919   C1014   1.086   1_455 S
H922   N923    1.029   .     S
N923   Zn936   2.019   .     S
N923   N924    1.296   .     D
N924   Zn935   2.019   .     S
O927   Zn935   1.977   .     S
O927   C937    1.274   .     S
O928   Zn936   1.977   .     S
O928   C1020   1.274   1_455 S
O929   Zn936   1.992   .     S
O930   Zn935   1.992   .     S
O931   Zn935   1.991   .     S
O931   C974    1.289   .     S
O932   Zn936   1.991   .     S
O932   C1010   1.289   1_455 S
O933   Zn936   1.954   .     S
O934   Zn935   1.954   .     S
C937   O1001   1.292   .     A
C937   C972    1.411   .     S
C938   C940    1.458   .     S
C938   O1006   1.302   .     A
C938   O1076   1.289   .     S
C939   C945    1.390   .     A
C939   C974    1.458   .     S
C940   C946    1.390   .     A
C940   C1016   1.410   .     S
C941   C950    1.400   .     A
C942   C951    1.400   .     A
C942   C1016   1.392   .     S
C942   H1063   1.086   .     S
C943   C955    1.443   .     S
C943   C1011   1.410   .     S
C943   C1013   1.392   .     S
C944   C954    1.443   .     S
C945   C947    1.393   .     A
C945   H989    1.075   .     S
C946   H988    1.075   .     S
C946   C949    1.393   .     A
C947   C952    1.417   .     A
C947   C950    1.415   .     A
C948   C973    1.411   .     S
C948   O1002   1.292   .     A
C948   O1072   1.274   .     S
C949   C953    1.417   .     A
C949   C951    1.415   .     A
C950   C322    1.384   1_556 S
C952   C969    1.418   .     A
C952   C305    1.418   1_556 S
C953   C959    1.418   .     A
C954   N997    1.157   .     T
C955   N998    1.157   .     T
C956   C972    1.490   .     S
C956   C957    1.403   .     A
C956   C1178   1.405   .     S
C957   C958    1.396   .     A
C957   H977    1.079   .     S
C958   H978    1.083   .     S
C958   C1176   1.396   .     S
C959   C970    1.384   .     A
C959   H992    1.076   .     S
C960   C961    1.399   .     A
C960   H979    1.083   .     S
C961   H980    1.083   .     S
C961   C962    1.397   .     A
C963   C973    1.490   .     S
C963   C968    1.403   .     A
C964   C965    1.397   .     A
C964   C1179   1.405   .     S
C964   H1054   1.083   .     S
C965   C966    1.399   .     A
C965   H983    1.083   .     S
C966   H984    1.083   .     S
C966   C1183   1.396   .     S
C967   C968    1.396   .     A
C967   H985    1.082   .     S
C968   H987    1.079   .     S
C969   C971    1.384   .     A
C969   H993    1.076   .     S
C970   H975    1.080   .     S
C971   H986    1.080   .     S
C971   C303    1.384   1_556 S
C972   C1117   1.357   .     S
C974   O1005   1.302   .     A
H976   N996    1.030   .     S
H981   C1034   1.083   .     S
H990   C1013   1.086   .     S
H994   N995    1.029   .     S
N995   Zn1008  2.019   .     S
N995   N996    1.296   .     D
N996   Zn1007  2.019   .     S
O999   Zn1007  1.977   .     S
O999   C1009   1.274   .     S
O1000  Zn1008  1.977   .     S
O1001  Zn1008  1.992   .     S
O1002  Zn1007  1.992   .     S
O1003  Zn1007  1.991   .     S
O1003  C1046   1.289   .     S
O1004  Zn1008  1.991   .     S
O1005  Zn1008  1.954   .     S
O1006  Zn1007  1.954   .     S
C1009  O1073   1.292   .     A
C1009  C1044   1.411   .     S
C1010  C1012   1.458   .     S
C1010  O1078   1.302   .     A
C1010  O932    1.289   1_655 S
C1011  C1017   1.390   .     A
C1011  C1046   1.458   .     S
C1012  C1018   1.390   .     A
C1012  C872    1.410   1_655 S
C1013  C1022   1.400   .     A
C1014  C1023   1.400   .     A
C1014  C872    1.392   1_655 S
C1014  H919    1.086   1_655 S
C1015  C1027   1.443   .     S
C1015  C867    1.410   1_655 S
C1015  C869    1.392   1_655 S
C1016  C1026   1.443   .     S
C1017  C1019   1.393   .     A
C1017  H1061   1.075   .     S
C1018  H1060   1.075   .     S
C1018  C1021   1.393   .     A
C1019  C1024   1.417   .     A
C1019  C1022   1.415   .     A
C1020  C1045   1.411   .     S
C1020  O1074   1.292   .     A
C1020  O928    1.274   1_655 S
C1021  C1025   1.417   .     A
C1021  C1023   1.415   .     A
C1022  C394    1.384   1_556 S
C1024  C1041   1.418   .     A
C1024  C377    1.418   1_556 S
C1025  C1031   1.418   .     A
C1026  N1069   1.157   .     T
C1027  N1070   1.157   .     T
C1028  C1044   1.490   .     S
C1028  C1029   1.403   .     A
C1028  C1250   1.405   .     S
C1029  C1030   1.396   .     A
C1029  H1049   1.079   .     S
C1030  H1050   1.083   .     S
C1030  C1248   1.396   .     S
C1031  C1042   1.384   .     A
C1031  H1064   1.076   .     S
C1032  C1033   1.399   .     A
C1032  H1051   1.083   .     S
C1033  H1052   1.083   .     S
C1033  C1034   1.397   .     A
C1035  C1045   1.490   .     S
C1035  C1040   1.403   .     A
C1036  C1037   1.397   .     A
C1036  C1251   1.405   .     S
C1036  H910    1.083   1_655 S
C1037  C1038   1.399   .     A
C1037  H1055   1.083   .     S
C1038  H1056   1.083   .     S
C1038  C1255   1.396   .     S
C1039  C1040   1.396   .     A
C1039  H1057   1.082   .     S
C1040  H1059   1.079   .     S
C1041  C1043   1.384   .     A
C1041  H1065   1.076   .     S
C1042  H1047   1.080   .     S
C1043  H1058   1.080   .     S
C1043  C375    1.384   1_556 S
C1044  C1189   1.357   .     S
C1045  C684    1.357   1_655 S
C1046  O1077   1.302   .     A
H1048  N1068   1.030   .     S
H1053  C890    1.083   1_655 S
H1062  C869    1.086   1_655 S
H1066  N1067   1.029   .     S
N1067  Zn1080  2.019   .     S
N1067  N1068   1.296   .     D
N1068  Zn1079  2.019   .     S
O1071  Zn1079  1.977   .     S
O1071  C865    1.274   1_655 S
O1072  Zn1080  1.977   .     S
O1073  Zn1080  1.992   .     S
O1074  Zn1079  1.992   .     S
O1075  Zn1079  1.991   .     S
O1075  C902    1.289   1_655 S
O1076  Zn1080  1.991   .     S
O1077  Zn1080  1.954   .     S
O1078  Zn1079  1.954   .     S
C1081  O1145   1.292   .     A
C1081  C1116   1.411   .     S
C1081  O1287   1.274   1_455 S
C1082  C1084   1.458   .     S
C1082  O1150   1.302   .     A
C1082  O1220   1.289   .     S
C1083  C1089   1.390   .     A
C1083  C1118   1.458   .     S
C1083  C1231   1.410   1_455 S
C1084  C1090   1.390   .     A
C1084  C1160   1.410   .     S
C1085  C1094   1.400   .     A
C1085  C1231   1.392   1_455 S
C1085  H1278   1.086   1_455 S
C1086  C1095   1.400   .     A
C1086  C1160   1.392   .     S
C1086  H1207   1.086   .     S
C1087  C1099   1.443   .     S
C1087  C1155   1.410   .     S
C1087  C1157   1.392   .     S
C1088  C1098   1.443   .     S
C1088  C1228   1.410   1_455 S
C1088  C1230   1.392   1_455 S
C1089  C1091   1.393   .     A
C1089  H1133   1.075   .     S
C1090  H1132   1.075   .     S
C1090  C1093   1.393   .     A
C1091  C1096   1.417   .     A
C1091  C1094   1.415   .     A
C1092  C1117   1.411   .     S
C1092  O1146   1.292   .     A
C1092  O1216   1.274   .     S
C1093  C1097   1.417   .     A
C1093  C1095   1.415   .     A
C1094  C466    1.384   1_556 S
C1096  C1113   1.418   .     A
C1096  C449    1.418   1_556 S
C1097  C1103   1.418   .     A
C1098  N1141   1.157   .     T
C1099  N1142   1.157   .     T
C1100  C1116   1.490   .     S
C1100  C1101   1.403   .     A
C1100  C674    1.405   1_565 S
C1101  C1102   1.396   .     A
C1101  H1121   1.079   .     S
C1102  H1122   1.083   .     S
C1102  C672    1.396   1_565 S
C1103  C1114   1.384   .     A
C1103  H1136   1.076   .     S
C1104  C1105   1.399   .     A
C1104  H1123   1.083   .     S
C1105  H1124   1.083   .     S
C1105  C1106   1.397   .     A
C1106  H1269   1.083   1_455 S
C1107  C1117   1.490   .     S
C1107  C1112   1.403   .     A
C1108  C1109   1.397   .     A
C1108  C675    1.405   1_565 S
C1108  H1198   1.083   .     S
C1109  C1110   1.399   .     A
C1109  H1127   1.083   .     S
C1110  H1128   1.083   .     S
C1110  C679    1.396   1_565 S
C1111  C1112   1.396   .     A
C1111  H1129   1.082   .     S
C1112  H1131   1.079   .     S
C1113  C1115   1.384   .     A
C1113  H1137   1.076   .     S
C1114  H1119   1.080   .     S
C1115  H1130   1.080   .     S
C1115  C447    1.384   1_556 S
C1116  C829    1.357   1_465 S
C1118  O1149   1.302   .     A
C1118  O1291   1.289   1_455 S
H1120  N1140   1.030   .     S
H1125  C1178   1.083   .     S
H1126  C1252   1.083   1_455 S
H1134  C1157   1.086   .     S
H1135  C1230   1.086   1_455 S
H1138  N1139   1.029   .     S
N1139  Zn1152  2.019   .     S
N1139  N1140   1.296   .     D
N1140  Zn1151  2.019   .     S
O1143  Zn1151  1.977   .     S
O1143  C1153   1.274   .     S
O1144  Zn1152  1.977   .     S
O1144  C1236   1.274   1_455 S
O1145  Zn1152  1.992   .     S
O1146  Zn1151  1.992   .     S
O1147  Zn1151  1.991   .     S
O1147  C1190   1.289   .     S
O1148  Zn1152  1.991   .     S
O1148  C1226   1.289   1_455 S
O1149  Zn1152  1.954   .     S
O1150  Zn1151  1.954   .     S
C1153  O1217   1.292   .     A
C1153  C1188   1.411   .     S
C1154  C1156   1.458   .     S
C1154  O1222   1.302   .     A
C1154  O1292   1.289   .     S
C1155  C1161   1.390   .     A
C1155  C1190   1.458   .     S
C1156  C1162   1.390   .     A
C1156  C1232   1.410   .     S
C1157  C1166   1.400   .     A
C1158  C1167   1.400   .     A
C1158  C1232   1.392   .     S
C1158  H1279   1.086   .     S
C1159  C1171   1.443   .     S
C1159  C1227   1.410   .     S
C1159  C1229   1.392   .     S
C1160  C1170   1.443   .     S
C1161  C1163   1.393   .     A
C1161  H1205   1.075   .     S
C1162  H1204   1.075   .     S
C1162  C1165   1.393   .     A
C1163  C1168   1.417   .     A
C1163  C1166   1.415   .     A
C1164  C1189   1.411   .     S
C1164  O1218   1.292   .     A
C1164  O1288   1.274   .     S
C1165  C1169   1.417   .     A
C1165  C1167   1.415   .     A
C1166  C538    1.384   1_556 S
C1168  C1185   1.418   .     A
C1168  C521    1.418   1_556 S
C1169  C1175   1.418   .     A
C1170  N1213   1.157   .     T
C1171  N1214   1.157   .     T
C1172  C1188   1.490   .     S
C1172  C1173   1.403   .     A
C1172  C746    1.405   1_565 S
C1173  C1174   1.396   .     A
C1173  H1193   1.079   .     S
C1174  H1194   1.083   .     S
C1174  C744    1.396   1_565 S
C1175  C1186   1.384   .     A
C1175  H1208   1.076   .     S
C1176  C1177   1.399   .     A
C1176  H1195   1.083   .     S
C1177  H1196   1.083   .     S
C1177  C1178   1.397   .     A
C1179  C1189   1.490   .     S
C1179  C1184   1.403   .     A
C1180  C1181   1.397   .     A
C1180  C747    1.405   1_565 S
C1180  H1270   1.083   .     S
C1181  C1182   1.399   .     A
C1181  H1199   1.083   .     S
C1182  H1200   1.083   .     S
C1182  C751    1.396   1_565 S
C1183  C1184   1.396   .     A
C1183  H1201   1.082   .     S
C1184  H1203   1.079   .     S
C1185  C1187   1.384   .     A
C1185  H1209   1.076   .     S
C1186  H1191   1.080   .     S
C1187  H1202   1.080   .     S
C1187  C519    1.384   1_556 S
C1188  C685    1.357   1_565 S
C1190  O1221   1.302   .     A
H1192  N1212   1.030   .     S
H1197  C1250   1.083   .     S
H1206  C1229   1.086   .     S
H1210  N1211   1.029   .     S
N1211  Zn1224  2.019   .     S
N1211  N1212   1.296   .     D
N1212  Zn1223  2.019   .     S
O1215  Zn1223  1.977   .     S
O1215  C1225   1.274   .     S
O1216  Zn1224  1.977   .     S
O1217  Zn1224  1.992   .     S
O1218  Zn1223  1.992   .     S
O1219  Zn1223  1.991   .     S
O1219  C1262   1.289   .     S
O1220  Zn1224  1.991   .     S
O1221  Zn1224  1.954   .     S
O1222  Zn1223  1.954   .     S
C1225  O1289   1.292   .     A
C1225  C1260   1.411   .     S
C1226  C1228   1.458   .     S
C1226  O1294   1.302   .     A
C1226  O1148   1.289   1_655 S
C1227  C1233   1.390   .     A
C1227  C1262   1.458   .     S
C1228  C1234   1.390   .     A
C1228  C1088   1.410   1_655 S
C1229  C1238   1.400   .     A
C1230  C1239   1.400   .     A
C1230  C1088   1.392   1_655 S
C1230  H1135   1.086   1_655 S
C1231  C1243   1.443   .     S
C1231  C1083   1.410   1_655 S
C1231  C1085   1.392   1_655 S
C1232  C1242   1.443   .     S
C1233  C1235   1.393   .     A
C1233  H1277   1.075   .     S
C1234  H1276   1.075   .     S
C1234  C1237   1.393   .     A
C1235  C1240   1.417   .     A
C1235  C1238   1.415   .     A
C1236  C1261   1.411   .     S
C1236  O1290   1.292   .     A
C1236  O1144   1.274   1_655 S
C1237  C1241   1.417   .     A
C1237  C1239   1.415   .     A
C1238  C610    1.384   1_556 S
C1240  C1257   1.418   .     A
C1240  C593    1.418   1_556 S
C1241  C1247   1.418   .     A
C1242  N1285   1.157   .     T
C1243  N1286   1.157   .     T
C1244  C1260   1.490   .     S
C1244  C1245   1.403   .     A
C1244  C818    1.405   1_565 S
C1245  C1246   1.396   .     A
C1245  H1265   1.079   .     S
C1246  H1266   1.083   .     S
C1246  C816    1.396   1_565 S
C1247  C1258   1.384   .     A
C1247  H1280   1.076   .     S
C1248  C1249   1.399   .     A
C1248  H1267   1.083   .     S
C1249  H1268   1.083   .     S
C1249  C1250   1.397   .     A
C1251  C1261   1.490   .     S
C1251  C1256   1.403   .     A
C1252  C1253   1.397   .     A
C1252  C819    1.405   1_565 S
C1252  H1126   1.083   1_655 S
C1253  C1254   1.399   .     A
C1253  H1271   1.083   .     S
C1254  H1272   1.083   .     S
C1254  C823    1.396   1_565 S
C1255  C1256   1.396   .     A
C1255  H1273   1.082   .     S
C1256  H1275   1.079   .     S
C1257  C1259   1.384   .     A
C1257  H1281   1.076   .     S
C1258  H1263   1.080   .     S
C1259  H1274   1.080   .     S
C1259  C591    1.384   1_556 S
C1260  C757    1.357   1_565 S
C1261  C900    1.357   1_655 S
C1262  O1293   1.302   .     A
H1264  N1284   1.030   .     S
H1269  C1106   1.083   1_655 S
H1278  C1085   1.086   1_655 S
H1282  N1283   1.029   .     S
N1283  Zn1296  2.019   .     S
N1283  N1284   1.296   .     D
N1284  Zn1295  2.019   .     S
O1287  Zn1295  1.977   .     S
O1287  C1081   1.274   1_655 S
O1288  Zn1296  1.977   .     S
O1289  Zn1296  1.992   .     S
O1290  Zn1295  1.992   .     S
O1291  Zn1295  1.991   .     S
O1291  C1118   1.289   1_655 S
O1292  Zn1296  1.991   .     S
O1293  Zn1296  1.954   .     S
O1294  Zn1295  1.954   .     S
