data_str_m3_o2_o10_pcu_sym.82
_audit_creation_date              2020-01-03
_audit_creation_method            'Materials Studio'
_symmetry_space_group_name_H-M    'P1'
_symmetry_Int_Tables_number       1
_symmetry_cell_setting            triclinic
loop_
_symmetry_equiv_pos_as_xyz
  x,y,z
_cell_length_a                    25.7387
_cell_length_b                    29.8950
_cell_length_c                    28.3454
_cell_angle_alpha                 90.5090
_cell_angle_beta                  98.6110
_cell_angle_gamma                 89.7395
loop_
_atom_site_label
_atom_site_type_symbol
_atom_site_fract_x
_atom_site_fract_y
_atom_site_fract_z
_atom_site_U_iso_or_equiv
_atom_site_adp_type
_atom_site_occupancy
C1     C     0.16732   0.16395   0.24986   0.00000  Uiso   1.00
C2     C     0.12086   0.24075   0.44134   0.00000  Uiso   1.00
C3     C     0.16682   0.25020   0.02669   0.00000  Uiso   1.00
C4     C     0.16681   0.25019   0.47344   0.00000  Uiso   1.00
C5     C     0.06700   0.25018   0.23754   0.00000  Uiso   1.00
C6     C     0.26632   0.25047   0.26246   0.00000  Uiso   1.00
C7     C     0.01198   0.25061   0.23081   0.00000  Uiso   1.00
C8     C     0.32132   0.25093   0.26920   0.00000  Uiso   1.00
C9     C     0.13037   0.04766   0.27072   0.00000  Uiso   1.00
C10    C     0.13107   0.45251   0.21775   0.00000  Uiso   1.00
C11    C     0.13208   0.09366   0.27209   0.00000  Uiso   1.00
C12    C     0.16727   0.33607   0.25037   0.00000  Uiso   1.00
C13    C     0.13212   0.40647   0.21769   0.00000  Uiso   1.00
C14    C     0.16878   0.11603   0.24948   0.00000  Uiso   1.00
C15    C     0.16774   0.38403   0.25136   0.00000  Uiso   1.00
C16    C     0.20486   0.09267   0.22540   0.00000  Uiso   1.00
C17    C     0.20311   0.40728   0.28566   0.00000  Uiso   1.00
C18    C     0.20334   0.04585   0.22442   0.00000  Uiso   1.00
C19    C     0.20250   0.45422   0.28537   0.00000  Uiso   1.00
C20    C     0.16620   0.02400   0.24775   0.00000  Uiso   1.00
C21    C     0.16623   0.47606   0.25093   0.00000  Uiso   1.00
C22    C     0.28648   0.13421   0.23171   0.00000  Uiso   1.00
C23    C     0.12390   0.26725   0.04685   0.00000  Uiso   1.00
C24    C     0.22732   0.37929   0.36602   0.00000  Uiso   1.00
C25    C     0.29053   0.01314   0.22508   0.00000  Uiso   1.00
C26    C     0.21789   0.00385   0.35538   0.00000  Uiso   1.00
C27    C     0.21272   0.25950   0.45385   0.00000  Uiso   1.00
C28    C     0.12474   0.26705   0.09663   0.00000  Uiso   1.00
C29    C     0.21174   0.25944   0.40405   0.00000  Uiso   1.00
C30    C     0.20863   0.23296   0.10771   0.00000  Uiso   1.00
C31    C     0.12171   0.24057   0.39181   0.00000  Uiso   1.00
C32    C     0.20964   0.23301   0.05819   0.00000  Uiso   1.00
H33    H     0.32470   0.25034   0.19437   0.00000  Uiso   1.00
H34    H     0.24727   0.26705   0.38971   0.00000  Uiso   1.00
H35    H     0.24156   0.21913   0.13133   0.00000  Uiso   1.00
H36    H     0.08616   0.23263   0.36789   0.00000  Uiso   1.00
H37    H     0.24338   0.21895   0.04464   0.00000  Uiso   1.00
H38    H     0.08459   0.23278   0.45439   0.00000  Uiso   1.00
H39    H     0.25073   0.10036   0.17136   0.00000  Uiso   1.00
H40    H     0.31306   0.10681   0.24647   0.00000  Uiso   1.00
H41    H     0.27463   0.15403   0.26164   0.00000  Uiso   1.00
H42    H     0.30840   0.15640   0.21051   0.00000  Uiso   1.00
H43    H     0.27886   0.39168   0.31763   0.00000  Uiso   1.00
H44    H     0.00856   0.25125   0.30562   0.00000  Uiso   1.00
H45    H     0.23102   0.41215   0.38460   0.00000  Uiso   1.00
H46    H     0.25483   0.35540   0.38664   0.00000  Uiso   1.00
H47    H     0.18665   0.36668   0.36505   0.00000  Uiso   1.00
H48    H     0.22210   0.49357   0.18054   0.00000  Uiso   1.00
H49    H     0.32006   0.02516   0.20339   0.00000  Uiso   1.00
H50    H     0.29677   0.47674   0.23139   0.00000  Uiso   1.00
H51    H     0.29695   0.03061   0.26025   0.00000  Uiso   1.00
H52    H     0.27555   0.46579   0.32826   0.00000  Uiso   1.00
H53    H     0.23851   0.49350   0.39086   0.00000  Uiso   1.00
H54    H     0.17517   0.49767   0.35440   0.00000  Uiso   1.00
H55    H     0.10190   0.03033   0.28842   0.00000  Uiso   1.00
H56    H     0.22429   0.04020   0.35126   0.00000  Uiso   1.00
H57    H     0.10353   0.46993   0.19143   0.00000  Uiso   1.00
H58    H     0.10417   0.11191   0.29009   0.00000  Uiso   1.00
H59    H     0.10489   0.38825   0.19163   0.00000  Uiso   1.00
H60    H     0.09018   0.28133   0.02439   0.00000  Uiso   1.00
H61    H     0.24905   0.26747   0.47681   0.00000  Uiso   1.00
H62    H     0.09172   0.28069   0.11157   0.00000  Uiso   1.00
N63    N     0.16667   0.24999   0.12624   0.00000  Uiso   1.00
N64    N     0.16667   0.25001   0.37377   0.00000  Uiso   1.00
N65    N     0.24102   0.11630   0.20126   0.00000  Uiso   1.00
N66    N     0.24025   0.38307   0.31826   0.00000  Uiso   1.00
N67    N     0.23827   0.02105   0.19944   0.00000  Uiso   1.00
N68    N     0.23892   0.47959   0.31792   0.00000  Uiso   1.00
O69    O     0.16667   0.18453   0.28974   0.00000  Uiso   1.00
O70    O     0.16666   0.31546   0.21026   0.00000  Uiso   1.00
O71    O     0.16667   0.18453   0.21026   0.00000  Uiso   1.00
O72    O     0.16666   0.31547   0.28974   0.00000  Uiso   1.00
O73    O     0.09058   0.25000   0.28045   0.00000  Uiso   1.00
O74    O     0.24275   0.25000   0.21955   0.00000  Uiso   1.00
O75    O     0.09058   0.24999   0.20097   0.00000  Uiso   1.00
O76    O     0.24275   0.25000   0.29903   0.00000  Uiso   1.00
Zn77   Zn    0.16667   0.25000   0.30307   0.00000  Uiso   1.00
Zn78   Zn    0.16667   0.24999   0.19693   0.00000  Uiso   1.00
C79    C     0.50066   0.16395   0.24986   0.00000  Uiso   1.00
C80    C     0.45419   0.24075   0.44134   0.00000  Uiso   1.00
C81    C     0.50015   0.25020   0.02669   0.00000  Uiso   1.00
C82    C     0.50014   0.25019   0.47344   0.00000  Uiso   1.00
C83    C     0.40034   0.25018   0.23754   0.00000  Uiso   1.00
C84    C     0.59965   0.25047   0.26246   0.00000  Uiso   1.00
C85    C     0.34532   0.25061   0.23081   0.00000  Uiso   1.00
C86    C     0.65466   0.25093   0.26920   0.00000  Uiso   1.00
C87    C     0.46371   0.04766   0.27072   0.00000  Uiso   1.00
C88    C     0.46440   0.45251   0.21775   0.00000  Uiso   1.00
C89    C     0.46541   0.09366   0.27209   0.00000  Uiso   1.00
C90    C     0.50060   0.33607   0.25037   0.00000  Uiso   1.00
C91    C     0.46546   0.40647   0.21769   0.00000  Uiso   1.00
C92    C     0.50212   0.11603   0.24948   0.00000  Uiso   1.00
C93    C     0.50107   0.38403   0.25136   0.00000  Uiso   1.00
C94    C     0.53819   0.09267   0.22540   0.00000  Uiso   1.00
C95    C     0.53644   0.40728   0.28566   0.00000  Uiso   1.00
C96    C     0.53668   0.04585   0.22442   0.00000  Uiso   1.00
C97    C     0.53583   0.45422   0.28537   0.00000  Uiso   1.00
C98    C     0.49954   0.02400   0.24775   0.00000  Uiso   1.00
C99    C     0.49956   0.47606   0.25093   0.00000  Uiso   1.00
C100   C     0.61982   0.13421   0.23171   0.00000  Uiso   1.00
C101   C     0.45723   0.26725   0.04685   0.00000  Uiso   1.00
C102   C     0.56066   0.37929   0.36602   0.00000  Uiso   1.00
C103   C     0.62386   0.01314   0.22508   0.00000  Uiso   1.00
C104   C     0.55122   0.00385   0.35538   0.00000  Uiso   1.00
C105   C     0.54605   0.25950   0.45385   0.00000  Uiso   1.00
C106   C     0.45808   0.26705   0.09663   0.00000  Uiso   1.00
C107   C     0.54507   0.25944   0.40405   0.00000  Uiso   1.00
C108   C     0.54196   0.23296   0.10771   0.00000  Uiso   1.00
C109   C     0.45504   0.24057   0.39181   0.00000  Uiso   1.00
C110   C     0.54297   0.23301   0.05819   0.00000  Uiso   1.00
H111   H     0.65804   0.25034   0.19437   0.00000  Uiso   1.00
H112   H     0.58061   0.26705   0.38971   0.00000  Uiso   1.00
H113   H     0.57489   0.21913   0.13133   0.00000  Uiso   1.00
H114   H     0.41950   0.23263   0.36789   0.00000  Uiso   1.00
H115   H     0.57671   0.21895   0.04464   0.00000  Uiso   1.00
H116   H     0.41793   0.23278   0.45439   0.00000  Uiso   1.00
H117   H     0.58406   0.10036   0.17136   0.00000  Uiso   1.00
H118   H     0.64640   0.10681   0.24647   0.00000  Uiso   1.00
H119   H     0.60797   0.15403   0.26164   0.00000  Uiso   1.00
H120   H     0.64174   0.15640   0.21051   0.00000  Uiso   1.00
H121   H     0.61219   0.39168   0.31763   0.00000  Uiso   1.00
H122   H     0.34190   0.25125   0.30562   0.00000  Uiso   1.00
H123   H     0.56436   0.41215   0.38460   0.00000  Uiso   1.00
H124   H     0.58816   0.35540   0.38664   0.00000  Uiso   1.00
H125   H     0.51998   0.36668   0.36505   0.00000  Uiso   1.00
H126   H     0.55543   0.49357   0.18054   0.00000  Uiso   1.00
H127   H     0.65339   0.02516   0.20339   0.00000  Uiso   1.00
H128   H     0.63011   0.47674   0.23139   0.00000  Uiso   1.00
H129   H     0.63028   0.03061   0.26025   0.00000  Uiso   1.00
H130   H     0.60888   0.46579   0.32826   0.00000  Uiso   1.00
H131   H     0.57185   0.49350   0.39086   0.00000  Uiso   1.00
H132   H     0.50850   0.49767   0.35440   0.00000  Uiso   1.00
H133   H     0.43523   0.03033   0.28842   0.00000  Uiso   1.00
H134   H     0.55763   0.04020   0.35126   0.00000  Uiso   1.00
H135   H     0.43686   0.46993   0.19143   0.00000  Uiso   1.00
H136   H     0.43750   0.11191   0.29009   0.00000  Uiso   1.00
H137   H     0.43823   0.38825   0.19163   0.00000  Uiso   1.00
H138   H     0.42351   0.28133   0.02439   0.00000  Uiso   1.00
H139   H     0.58239   0.26747   0.47681   0.00000  Uiso   1.00
H140   H     0.42505   0.28069   0.11157   0.00000  Uiso   1.00
N141   N     0.50000   0.24999   0.12624   0.00000  Uiso   1.00
N142   N     0.50000   0.25001   0.37377   0.00000  Uiso   1.00
N143   N     0.57436   0.11630   0.20126   0.00000  Uiso   1.00
N144   N     0.57358   0.38307   0.31826   0.00000  Uiso   1.00
N145   N     0.57160   0.02105   0.19944   0.00000  Uiso   1.00
N146   N     0.57226   0.47959   0.31792   0.00000  Uiso   1.00
O147   O     0.50000   0.18453   0.28974   0.00000  Uiso   1.00
O148   O     0.50000   0.31546   0.21026   0.00000  Uiso   1.00
O149   O     0.50000   0.18453   0.21026   0.00000  Uiso   1.00
O150   O     0.50000   0.31547   0.28974   0.00000  Uiso   1.00
O151   O     0.42392   0.25000   0.28045   0.00000  Uiso   1.00
O152   O     0.57608   0.25000   0.21955   0.00000  Uiso   1.00
O153   O     0.42392   0.24999   0.20097   0.00000  Uiso   1.00
O154   O     0.57608   0.25000   0.29903   0.00000  Uiso   1.00
Zn155  Zn    0.50000   0.25000   0.30307   0.00000  Uiso   1.00
Zn156  Zn    0.50000   0.24999   0.19693   0.00000  Uiso   1.00
C157   C     0.83399   0.16395   0.24986   0.00000  Uiso   1.00
C158   C     0.78753   0.24075   0.44134   0.00000  Uiso   1.00
C159   C     0.83348   0.25020   0.02669   0.00000  Uiso   1.00
C160   C     0.83348   0.25019   0.47344   0.00000  Uiso   1.00
C161   C     0.73367   0.25018   0.23754   0.00000  Uiso   1.00
C162   C     0.93298   0.25047   0.26246   0.00000  Uiso   1.00
C163   C     0.67865   0.25061   0.23081   0.00000  Uiso   1.00
C164   C     0.98799   0.25093   0.26920   0.00000  Uiso   1.00
C165   C     0.79704   0.04766   0.27072   0.00000  Uiso   1.00
C166   C     0.79774   0.45251   0.21775   0.00000  Uiso   1.00
C167   C     0.79874   0.09366   0.27209   0.00000  Uiso   1.00
C168   C     0.83394   0.33607   0.25037   0.00000  Uiso   1.00
C169   C     0.79879   0.40647   0.21769   0.00000  Uiso   1.00
C170   C     0.83545   0.11603   0.24948   0.00000  Uiso   1.00
C171   C     0.83440   0.38403   0.25136   0.00000  Uiso   1.00
C172   C     0.87153   0.09267   0.22540   0.00000  Uiso   1.00
C173   C     0.86977   0.40728   0.28566   0.00000  Uiso   1.00
C174   C     0.87001   0.04585   0.22442   0.00000  Uiso   1.00
C175   C     0.86916   0.45422   0.28537   0.00000  Uiso   1.00
C176   C     0.83287   0.02400   0.24775   0.00000  Uiso   1.00
C177   C     0.83289   0.47606   0.25093   0.00000  Uiso   1.00
C178   C     0.95315   0.13421   0.23171   0.00000  Uiso   1.00
C179   C     0.79057   0.26725   0.04685   0.00000  Uiso   1.00
C180   C     0.89399   0.37929   0.36602   0.00000  Uiso   1.00
C181   C     0.95720   0.01314   0.22508   0.00000  Uiso   1.00
C182   C     0.88456   0.00385   0.35538   0.00000  Uiso   1.00
C183   C     0.87939   0.25950   0.45385   0.00000  Uiso   1.00
C184   C     0.79141   0.26705   0.09663   0.00000  Uiso   1.00
C185   C     0.87841   0.25944   0.40405   0.00000  Uiso   1.00
C186   C     0.87530   0.23296   0.10771   0.00000  Uiso   1.00
C187   C     0.78838   0.24057   0.39181   0.00000  Uiso   1.00
C188   C     0.87630   0.23301   0.05819   0.00000  Uiso   1.00
H189   H     0.99137   0.25034   0.19437   0.00000  Uiso   1.00
H190   H     0.91394   0.26705   0.38971   0.00000  Uiso   1.00
H191   H     0.90823   0.21913   0.13133   0.00000  Uiso   1.00
H192   H     0.75283   0.23263   0.36789   0.00000  Uiso   1.00
H193   H     0.91005   0.21895   0.04464   0.00000  Uiso   1.00
H194   H     0.75126   0.23278   0.45439   0.00000  Uiso   1.00
H195   H     0.91739   0.10036   0.17136   0.00000  Uiso   1.00
H196   H     0.97973   0.10681   0.24647   0.00000  Uiso   1.00
H197   H     0.94130   0.15403   0.26164   0.00000  Uiso   1.00
H198   H     0.97507   0.15640   0.21051   0.00000  Uiso   1.00
H199   H     0.94553   0.39168   0.31763   0.00000  Uiso   1.00
H200   H     0.67523   0.25125   0.30562   0.00000  Uiso   1.00
H201   H     0.89769   0.41215   0.38460   0.00000  Uiso   1.00
H202   H     0.92149   0.35540   0.38664   0.00000  Uiso   1.00
H203   H     0.85332   0.36668   0.36505   0.00000  Uiso   1.00
H204   H     0.88876   0.49357   0.18054   0.00000  Uiso   1.00
H205   H     0.98673   0.02516   0.20339   0.00000  Uiso   1.00
H206   H     0.96344   0.47674   0.23139   0.00000  Uiso   1.00
H207   H     0.96361   0.03061   0.26025   0.00000  Uiso   1.00
H208   H     0.94221   0.46579   0.32826   0.00000  Uiso   1.00
H209   H     0.90518   0.49350   0.39086   0.00000  Uiso   1.00
H210   H     0.84183   0.49767   0.35440   0.00000  Uiso   1.00
H211   H     0.76857   0.03033   0.28842   0.00000  Uiso   1.00
H212   H     0.89096   0.04020   0.35126   0.00000  Uiso   1.00
H213   H     0.77020   0.46993   0.19143   0.00000  Uiso   1.00
H214   H     0.77083   0.11191   0.29009   0.00000  Uiso   1.00
H215   H     0.77156   0.38825   0.19163   0.00000  Uiso   1.00
H216   H     0.75684   0.28133   0.02439   0.00000  Uiso   1.00
H217   H     0.91572   0.26747   0.47681   0.00000  Uiso   1.00
H218   H     0.75839   0.28069   0.11157   0.00000  Uiso   1.00
N219   N     0.83333   0.24999   0.12624   0.00000  Uiso   1.00
N220   N     0.83333   0.25001   0.37377   0.00000  Uiso   1.00
N221   N     0.90769   0.11630   0.20126   0.00000  Uiso   1.00
N222   N     0.90691   0.38307   0.31826   0.00000  Uiso   1.00
N223   N     0.90494   0.02105   0.19944   0.00000  Uiso   1.00
N224   N     0.90559   0.47959   0.31792   0.00000  Uiso   1.00
O225   O     0.83334   0.18453   0.28974   0.00000  Uiso   1.00
O226   O     0.83333   0.31546   0.21026   0.00000  Uiso   1.00
O227   O     0.83334   0.18453   0.21026   0.00000  Uiso   1.00
O228   O     0.83333   0.31547   0.28974   0.00000  Uiso   1.00
O229   O     0.75725   0.25000   0.28045   0.00000  Uiso   1.00
O230   O     0.90942   0.25000   0.21955   0.00000  Uiso   1.00
O231   O     0.75725   0.24999   0.20097   0.00000  Uiso   1.00
O232   O     0.90942   0.25000   0.29903   0.00000  Uiso   1.00
Zn233  Zn    0.83333   0.25000   0.30307   0.00000  Uiso   1.00
Zn234  Zn    0.83333   0.24999   0.19693   0.00000  Uiso   1.00
C235   C     0.16732   0.66395   0.24986   0.00000  Uiso   1.00
C236   C     0.12086   0.74075   0.44134   0.00000  Uiso   1.00
C237   C     0.16682   0.75020   0.02669   0.00000  Uiso   1.00
C238   C     0.16681   0.75019   0.47344   0.00000  Uiso   1.00
C239   C     0.06700   0.75018   0.23754   0.00000  Uiso   1.00
C240   C     0.26632   0.75047   0.26246   0.00000  Uiso   1.00
C241   C     0.01198   0.75061   0.23081   0.00000  Uiso   1.00
C242   C     0.32132   0.75093   0.26920   0.00000  Uiso   1.00
C243   C     0.13037   0.54766   0.27072   0.00000  Uiso   1.00
C244   C     0.13107   0.95251   0.21775   0.00000  Uiso   1.00
C245   C     0.13208   0.59366   0.27209   0.00000  Uiso   1.00
C246   C     0.16727   0.83607   0.25037   0.00000  Uiso   1.00
C247   C     0.13212   0.90647   0.21769   0.00000  Uiso   1.00
C248   C     0.16878   0.61603   0.24948   0.00000  Uiso   1.00
C249   C     0.16774   0.88403   0.25136   0.00000  Uiso   1.00
C250   C     0.20486   0.59267   0.22540   0.00000  Uiso   1.00
C251   C     0.20311   0.90728   0.28566   0.00000  Uiso   1.00
C252   C     0.20334   0.54585   0.22442   0.00000  Uiso   1.00
C253   C     0.20250   0.95422   0.28537   0.00000  Uiso   1.00
C254   C     0.16620   0.52400   0.24775   0.00000  Uiso   1.00
C255   C     0.16623   0.97606   0.25093   0.00000  Uiso   1.00
C256   C     0.28648   0.63421   0.23171   0.00000  Uiso   1.00
C257   C     0.12390   0.76725   0.04685   0.00000  Uiso   1.00
C258   C     0.22732   0.87929   0.36602   0.00000  Uiso   1.00
C259   C     0.29053   0.51314   0.22508   0.00000  Uiso   1.00
C260   C     0.21789   0.50385   0.35538   0.00000  Uiso   1.00
C261   C     0.21272   0.75950   0.45385   0.00000  Uiso   1.00
C262   C     0.12474   0.76705   0.09663   0.00000  Uiso   1.00
C263   C     0.21174   0.75944   0.40405   0.00000  Uiso   1.00
C264   C     0.20863   0.73296   0.10771   0.00000  Uiso   1.00
C265   C     0.12171   0.74057   0.39181   0.00000  Uiso   1.00
C266   C     0.20964   0.73301   0.05819   0.00000  Uiso   1.00
H267   H     0.32470   0.75034   0.19437   0.00000  Uiso   1.00
H268   H     0.24727   0.76705   0.38971   0.00000  Uiso   1.00
H269   H     0.24156   0.71913   0.13133   0.00000  Uiso   1.00
H270   H     0.08616   0.73263   0.36789   0.00000  Uiso   1.00
H271   H     0.24338   0.71895   0.04464   0.00000  Uiso   1.00
H272   H     0.08459   0.73278   0.45439   0.00000  Uiso   1.00
H273   H     0.25073   0.60036   0.17136   0.00000  Uiso   1.00
H274   H     0.31306   0.60681   0.24647   0.00000  Uiso   1.00
H275   H     0.27463   0.65403   0.26164   0.00000  Uiso   1.00
H276   H     0.30840   0.65640   0.21051   0.00000  Uiso   1.00
H277   H     0.27886   0.89168   0.31763   0.00000  Uiso   1.00
H278   H     0.00856   0.75125   0.30562   0.00000  Uiso   1.00
H279   H     0.23102   0.91215   0.38460   0.00000  Uiso   1.00
H280   H     0.25483   0.85540   0.38664   0.00000  Uiso   1.00
H281   H     0.18665   0.86668   0.36505   0.00000  Uiso   1.00
H282   H     0.22210   0.99357   0.18054   0.00000  Uiso   1.00
H283   H     0.32006   0.52516   0.20339   0.00000  Uiso   1.00
H284   H     0.29677   0.97674   0.23139   0.00000  Uiso   1.00
H285   H     0.29695   0.53061   0.26025   0.00000  Uiso   1.00
H286   H     0.27555   0.96579   0.32826   0.00000  Uiso   1.00
H287   H     0.23851   0.99350   0.39086   0.00000  Uiso   1.00
H288   H     0.17517   0.99767   0.35440   0.00000  Uiso   1.00
H289   H     0.10190   0.53033   0.28842   0.00000  Uiso   1.00
H290   H     0.22429   0.54020   0.35126   0.00000  Uiso   1.00
H291   H     0.10353   0.96993   0.19143   0.00000  Uiso   1.00
H292   H     0.10417   0.61191   0.29009   0.00000  Uiso   1.00
H293   H     0.10489   0.88825   0.19163   0.00000  Uiso   1.00
H294   H     0.09018   0.78133   0.02439   0.00000  Uiso   1.00
H295   H     0.24905   0.76747   0.47681   0.00000  Uiso   1.00
H296   H     0.09172   0.78069   0.11157   0.00000  Uiso   1.00
N297   N     0.16667   0.74999   0.12624   0.00000  Uiso   1.00
N298   N     0.16667   0.75001   0.37377   0.00000  Uiso   1.00
N299   N     0.24102   0.61630   0.20126   0.00000  Uiso   1.00
N300   N     0.24025   0.88307   0.31826   0.00000  Uiso   1.00
N301   N     0.23827   0.52105   0.19944   0.00000  Uiso   1.00
N302   N     0.23892   0.97959   0.31792   0.00000  Uiso   1.00
O303   O     0.16667   0.68453   0.28974   0.00000  Uiso   1.00
O304   O     0.16666   0.81546   0.21026   0.00000  Uiso   1.00
O305   O     0.16667   0.68453   0.21026   0.00000  Uiso   1.00
O306   O     0.16666   0.81547   0.28974   0.00000  Uiso   1.00
O307   O     0.09058   0.75000   0.28045   0.00000  Uiso   1.00
O308   O     0.24275   0.75000   0.21955   0.00000  Uiso   1.00
O309   O     0.09058   0.74999   0.20097   0.00000  Uiso   1.00
O310   O     0.24275   0.75000   0.29903   0.00000  Uiso   1.00
Zn311  Zn    0.16667   0.75000   0.30307   0.00000  Uiso   1.00
Zn312  Zn    0.16667   0.74999   0.19693   0.00000  Uiso   1.00
C313   C     0.50066   0.66395   0.24986   0.00000  Uiso   1.00
C314   C     0.45419   0.74075   0.44134   0.00000  Uiso   1.00
C315   C     0.50015   0.75020   0.02669   0.00000  Uiso   1.00
C316   C     0.50014   0.75019   0.47344   0.00000  Uiso   1.00
C317   C     0.40034   0.75018   0.23754   0.00000  Uiso   1.00
C318   C     0.59965   0.75047   0.26246   0.00000  Uiso   1.00
C319   C     0.34532   0.75061   0.23081   0.00000  Uiso   1.00
C320   C     0.65466   0.75093   0.26920   0.00000  Uiso   1.00
C321   C     0.46371   0.54766   0.27072   0.00000  Uiso   1.00
C322   C     0.46440   0.95251   0.21775   0.00000  Uiso   1.00
C323   C     0.46541   0.59366   0.27209   0.00000  Uiso   1.00
C324   C     0.50060   0.83607   0.25037   0.00000  Uiso   1.00
C325   C     0.46546   0.90647   0.21769   0.00000  Uiso   1.00
C326   C     0.50212   0.61603   0.24948   0.00000  Uiso   1.00
C327   C     0.50107   0.88403   0.25136   0.00000  Uiso   1.00
C328   C     0.53819   0.59267   0.22540   0.00000  Uiso   1.00
C329   C     0.53644   0.90728   0.28566   0.00000  Uiso   1.00
C330   C     0.53668   0.54585   0.22442   0.00000  Uiso   1.00
C331   C     0.53583   0.95422   0.28537   0.00000  Uiso   1.00
C332   C     0.49954   0.52400   0.24775   0.00000  Uiso   1.00
C333   C     0.49956   0.97606   0.25093   0.00000  Uiso   1.00
C334   C     0.61982   0.63421   0.23171   0.00000  Uiso   1.00
C335   C     0.45723   0.76725   0.04685   0.00000  Uiso   1.00
C336   C     0.56066   0.87929   0.36602   0.00000  Uiso   1.00
C337   C     0.62386   0.51314   0.22508   0.00000  Uiso   1.00
C338   C     0.55122   0.50385   0.35538   0.00000  Uiso   1.00
C339   C     0.54605   0.75950   0.45385   0.00000  Uiso   1.00
C340   C     0.45808   0.76705   0.09663   0.00000  Uiso   1.00
C341   C     0.54507   0.75944   0.40405   0.00000  Uiso   1.00
C342   C     0.54196   0.73296   0.10771   0.00000  Uiso   1.00
C343   C     0.45504   0.74057   0.39181   0.00000  Uiso   1.00
C344   C     0.54297   0.73301   0.05819   0.00000  Uiso   1.00
H345   H     0.65804   0.75034   0.19437   0.00000  Uiso   1.00
H346   H     0.58061   0.76705   0.38971   0.00000  Uiso   1.00
H347   H     0.57489   0.71913   0.13133   0.00000  Uiso   1.00
H348   H     0.41950   0.73263   0.36789   0.00000  Uiso   1.00
H349   H     0.57671   0.71895   0.04464   0.00000  Uiso   1.00
H350   H     0.41793   0.73278   0.45439   0.00000  Uiso   1.00
H351   H     0.58406   0.60036   0.17136   0.00000  Uiso   1.00
H352   H     0.64640   0.60681   0.24647   0.00000  Uiso   1.00
H353   H     0.60797   0.65403   0.26164   0.00000  Uiso   1.00
H354   H     0.64174   0.65640   0.21051   0.00000  Uiso   1.00
H355   H     0.61219   0.89168   0.31763   0.00000  Uiso   1.00
H356   H     0.34190   0.75125   0.30562   0.00000  Uiso   1.00
H357   H     0.56436   0.91215   0.38460   0.00000  Uiso   1.00
H358   H     0.58816   0.85540   0.38664   0.00000  Uiso   1.00
H359   H     0.51998   0.86668   0.36505   0.00000  Uiso   1.00
H360   H     0.55543   0.99357   0.18054   0.00000  Uiso   1.00
H361   H     0.65339   0.52516   0.20339   0.00000  Uiso   1.00
H362   H     0.63011   0.97674   0.23139   0.00000  Uiso   1.00
H363   H     0.63028   0.53061   0.26025   0.00000  Uiso   1.00
H364   H     0.60888   0.96579   0.32826   0.00000  Uiso   1.00
H365   H     0.57185   0.99350   0.39086   0.00000  Uiso   1.00
H366   H     0.50850   0.99767   0.35440   0.00000  Uiso   1.00
H367   H     0.43523   0.53033   0.28842   0.00000  Uiso   1.00
H368   H     0.55763   0.54020   0.35126   0.00000  Uiso   1.00
H369   H     0.43686   0.96993   0.19143   0.00000  Uiso   1.00
H370   H     0.43750   0.61191   0.29009   0.00000  Uiso   1.00
H371   H     0.43823   0.88825   0.19163   0.00000  Uiso   1.00
H372   H     0.42351   0.78133   0.02439   0.00000  Uiso   1.00
H373   H     0.58239   0.76747   0.47681   0.00000  Uiso   1.00
H374   H     0.42505   0.78069   0.11157   0.00000  Uiso   1.00
N375   N     0.50000   0.74999   0.12624   0.00000  Uiso   1.00
N376   N     0.50000   0.75001   0.37377   0.00000  Uiso   1.00
N377   N     0.57436   0.61630   0.20126   0.00000  Uiso   1.00
N378   N     0.57358   0.88307   0.31826   0.00000  Uiso   1.00
N379   N     0.57160   0.52105   0.19944   0.00000  Uiso   1.00
N380   N     0.57226   0.97959   0.31792   0.00000  Uiso   1.00
O381   O     0.50000   0.68453   0.28974   0.00000  Uiso   1.00
O382   O     0.50000   0.81546   0.21026   0.00000  Uiso   1.00
O383   O     0.50000   0.68453   0.21026   0.00000  Uiso   1.00
O384   O     0.50000   0.81547   0.28974   0.00000  Uiso   1.00
O385   O     0.42392   0.75000   0.28045   0.00000  Uiso   1.00
O386   O     0.57608   0.75000   0.21955   0.00000  Uiso   1.00
O387   O     0.42392   0.74999   0.20097   0.00000  Uiso   1.00
O388   O     0.57608   0.75000   0.29903   0.00000  Uiso   1.00
Zn389  Zn    0.50000   0.75000   0.30307   0.00000  Uiso   1.00
Zn390  Zn    0.50000   0.74999   0.19693   0.00000  Uiso   1.00
C391   C     0.83399   0.66395   0.24986   0.00000  Uiso   1.00
C392   C     0.78753   0.74075   0.44134   0.00000  Uiso   1.00
C393   C     0.83348   0.75020   0.02669   0.00000  Uiso   1.00
C394   C     0.83348   0.75019   0.47344   0.00000  Uiso   1.00
C395   C     0.73367   0.75018   0.23754   0.00000  Uiso   1.00
C396   C     0.93298   0.75047   0.26246   0.00000  Uiso   1.00
C397   C     0.67865   0.75061   0.23081   0.00000  Uiso   1.00
C398   C     0.98799   0.75093   0.26920   0.00000  Uiso   1.00
C399   C     0.79704   0.54766   0.27072   0.00000  Uiso   1.00
C400   C     0.79774   0.95251   0.21775   0.00000  Uiso   1.00
C401   C     0.79874   0.59366   0.27209   0.00000  Uiso   1.00
C402   C     0.83394   0.83607   0.25037   0.00000  Uiso   1.00
C403   C     0.79879   0.90647   0.21769   0.00000  Uiso   1.00
C404   C     0.83545   0.61603   0.24948   0.00000  Uiso   1.00
C405   C     0.83440   0.88403   0.25136   0.00000  Uiso   1.00
C406   C     0.87153   0.59267   0.22540   0.00000  Uiso   1.00
C407   C     0.86977   0.90728   0.28566   0.00000  Uiso   1.00
C408   C     0.87001   0.54585   0.22442   0.00000  Uiso   1.00
C409   C     0.86916   0.95422   0.28537   0.00000  Uiso   1.00
C410   C     0.83287   0.52400   0.24775   0.00000  Uiso   1.00
C411   C     0.83289   0.97606   0.25093   0.00000  Uiso   1.00
C412   C     0.95315   0.63421   0.23171   0.00000  Uiso   1.00
C413   C     0.79057   0.76725   0.04685   0.00000  Uiso   1.00
C414   C     0.89399   0.87929   0.36602   0.00000  Uiso   1.00
C415   C     0.95720   0.51314   0.22508   0.00000  Uiso   1.00
C416   C     0.88456   0.50385   0.35538   0.00000  Uiso   1.00
C417   C     0.87939   0.75950   0.45385   0.00000  Uiso   1.00
C418   C     0.79141   0.76705   0.09663   0.00000  Uiso   1.00
C419   C     0.87841   0.75944   0.40405   0.00000  Uiso   1.00
C420   C     0.87530   0.73296   0.10771   0.00000  Uiso   1.00
C421   C     0.78838   0.74057   0.39181   0.00000  Uiso   1.00
C422   C     0.87630   0.73301   0.05819   0.00000  Uiso   1.00
H423   H     0.99137   0.75034   0.19437   0.00000  Uiso   1.00
H424   H     0.91394   0.76705   0.38971   0.00000  Uiso   1.00
H425   H     0.90823   0.71913   0.13133   0.00000  Uiso   1.00
H426   H     0.75283   0.73263   0.36789   0.00000  Uiso   1.00
H427   H     0.91005   0.71895   0.04464   0.00000  Uiso   1.00
H428   H     0.75126   0.73278   0.45439   0.00000  Uiso   1.00
H429   H     0.91739   0.60036   0.17136   0.00000  Uiso   1.00
H430   H     0.97973   0.60681   0.24647   0.00000  Uiso   1.00
H431   H     0.94130   0.65403   0.26164   0.00000  Uiso   1.00
H432   H     0.97507   0.65640   0.21051   0.00000  Uiso   1.00
H433   H     0.94553   0.89168   0.31763   0.00000  Uiso   1.00
H434   H     0.67523   0.75125   0.30562   0.00000  Uiso   1.00
H435   H     0.89769   0.91215   0.38460   0.00000  Uiso   1.00
H436   H     0.92149   0.85540   0.38664   0.00000  Uiso   1.00
H437   H     0.85332   0.86668   0.36505   0.00000  Uiso   1.00
H438   H     0.88876   0.99357   0.18054   0.00000  Uiso   1.00
H439   H     0.98673   0.52516   0.20339   0.00000  Uiso   1.00
H440   H     0.96344   0.97674   0.23139   0.00000  Uiso   1.00
H441   H     0.96361   0.53061   0.26025   0.00000  Uiso   1.00
H442   H     0.94221   0.96579   0.32826   0.00000  Uiso   1.00
H443   H     0.90518   0.99350   0.39086   0.00000  Uiso   1.00
H444   H     0.84183   0.99767   0.35440   0.00000  Uiso   1.00
H445   H     0.76857   0.53033   0.28842   0.00000  Uiso   1.00
H446   H     0.89096   0.54020   0.35126   0.00000  Uiso   1.00
H447   H     0.77020   0.96993   0.19143   0.00000  Uiso   1.00
H448   H     0.77083   0.61191   0.29009   0.00000  Uiso   1.00
H449   H     0.77156   0.88825   0.19163   0.00000  Uiso   1.00
H450   H     0.75684   0.78133   0.02439   0.00000  Uiso   1.00
H451   H     0.91572   0.76747   0.47681   0.00000  Uiso   1.00
H452   H     0.75839   0.78069   0.11157   0.00000  Uiso   1.00
N453   N     0.83333   0.74999   0.12624   0.00000  Uiso   1.00
N454   N     0.83333   0.75001   0.37377   0.00000  Uiso   1.00
N455   N     0.90769   0.61630   0.20126   0.00000  Uiso   1.00
N456   N     0.90691   0.88307   0.31826   0.00000  Uiso   1.00
N457   N     0.90494   0.52105   0.19944   0.00000  Uiso   1.00
N458   N     0.90559   0.97959   0.31792   0.00000  Uiso   1.00
O459   O     0.83334   0.68453   0.28974   0.00000  Uiso   1.00
O460   O     0.83333   0.81546   0.21026   0.00000  Uiso   1.00
O461   O     0.83334   0.68453   0.21026   0.00000  Uiso   1.00
O462   O     0.83333   0.81547   0.28974   0.00000  Uiso   1.00
O463   O     0.75725   0.75000   0.28045   0.00000  Uiso   1.00
O464   O     0.90942   0.75000   0.21955   0.00000  Uiso   1.00
O465   O     0.75725   0.74999   0.20097   0.00000  Uiso   1.00
O466   O     0.90942   0.75000   0.29903   0.00000  Uiso   1.00
Zn467  Zn    0.83333   0.75000   0.30307   0.00000  Uiso   1.00
Zn468  Zn    0.83333   0.74999   0.19693   0.00000  Uiso   1.00
C469   C     0.16732   0.16395   0.74986   0.00000  Uiso   1.00
C470   C     0.12086   0.24075   0.94134   0.00000  Uiso   1.00
C471   C     0.16682   0.25020   0.52669   0.00000  Uiso   1.00
C472   C     0.16681   0.25019   0.97344   0.00000  Uiso   1.00
C473   C     0.06700   0.25018   0.73754   0.00000  Uiso   1.00
C474   C     0.26632   0.25047   0.76246   0.00000  Uiso   1.00
C475   C     0.01198   0.25061   0.73081   0.00000  Uiso   1.00
C476   C     0.32132   0.25093   0.76920   0.00000  Uiso   1.00
C477   C     0.13037   0.04766   0.77072   0.00000  Uiso   1.00
C478   C     0.13107   0.45251   0.71775   0.00000  Uiso   1.00
C479   C     0.13208   0.09366   0.77209   0.00000  Uiso   1.00
C480   C     0.16727   0.33607   0.75037   0.00000  Uiso   1.00
C481   C     0.13212   0.40647   0.71769   0.00000  Uiso   1.00
C482   C     0.16878   0.11603   0.74948   0.00000  Uiso   1.00
C483   C     0.16774   0.38403   0.75136   0.00000  Uiso   1.00
C484   C     0.20486   0.09267   0.72540   0.00000  Uiso   1.00
C485   C     0.20311   0.40728   0.78566   0.00000  Uiso   1.00
C486   C     0.20334   0.04585   0.72442   0.00000  Uiso   1.00
C487   C     0.20250   0.45422   0.78537   0.00000  Uiso   1.00
C488   C     0.16620   0.02400   0.74775   0.00000  Uiso   1.00
C489   C     0.16623   0.47606   0.75093   0.00000  Uiso   1.00
C490   C     0.28648   0.13421   0.73171   0.00000  Uiso   1.00
C491   C     0.12390   0.26725   0.54685   0.00000  Uiso   1.00
C492   C     0.22732   0.37929   0.86602   0.00000  Uiso   1.00
C493   C     0.29053   0.01314   0.72508   0.00000  Uiso   1.00
C494   C     0.21789   0.00385   0.85538   0.00000  Uiso   1.00
C495   C     0.21272   0.25950   0.95385   0.00000  Uiso   1.00
C496   C     0.12474   0.26705   0.59663   0.00000  Uiso   1.00
C497   C     0.21174   0.25944   0.90405   0.00000  Uiso   1.00
C498   C     0.20863   0.23296   0.60771   0.00000  Uiso   1.00
C499   C     0.12171   0.24057   0.89181   0.00000  Uiso   1.00
C500   C     0.20964   0.23301   0.55819   0.00000  Uiso   1.00
H501   H     0.32470   0.25034   0.69437   0.00000  Uiso   1.00
H502   H     0.24727   0.26705   0.88971   0.00000  Uiso   1.00
H503   H     0.24156   0.21913   0.63133   0.00000  Uiso   1.00
H504   H     0.08616   0.23263   0.86789   0.00000  Uiso   1.00
H505   H     0.24338   0.21895   0.54464   0.00000  Uiso   1.00
H506   H     0.08459   0.23278   0.95439   0.00000  Uiso   1.00
H507   H     0.25073   0.10036   0.67136   0.00000  Uiso   1.00
H508   H     0.31306   0.10681   0.74647   0.00000  Uiso   1.00
H509   H     0.27463   0.15403   0.76164   0.00000  Uiso   1.00
H510   H     0.30840   0.15640   0.71051   0.00000  Uiso   1.00
H511   H     0.27886   0.39168   0.81763   0.00000  Uiso   1.00
H512   H     0.00856   0.25125   0.80562   0.00000  Uiso   1.00
H513   H     0.23102   0.41215   0.88460   0.00000  Uiso   1.00
H514   H     0.25483   0.35540   0.88664   0.00000  Uiso   1.00
H515   H     0.18665   0.36668   0.86505   0.00000  Uiso   1.00
H516   H     0.22210   0.49357   0.68054   0.00000  Uiso   1.00
H517   H     0.32006   0.02516   0.70339   0.00000  Uiso   1.00
H518   H     0.29677   0.47674   0.73139   0.00000  Uiso   1.00
H519   H     0.29695   0.03061   0.76025   0.00000  Uiso   1.00
H520   H     0.27555   0.46579   0.82826   0.00000  Uiso   1.00
H521   H     0.23851   0.49350   0.89086   0.00000  Uiso   1.00
H522   H     0.17517   0.49767   0.85440   0.00000  Uiso   1.00
H523   H     0.10190   0.03033   0.78842   0.00000  Uiso   1.00
H524   H     0.22429   0.04020   0.85126   0.00000  Uiso   1.00
H525   H     0.10353   0.46993   0.69143   0.00000  Uiso   1.00
H526   H     0.10417   0.11191   0.79009   0.00000  Uiso   1.00
H527   H     0.10489   0.38825   0.69163   0.00000  Uiso   1.00
H528   H     0.09018   0.28133   0.52439   0.00000  Uiso   1.00
H529   H     0.24905   0.26747   0.97681   0.00000  Uiso   1.00
H530   H     0.09172   0.28069   0.61157   0.00000  Uiso   1.00
N531   N     0.16667   0.24999   0.62624   0.00000  Uiso   1.00
N532   N     0.16667   0.25001   0.87377   0.00000  Uiso   1.00
N533   N     0.24102   0.11630   0.70126   0.00000  Uiso   1.00
N534   N     0.24025   0.38307   0.81826   0.00000  Uiso   1.00
N535   N     0.23827   0.02105   0.69944   0.00000  Uiso   1.00
N536   N     0.23892   0.47959   0.81792   0.00000  Uiso   1.00
O537   O     0.16667   0.18453   0.78974   0.00000  Uiso   1.00
O538   O     0.16666   0.31546   0.71026   0.00000  Uiso   1.00
O539   O     0.16667   0.18453   0.71026   0.00000  Uiso   1.00
O540   O     0.16666   0.31547   0.78974   0.00000  Uiso   1.00
O541   O     0.09058   0.25000   0.78045   0.00000  Uiso   1.00
O542   O     0.24275   0.25000   0.71955   0.00000  Uiso   1.00
O543   O     0.09058   0.24999   0.70097   0.00000  Uiso   1.00
O544   O     0.24275   0.25000   0.79903   0.00000  Uiso   1.00
Zn545  Zn    0.16667   0.25000   0.80307   0.00000  Uiso   1.00
Zn546  Zn    0.16667   0.24999   0.69693   0.00000  Uiso   1.00
C547   C     0.50066   0.16395   0.74986   0.00000  Uiso   1.00
C548   C     0.45419   0.24075   0.94134   0.00000  Uiso   1.00
C549   C     0.50015   0.25020   0.52669   0.00000  Uiso   1.00
C550   C     0.50014   0.25019   0.97344   0.00000  Uiso   1.00
C551   C     0.40034   0.25018   0.73754   0.00000  Uiso   1.00
C552   C     0.59965   0.25047   0.76246   0.00000  Uiso   1.00
C553   C     0.34532   0.25061   0.73081   0.00000  Uiso   1.00
C554   C     0.65466   0.25093   0.76920   0.00000  Uiso   1.00
C555   C     0.46371   0.04766   0.77072   0.00000  Uiso   1.00
C556   C     0.46440   0.45251   0.71775   0.00000  Uiso   1.00
C557   C     0.46541   0.09366   0.77209   0.00000  Uiso   1.00
C558   C     0.50060   0.33607   0.75037   0.00000  Uiso   1.00
C559   C     0.46546   0.40647   0.71769   0.00000  Uiso   1.00
C560   C     0.50212   0.11603   0.74948   0.00000  Uiso   1.00
C561   C     0.50107   0.38403   0.75136   0.00000  Uiso   1.00
C562   C     0.53819   0.09267   0.72540   0.00000  Uiso   1.00
C563   C     0.53644   0.40728   0.78566   0.00000  Uiso   1.00
C564   C     0.53668   0.04585   0.72442   0.00000  Uiso   1.00
C565   C     0.53583   0.45422   0.78537   0.00000  Uiso   1.00
C566   C     0.49954   0.02400   0.74775   0.00000  Uiso   1.00
C567   C     0.49956   0.47606   0.75093   0.00000  Uiso   1.00
C568   C     0.61982   0.13421   0.73171   0.00000  Uiso   1.00
C569   C     0.45723   0.26725   0.54685   0.00000  Uiso   1.00
C570   C     0.56066   0.37929   0.86602   0.00000  Uiso   1.00
C571   C     0.62386   0.01314   0.72508   0.00000  Uiso   1.00
C572   C     0.55122   0.00385   0.85538   0.00000  Uiso   1.00
C573   C     0.54605   0.25950   0.95385   0.00000  Uiso   1.00
C574   C     0.45808   0.26705   0.59663   0.00000  Uiso   1.00
C575   C     0.54507   0.25944   0.90405   0.00000  Uiso   1.00
C576   C     0.54196   0.23296   0.60771   0.00000  Uiso   1.00
C577   C     0.45504   0.24057   0.89181   0.00000  Uiso   1.00
C578   C     0.54297   0.23301   0.55819   0.00000  Uiso   1.00
H579   H     0.65804   0.25034   0.69437   0.00000  Uiso   1.00
H580   H     0.58061   0.26705   0.88971   0.00000  Uiso   1.00
H581   H     0.57489   0.21913   0.63133   0.00000  Uiso   1.00
H582   H     0.41950   0.23263   0.86789   0.00000  Uiso   1.00
H583   H     0.57671   0.21895   0.54464   0.00000  Uiso   1.00
H584   H     0.41793   0.23278   0.95439   0.00000  Uiso   1.00
H585   H     0.58406   0.10036   0.67136   0.00000  Uiso   1.00
H586   H     0.64640   0.10681   0.74647   0.00000  Uiso   1.00
H587   H     0.60797   0.15403   0.76164   0.00000  Uiso   1.00
H588   H     0.64174   0.15640   0.71051   0.00000  Uiso   1.00
H589   H     0.61219   0.39168   0.81763   0.00000  Uiso   1.00
H590   H     0.34190   0.25125   0.80562   0.00000  Uiso   1.00
H591   H     0.56436   0.41215   0.88460   0.00000  Uiso   1.00
H592   H     0.58816   0.35540   0.88664   0.00000  Uiso   1.00
H593   H     0.51998   0.36668   0.86505   0.00000  Uiso   1.00
H594   H     0.55543   0.49357   0.68054   0.00000  Uiso   1.00
H595   H     0.65339   0.02516   0.70339   0.00000  Uiso   1.00
H596   H     0.63011   0.47674   0.73139   0.00000  Uiso   1.00
H597   H     0.63028   0.03061   0.76025   0.00000  Uiso   1.00
H598   H     0.60888   0.46579   0.82826   0.00000  Uiso   1.00
H599   H     0.57185   0.49350   0.89086   0.00000  Uiso   1.00
H600   H     0.50850   0.49767   0.85440   0.00000  Uiso   1.00
H601   H     0.43523   0.03033   0.78842   0.00000  Uiso   1.00
H602   H     0.55763   0.04020   0.85126   0.00000  Uiso   1.00
H603   H     0.43686   0.46993   0.69143   0.00000  Uiso   1.00
H604   H     0.43750   0.11191   0.79009   0.00000  Uiso   1.00
H605   H     0.43823   0.38825   0.69163   0.00000  Uiso   1.00
H606   H     0.42351   0.28133   0.52439   0.00000  Uiso   1.00
H607   H     0.58239   0.26747   0.97681   0.00000  Uiso   1.00
H608   H     0.42505   0.28069   0.61157   0.00000  Uiso   1.00
N609   N     0.50000   0.24999   0.62624   0.00000  Uiso   1.00
N610   N     0.50000   0.25001   0.87377   0.00000  Uiso   1.00
N611   N     0.57436   0.11630   0.70126   0.00000  Uiso   1.00
N612   N     0.57358   0.38307   0.81826   0.00000  Uiso   1.00
N613   N     0.57160   0.02105   0.69944   0.00000  Uiso   1.00
N614   N     0.57226   0.47959   0.81792   0.00000  Uiso   1.00
O615   O     0.50000   0.18453   0.78974   0.00000  Uiso   1.00
O616   O     0.50000   0.31546   0.71026   0.00000  Uiso   1.00
O617   O     0.50000   0.18453   0.71026   0.00000  Uiso   1.00
O618   O     0.50000   0.31547   0.78974   0.00000  Uiso   1.00
O619   O     0.42392   0.25000   0.78045   0.00000  Uiso   1.00
O620   O     0.57608   0.25000   0.71955   0.00000  Uiso   1.00
O621   O     0.42392   0.24999   0.70097   0.00000  Uiso   1.00
O622   O     0.57608   0.25000   0.79903   0.00000  Uiso   1.00
Zn623  Zn    0.50000   0.25000   0.80307   0.00000  Uiso   1.00
Zn624  Zn    0.50000   0.24999   0.69693   0.00000  Uiso   1.00
C625   C     0.83399   0.16395   0.74986   0.00000  Uiso   1.00
C626   C     0.78753   0.24075   0.94134   0.00000  Uiso   1.00
C627   C     0.83348   0.25020   0.52669   0.00000  Uiso   1.00
C628   C     0.83348   0.25019   0.97344   0.00000  Uiso   1.00
C629   C     0.73367   0.25018   0.73754   0.00000  Uiso   1.00
C630   C     0.93298   0.25047   0.76246   0.00000  Uiso   1.00
C631   C     0.67865   0.25061   0.73081   0.00000  Uiso   1.00
C632   C     0.98799   0.25093   0.76920   0.00000  Uiso   1.00
C633   C     0.79704   0.04766   0.77072   0.00000  Uiso   1.00
C634   C     0.79774   0.45251   0.71775   0.00000  Uiso   1.00
C635   C     0.79874   0.09366   0.77209   0.00000  Uiso   1.00
C636   C     0.83394   0.33607   0.75037   0.00000  Uiso   1.00
C637   C     0.79879   0.40647   0.71769   0.00000  Uiso   1.00
C638   C     0.83545   0.11603   0.74948   0.00000  Uiso   1.00
C639   C     0.83440   0.38403   0.75136   0.00000  Uiso   1.00
C640   C     0.87153   0.09267   0.72540   0.00000  Uiso   1.00
C641   C     0.86977   0.40728   0.78566   0.00000  Uiso   1.00
C642   C     0.87001   0.04585   0.72442   0.00000  Uiso   1.00
C643   C     0.86916   0.45422   0.78537   0.00000  Uiso   1.00
C644   C     0.83287   0.02400   0.74775   0.00000  Uiso   1.00
C645   C     0.83289   0.47606   0.75093   0.00000  Uiso   1.00
C646   C     0.95315   0.13421   0.73171   0.00000  Uiso   1.00
C647   C     0.79057   0.26725   0.54685   0.00000  Uiso   1.00
C648   C     0.89399   0.37929   0.86602   0.00000  Uiso   1.00
C649   C     0.95720   0.01314   0.72508   0.00000  Uiso   1.00
C650   C     0.88456   0.00385   0.85538   0.00000  Uiso   1.00
C651   C     0.87939   0.25950   0.95385   0.00000  Uiso   1.00
C652   C     0.79141   0.26705   0.59663   0.00000  Uiso   1.00
C653   C     0.87841   0.25944   0.90405   0.00000  Uiso   1.00
C654   C     0.87530   0.23296   0.60771   0.00000  Uiso   1.00
C655   C     0.78838   0.24057   0.89181   0.00000  Uiso   1.00
C656   C     0.87630   0.23301   0.55819   0.00000  Uiso   1.00
H657   H     0.99137   0.25034   0.69437   0.00000  Uiso   1.00
H658   H     0.91394   0.26705   0.88971   0.00000  Uiso   1.00
H659   H     0.90823   0.21913   0.63133   0.00000  Uiso   1.00
H660   H     0.75283   0.23263   0.86789   0.00000  Uiso   1.00
H661   H     0.91005   0.21895   0.54464   0.00000  Uiso   1.00
H662   H     0.75126   0.23278   0.95439   0.00000  Uiso   1.00
H663   H     0.91739   0.10036   0.67136   0.00000  Uiso   1.00
H664   H     0.97973   0.10681   0.74647   0.00000  Uiso   1.00
H665   H     0.94130   0.15403   0.76164   0.00000  Uiso   1.00
H666   H     0.97507   0.15640   0.71051   0.00000  Uiso   1.00
H667   H     0.94553   0.39168   0.81763   0.00000  Uiso   1.00
H668   H     0.67523   0.25125   0.80562   0.00000  Uiso   1.00
H669   H     0.89769   0.41215   0.88460   0.00000  Uiso   1.00
H670   H     0.92149   0.35540   0.88664   0.00000  Uiso   1.00
H671   H     0.85332   0.36668   0.86505   0.00000  Uiso   1.00
H672   H     0.88876   0.49357   0.68054   0.00000  Uiso   1.00
H673   H     0.98673   0.02516   0.70339   0.00000  Uiso   1.00
H674   H     0.96344   0.47674   0.73139   0.00000  Uiso   1.00
H675   H     0.96361   0.03061   0.76025   0.00000  Uiso   1.00
H676   H     0.94221   0.46579   0.82826   0.00000  Uiso   1.00
H677   H     0.90518   0.49350   0.89086   0.00000  Uiso   1.00
H678   H     0.84183   0.49767   0.85440   0.00000  Uiso   1.00
H679   H     0.76857   0.03033   0.78842   0.00000  Uiso   1.00
H680   H     0.89096   0.04020   0.85126   0.00000  Uiso   1.00
H681   H     0.77020   0.46993   0.69143   0.00000  Uiso   1.00
H682   H     0.77083   0.11191   0.79009   0.00000  Uiso   1.00
H683   H     0.77156   0.38825   0.69163   0.00000  Uiso   1.00
H684   H     0.75684   0.28133   0.52439   0.00000  Uiso   1.00
H685   H     0.91572   0.26747   0.97681   0.00000  Uiso   1.00
H686   H     0.75839   0.28069   0.61157   0.00000  Uiso   1.00
N687   N     0.83333   0.24999   0.62624   0.00000  Uiso   1.00
N688   N     0.83333   0.25001   0.87377   0.00000  Uiso   1.00
N689   N     0.90769   0.11630   0.70126   0.00000  Uiso   1.00
N690   N     0.90691   0.38307   0.81826   0.00000  Uiso   1.00
N691   N     0.90494   0.02105   0.69944   0.00000  Uiso   1.00
N692   N     0.90559   0.47959   0.81792   0.00000  Uiso   1.00
O693   O     0.83334   0.18453   0.78974   0.00000  Uiso   1.00
O694   O     0.83333   0.31546   0.71026   0.00000  Uiso   1.00
O695   O     0.83334   0.18453   0.71026   0.00000  Uiso   1.00
O696   O     0.83333   0.31547   0.78974   0.00000  Uiso   1.00
O697   O     0.75725   0.25000   0.78045   0.00000  Uiso   1.00
O698   O     0.90942   0.25000   0.71955   0.00000  Uiso   1.00
O699   O     0.75725   0.24999   0.70097   0.00000  Uiso   1.00
O700   O     0.90942   0.25000   0.79903   0.00000  Uiso   1.00
Zn701  Zn    0.83333   0.25000   0.80307   0.00000  Uiso   1.00
Zn702  Zn    0.83333   0.24999   0.69693   0.00000  Uiso   1.00
C703   C     0.16732   0.66395   0.74986   0.00000  Uiso   1.00
C704   C     0.12086   0.74075   0.94134   0.00000  Uiso   1.00
C705   C     0.16682   0.75020   0.52669   0.00000  Uiso   1.00
C706   C     0.16681   0.75019   0.97344   0.00000  Uiso   1.00
C707   C     0.06700   0.75018   0.73754   0.00000  Uiso   1.00
C708   C     0.26632   0.75047   0.76246   0.00000  Uiso   1.00
C709   C     0.01198   0.75061   0.73081   0.00000  Uiso   1.00
C710   C     0.32132   0.75093   0.76920   0.00000  Uiso   1.00
C711   C     0.13037   0.54766   0.77072   0.00000  Uiso   1.00
C712   C     0.13107   0.95251   0.71775   0.00000  Uiso   1.00
C713   C     0.13208   0.59366   0.77209   0.00000  Uiso   1.00
C714   C     0.16727   0.83607   0.75037   0.00000  Uiso   1.00
C715   C     0.13212   0.90647   0.71769   0.00000  Uiso   1.00
C716   C     0.16878   0.61603   0.74948   0.00000  Uiso   1.00
C717   C     0.16774   0.88403   0.75136   0.00000  Uiso   1.00
C718   C     0.20486   0.59267   0.72540   0.00000  Uiso   1.00
C719   C     0.20311   0.90728   0.78566   0.00000  Uiso   1.00
C720   C     0.20334   0.54585   0.72442   0.00000  Uiso   1.00
C721   C     0.20250   0.95422   0.78537   0.00000  Uiso   1.00
C722   C     0.16620   0.52400   0.74775   0.00000  Uiso   1.00
C723   C     0.16623   0.97606   0.75093   0.00000  Uiso   1.00
C724   C     0.28648   0.63421   0.73171   0.00000  Uiso   1.00
C725   C     0.12390   0.76725   0.54685   0.00000  Uiso   1.00
C726   C     0.22732   0.87929   0.86602   0.00000  Uiso   1.00
C727   C     0.29053   0.51314   0.72508   0.00000  Uiso   1.00
C728   C     0.21789   0.50385   0.85538   0.00000  Uiso   1.00
C729   C     0.21272   0.75950   0.95385   0.00000  Uiso   1.00
C730   C     0.12474   0.76705   0.59663   0.00000  Uiso   1.00
C731   C     0.21174   0.75944   0.90405   0.00000  Uiso   1.00
C732   C     0.20863   0.73296   0.60771   0.00000  Uiso   1.00
C733   C     0.12171   0.74057   0.89181   0.00000  Uiso   1.00
C734   C     0.20964   0.73301   0.55819   0.00000  Uiso   1.00
H735   H     0.32470   0.75034   0.69437   0.00000  Uiso   1.00
H736   H     0.24727   0.76705   0.88971   0.00000  Uiso   1.00
H737   H     0.24156   0.71913   0.63133   0.00000  Uiso   1.00
H738   H     0.08616   0.73263   0.86789   0.00000  Uiso   1.00
H739   H     0.24338   0.71895   0.54464   0.00000  Uiso   1.00
H740   H     0.08459   0.73278   0.95439   0.00000  Uiso   1.00
H741   H     0.25073   0.60036   0.67136   0.00000  Uiso   1.00
H742   H     0.31306   0.60681   0.74647   0.00000  Uiso   1.00
H743   H     0.27463   0.65403   0.76164   0.00000  Uiso   1.00
H744   H     0.30840   0.65640   0.71051   0.00000  Uiso   1.00
H745   H     0.27886   0.89168   0.81763   0.00000  Uiso   1.00
H746   H     0.00856   0.75125   0.80562   0.00000  Uiso   1.00
H747   H     0.23102   0.91215   0.88460   0.00000  Uiso   1.00
H748   H     0.25483   0.85540   0.88664   0.00000  Uiso   1.00
H749   H     0.18665   0.86668   0.86505   0.00000  Uiso   1.00
H750   H     0.22210   0.99357   0.68054   0.00000  Uiso   1.00
H751   H     0.32006   0.52516   0.70339   0.00000  Uiso   1.00
H752   H     0.29677   0.97674   0.73139   0.00000  Uiso   1.00
H753   H     0.29695   0.53061   0.76025   0.00000  Uiso   1.00
H754   H     0.27555   0.96579   0.82826   0.00000  Uiso   1.00
H755   H     0.23851   0.99350   0.89086   0.00000  Uiso   1.00
H756   H     0.17517   0.99767   0.85440   0.00000  Uiso   1.00
H757   H     0.10190   0.53033   0.78842   0.00000  Uiso   1.00
H758   H     0.22429   0.54020   0.85126   0.00000  Uiso   1.00
H759   H     0.10353   0.96993   0.69143   0.00000  Uiso   1.00
H760   H     0.10417   0.61191   0.79009   0.00000  Uiso   1.00
H761   H     0.10489   0.88825   0.69163   0.00000  Uiso   1.00
H762   H     0.09018   0.78133   0.52439   0.00000  Uiso   1.00
H763   H     0.24905   0.76747   0.97681   0.00000  Uiso   1.00
H764   H     0.09172   0.78069   0.61157   0.00000  Uiso   1.00
N765   N     0.16667   0.74999   0.62624   0.00000  Uiso   1.00
N766   N     0.16667   0.75001   0.87377   0.00000  Uiso   1.00
N767   N     0.24102   0.61630   0.70126   0.00000  Uiso   1.00
N768   N     0.24025   0.88307   0.81826   0.00000  Uiso   1.00
N769   N     0.23827   0.52105   0.69944   0.00000  Uiso   1.00
N770   N     0.23892   0.97959   0.81792   0.00000  Uiso   1.00
O771   O     0.16667   0.68453   0.78974   0.00000  Uiso   1.00
O772   O     0.16666   0.81546   0.71026   0.00000  Uiso   1.00
O773   O     0.16667   0.68453   0.71026   0.00000  Uiso   1.00
O774   O     0.16666   0.81547   0.78974   0.00000  Uiso   1.00
O775   O     0.09058   0.75000   0.78045   0.00000  Uiso   1.00
O776   O     0.24275   0.75000   0.71955   0.00000  Uiso   1.00
O777   O     0.09058   0.74999   0.70097   0.00000  Uiso   1.00
O778   O     0.24275   0.75000   0.79903   0.00000  Uiso   1.00
Zn779  Zn    0.16667   0.75000   0.80307   0.00000  Uiso   1.00
Zn780  Zn    0.16667   0.74999   0.69693   0.00000  Uiso   1.00
C781   C     0.50066   0.66395   0.74986   0.00000  Uiso   1.00
C782   C     0.45419   0.74075   0.94134   0.00000  Uiso   1.00
C783   C     0.50015   0.75020   0.52669   0.00000  Uiso   1.00
C784   C     0.50014   0.75019   0.97344   0.00000  Uiso   1.00
C785   C     0.40034   0.75018   0.73754   0.00000  Uiso   1.00
C786   C     0.59965   0.75047   0.76246   0.00000  Uiso   1.00
C787   C     0.34532   0.75061   0.73081   0.00000  Uiso   1.00
C788   C     0.65466   0.75093   0.76920   0.00000  Uiso   1.00
C789   C     0.46371   0.54766   0.77072   0.00000  Uiso   1.00
C790   C     0.46440   0.95251   0.71775   0.00000  Uiso   1.00
C791   C     0.46541   0.59366   0.77209   0.00000  Uiso   1.00
C792   C     0.50060   0.83607   0.75037   0.00000  Uiso   1.00
C793   C     0.46546   0.90647   0.71769   0.00000  Uiso   1.00
C794   C     0.50212   0.61603   0.74948   0.00000  Uiso   1.00
C795   C     0.50107   0.88403   0.75136   0.00000  Uiso   1.00
C796   C     0.53819   0.59267   0.72540   0.00000  Uiso   1.00
C797   C     0.53644   0.90728   0.78566   0.00000  Uiso   1.00
C798   C     0.53668   0.54585   0.72442   0.00000  Uiso   1.00
C799   C     0.53583   0.95422   0.78537   0.00000  Uiso   1.00
C800   C     0.49954   0.52400   0.74775   0.00000  Uiso   1.00
C801   C     0.49956   0.97606   0.75093   0.00000  Uiso   1.00
C802   C     0.61982   0.63421   0.73171   0.00000  Uiso   1.00
C803   C     0.45723   0.76725   0.54685   0.00000  Uiso   1.00
C804   C     0.56066   0.87929   0.86602   0.00000  Uiso   1.00
C805   C     0.62386   0.51314   0.72508   0.00000  Uiso   1.00
C806   C     0.55122   0.50385   0.85538   0.00000  Uiso   1.00
C807   C     0.54605   0.75950   0.95385   0.00000  Uiso   1.00
C808   C     0.45808   0.76705   0.59663   0.00000  Uiso   1.00
C809   C     0.54507   0.75944   0.90405   0.00000  Uiso   1.00
C810   C     0.54196   0.73296   0.60771   0.00000  Uiso   1.00
C811   C     0.45504   0.74057   0.89181   0.00000  Uiso   1.00
C812   C     0.54297   0.73301   0.55819   0.00000  Uiso   1.00
H813   H     0.65804   0.75034   0.69437   0.00000  Uiso   1.00
H814   H     0.58061   0.76705   0.88971   0.00000  Uiso   1.00
H815   H     0.57489   0.71913   0.63133   0.00000  Uiso   1.00
H816   H     0.41950   0.73263   0.86789   0.00000  Uiso   1.00
H817   H     0.57671   0.71895   0.54464   0.00000  Uiso   1.00
H818   H     0.41793   0.73278   0.95439   0.00000  Uiso   1.00
H819   H     0.58406   0.60036   0.67136   0.00000  Uiso   1.00
H820   H     0.64640   0.60681   0.74647   0.00000  Uiso   1.00
H821   H     0.60797   0.65403   0.76164   0.00000  Uiso   1.00
H822   H     0.64174   0.65640   0.71051   0.00000  Uiso   1.00
H823   H     0.61219   0.89168   0.81763   0.00000  Uiso   1.00
H824   H     0.34190   0.75125   0.80562   0.00000  Uiso   1.00
H825   H     0.56436   0.91215   0.88460   0.00000  Uiso   1.00
H826   H     0.58816   0.85540   0.88664   0.00000  Uiso   1.00
H827   H     0.51998   0.86668   0.86505   0.00000  Uiso   1.00
H828   H     0.55543   0.99357   0.68054   0.00000  Uiso   1.00
H829   H     0.65339   0.52516   0.70339   0.00000  Uiso   1.00
H830   H     0.63011   0.97674   0.73139   0.00000  Uiso   1.00
H831   H     0.63028   0.53061   0.76025   0.00000  Uiso   1.00
H832   H     0.60888   0.96579   0.82826   0.00000  Uiso   1.00
H833   H     0.57185   0.99350   0.89086   0.00000  Uiso   1.00
H834   H     0.50850   0.99767   0.85440   0.00000  Uiso   1.00
H835   H     0.43523   0.53033   0.78842   0.00000  Uiso   1.00
H836   H     0.55763   0.54020   0.85126   0.00000  Uiso   1.00
H837   H     0.43686   0.96993   0.69143   0.00000  Uiso   1.00
H838   H     0.43750   0.61191   0.79009   0.00000  Uiso   1.00
H839   H     0.43823   0.88825   0.69163   0.00000  Uiso   1.00
H840   H     0.42351   0.78133   0.52439   0.00000  Uiso   1.00
H841   H     0.58239   0.76747   0.97681   0.00000  Uiso   1.00
H842   H     0.42505   0.78069   0.61157   0.00000  Uiso   1.00
N843   N     0.50000   0.74999   0.62624   0.00000  Uiso   1.00
N844   N     0.50000   0.75001   0.87377   0.00000  Uiso   1.00
N845   N     0.57436   0.61630   0.70126   0.00000  Uiso   1.00
N846   N     0.57358   0.88307   0.81826   0.00000  Uiso   1.00
N847   N     0.57160   0.52105   0.69944   0.00000  Uiso   1.00
N848   N     0.57226   0.97959   0.81792   0.00000  Uiso   1.00
O849   O     0.50000   0.68453   0.78974   0.00000  Uiso   1.00
O850   O     0.50000   0.81546   0.71026   0.00000  Uiso   1.00
O851   O     0.50000   0.68453   0.71026   0.00000  Uiso   1.00
O852   O     0.50000   0.81547   0.78974   0.00000  Uiso   1.00
O853   O     0.42392   0.75000   0.78045   0.00000  Uiso   1.00
O854   O     0.57608   0.75000   0.71955   0.00000  Uiso   1.00
O855   O     0.42392   0.74999   0.70097   0.00000  Uiso   1.00
O856   O     0.57608   0.75000   0.79903   0.00000  Uiso   1.00
Zn857  Zn    0.50000   0.75000   0.80307   0.00000  Uiso   1.00
Zn858  Zn    0.50000   0.74999   0.69693   0.00000  Uiso   1.00
C859   C     0.83399   0.66395   0.74986   0.00000  Uiso   1.00
C860   C     0.78753   0.74075   0.94134   0.00000  Uiso   1.00
C861   C     0.83348   0.75020   0.52669   0.00000  Uiso   1.00
C862   C     0.83348   0.75019   0.97344   0.00000  Uiso   1.00
C863   C     0.73367   0.75018   0.73754   0.00000  Uiso   1.00
C864   C     0.93298   0.75047   0.76246   0.00000  Uiso   1.00
C865   C     0.67865   0.75061   0.73081   0.00000  Uiso   1.00
C866   C     0.98799   0.75093   0.76920   0.00000  Uiso   1.00
C867   C     0.79704   0.54766   0.77072   0.00000  Uiso   1.00
C868   C     0.79774   0.95251   0.71775   0.00000  Uiso   1.00
C869   C     0.79874   0.59366   0.77209   0.00000  Uiso   1.00
C870   C     0.83394   0.83607   0.75037   0.00000  Uiso   1.00
C871   C     0.79879   0.90647   0.71769   0.00000  Uiso   1.00
C872   C     0.83545   0.61603   0.74948   0.00000  Uiso   1.00
C873   C     0.83440   0.88403   0.75136   0.00000  Uiso   1.00
C874   C     0.87153   0.59267   0.72540   0.00000  Uiso   1.00
C875   C     0.86977   0.90728   0.78566   0.00000  Uiso   1.00
C876   C     0.87001   0.54585   0.72442   0.00000  Uiso   1.00
C877   C     0.86916   0.95422   0.78537   0.00000  Uiso   1.00
C878   C     0.83287   0.52400   0.74775   0.00000  Uiso   1.00
C879   C     0.83289   0.97606   0.75093   0.00000  Uiso   1.00
C880   C     0.95315   0.63421   0.73171   0.00000  Uiso   1.00
C881   C     0.79057   0.76725   0.54685   0.00000  Uiso   1.00
C882   C     0.89399   0.87929   0.86602   0.00000  Uiso   1.00
C883   C     0.95720   0.51314   0.72508   0.00000  Uiso   1.00
C884   C     0.88456   0.50385   0.85538   0.00000  Uiso   1.00
C885   C     0.87939   0.75950   0.95385   0.00000  Uiso   1.00
C886   C     0.79141   0.76705   0.59663   0.00000  Uiso   1.00
C887   C     0.87841   0.75944   0.90405   0.00000  Uiso   1.00
C888   C     0.87530   0.73296   0.60771   0.00000  Uiso   1.00
C889   C     0.78838   0.74057   0.89181   0.00000  Uiso   1.00
C890   C     0.87630   0.73301   0.55819   0.00000  Uiso   1.00
H891   H     0.99137   0.75034   0.69437   0.00000  Uiso   1.00
H892   H     0.91394   0.76705   0.88971   0.00000  Uiso   1.00
H893   H     0.90823   0.71913   0.63133   0.00000  Uiso   1.00
H894   H     0.75283   0.73263   0.86789   0.00000  Uiso   1.00
H895   H     0.91005   0.71895   0.54464   0.00000  Uiso   1.00
H896   H     0.75126   0.73278   0.95439   0.00000  Uiso   1.00
H897   H     0.91739   0.60036   0.67136   0.00000  Uiso   1.00
H898   H     0.97973   0.60681   0.74647   0.00000  Uiso   1.00
H899   H     0.94130   0.65403   0.76164   0.00000  Uiso   1.00
H900   H     0.97507   0.65640   0.71051   0.00000  Uiso   1.00
H901   H     0.94553   0.89168   0.81763   0.00000  Uiso   1.00
H902   H     0.67523   0.75125   0.80562   0.00000  Uiso   1.00
H903   H     0.89769   0.91215   0.88460   0.00000  Uiso   1.00
H904   H     0.92149   0.85540   0.88664   0.00000  Uiso   1.00
H905   H     0.85332   0.86668   0.86505   0.00000  Uiso   1.00
H906   H     0.88876   0.99357   0.68054   0.00000  Uiso   1.00
H907   H     0.98673   0.52516   0.70339   0.00000  Uiso   1.00
H908   H     0.96344   0.97674   0.73139   0.00000  Uiso   1.00
H909   H     0.96361   0.53061   0.76025   0.00000  Uiso   1.00
H910   H     0.94221   0.96579   0.82826   0.00000  Uiso   1.00
H911   H     0.90518   0.99350   0.89086   0.00000  Uiso   1.00
H912   H     0.84183   0.99767   0.85440   0.00000  Uiso   1.00
H913   H     0.76857   0.53033   0.78842   0.00000  Uiso   1.00
H914   H     0.89096   0.54020   0.85126   0.00000  Uiso   1.00
H915   H     0.77020   0.96993   0.69143   0.00000  Uiso   1.00
H916   H     0.77083   0.61191   0.79009   0.00000  Uiso   1.00
H917   H     0.77156   0.88825   0.69163   0.00000  Uiso   1.00
H918   H     0.75684   0.78133   0.52439   0.00000  Uiso   1.00
H919   H     0.91572   0.76747   0.97681   0.00000  Uiso   1.00
H920   H     0.75839   0.78069   0.61157   0.00000  Uiso   1.00
N921   N     0.83333   0.74999   0.62624   0.00000  Uiso   1.00
N922   N     0.83333   0.75001   0.87377   0.00000  Uiso   1.00
N923   N     0.90769   0.61630   0.70126   0.00000  Uiso   1.00
N924   N     0.90691   0.88307   0.81826   0.00000  Uiso   1.00
N925   N     0.90494   0.52105   0.69944   0.00000  Uiso   1.00
N926   N     0.90559   0.97959   0.81792   0.00000  Uiso   1.00
O927   O     0.83334   0.68453   0.78974   0.00000  Uiso   1.00
O928   O     0.83333   0.81546   0.71026   0.00000  Uiso   1.00
O929   O     0.83334   0.68453   0.71026   0.00000  Uiso   1.00
O930   O     0.83333   0.81547   0.78974   0.00000  Uiso   1.00
O931   O     0.75725   0.75000   0.78045   0.00000  Uiso   1.00
O932   O     0.90942   0.75000   0.71955   0.00000  Uiso   1.00
O933   O     0.75725   0.74999   0.70097   0.00000  Uiso   1.00
O934   O     0.90942   0.75000   0.79903   0.00000  Uiso   1.00
Zn935  Zn    0.83333   0.75000   0.80307   0.00000  Uiso   1.00
Zn936  Zn    0.83333   0.74999   0.69693   0.00000  Uiso   1.00
loop_
_geom_bond_atom_site_label_1
_geom_bond_atom_site_label_2
_geom_bond_distance
_geom_bond_site_symmetry_2
_ccdc_geom_bond_type
C1     O71     1.283   .     A
C1     O69     1.285   .     A
C1     C14     1.433   .     S
C2     C31     1.407   .     A
C2     C4      1.408   .     A
C2     H38     1.083   .     S
C3     C23     1.409   .     A
C3     C32     1.409   .     A
C3     C472    1.510   1_554 S
C4     C27     1.409   .     A
C4     C471    1.510   .     S
C5     C7      1.400   .     S
C5     O75     1.277   .     A
C5     O73     1.275   .     A
C6     O74     1.275   .     A
C6     C8      1.400   .     S
C6     O76     1.277   .     A
C7     C164    1.329   1_455 S
C7     H189    1.088   1_455 S
C8     C85     1.329   .     S
C8     H122    1.087   .     S
C9     H55     1.084   .     S
C9     C20     1.393   .     A
C9     C11     1.376   .     A
C10    C21     1.392   .     A
C10    H57     1.084   .     S
C10    C13     1.376   .     A
C11    C14     1.395   .     A
C11    H58     1.084   .     S
C12    O72     1.282   .     A
C12    C15     1.434   .     S
C12    O70     1.286   .     A
C13    C15     1.395   .     A
C13    H59     1.084   .     S
C14    C16     1.411   .     A
C15    C17     1.409   .     A
C16    C18     1.400   .     A
C16    N65     1.428   .     S
C17    N66     1.426   .     S
C17    C19     1.403   .     A
C18    N67     1.426   .     S
C18    C20     1.407   .     A
C19    C21     1.408   .     A
C19    N68     1.429   .     S
C20    C255    1.437   1_545 S
C21    C254    1.437   .     S
C22    H41     1.109   .     S
C22    N65     1.448   .     S
C22    H40     1.109   .     S
C22    H42     1.110   .     S
C23    H60     1.083   .     S
C23    C28     1.408   .     A
C24    H45     1.108   .     S
C24    N66     1.447   .     S
C24    H47     1.111   .     S
C24    H46     1.110   .     S
C25    N67     1.449   .     S
C25    H51     1.112   .     S
C25    H49     1.110   .     S
C25    H284    1.111   1_545 S
C26    H56     1.110   .     S
C26    H287    1.111   1_545 S
C26    H288    1.112   1_545 S
C26    N302    1.450   1_545 S
C27    C29     1.408   .     A
C27    H61     1.083   .     S
C28    N63     1.364   .     A
C28    H62     1.081   .     S
C29    N64     1.365   .     A
C29    H34     1.081   .     S
C30    H35     1.081   .     S
C30    N63     1.364   .     A
C30    C32     1.408   .     A
C31    N64     1.365   .     A
C31    H36     1.080   .     S
C32    H37     1.083   .     S
H33    C85     1.088   .     S
H39    N65     1.031   .     S
H43    N66     1.031   .     S
H44    C164    1.087   1_455 S
H48    N301    1.031   .     S
H50    C259    1.111   .     S
H52    N68     1.030   .     S
H53    C260    1.111   .     S
H54    C260    1.112   .     S
N63    Zn78    2.004   .     S
N64    Zn77    2.004   .     S
N67    H282    1.031   1_545 S
N68    C260    1.450   .     S
O69    Zn77    1.990   .     S
O70    Zn78    1.990   .     S
O71    Zn78    1.997   .     S
O72    Zn77    1.997   .     S
O73    Zn77    1.967   .     S
O74    Zn78    1.967   .     S
O75    Zn78    1.979   .     S
O76    Zn77    1.979   .     S
C79    O149    1.283   .     A
C79    O147    1.285   .     A
C79    C92     1.433   .     S
C80    C109    1.407   .     A
C80    C82     1.408   .     A
C80    H116    1.083   .     S
C81    C101    1.409   .     A
C81    C110    1.409   .     A
C81    C550    1.510   1_554 S
C82    C105    1.409   .     A
C82    C549    1.510   .     S
C83    C85     1.400   .     S
C83    O153    1.277   .     A
C83    O151    1.275   .     A
C84    O152    1.275   .     A
C84    C86     1.400   .     S
C84    O154    1.277   .     A
C86    C163    1.329   .     S
C86    H200    1.087   .     S
C87    H133    1.084   .     S
C87    C98     1.393   .     A
C87    C89     1.376   .     A
C88    C99     1.392   .     A
C88    H135    1.084   .     S
C88    C91     1.376   .     A
C89    C92     1.395   .     A
C89    H136    1.084   .     S
C90    O150    1.282   .     A
C90    C93     1.434   .     S
C90    O148    1.286   .     A
C91    C93     1.395   .     A
C91    H137    1.084   .     S
C92    C94     1.411   .     A
C93    C95     1.409   .     A
C94    C96     1.400   .     A
C94    N143    1.428   .     S
C95    N144    1.426   .     S
C95    C97     1.403   .     A
C96    N145    1.426   .     S
C96    C98     1.407   .     A
C97    C99     1.408   .     A
C97    N146    1.429   .     S
C98    C333    1.437   1_545 S
C99    C332    1.437   .     S
C100   H119    1.109   .     S
C100   N143    1.448   .     S
C100   H118    1.109   .     S
C100   H120    1.110   .     S
C101   H138    1.083   .     S
C101   C106    1.408   .     A
C102   H123    1.108   .     S
C102   N144    1.447   .     S
C102   H125    1.111   .     S
C102   H124    1.110   .     S
C103   N145    1.449   .     S
C103   H129    1.112   .     S
C103   H127    1.110   .     S
C103   H362    1.111   1_545 S
C104   H134    1.110   .     S
C104   H365    1.111   1_545 S
C104   H366    1.112   1_545 S
C104   N380    1.450   1_545 S
C105   C107    1.408   .     A
C105   H139    1.083   .     S
C106   N141    1.364   .     A
C106   H140    1.081   .     S
C107   N142    1.365   .     A
C107   H112    1.081   .     S
C108   H113    1.081   .     S
C108   N141    1.364   .     A
C108   C110    1.408   .     A
C109   N142    1.365   .     A
C109   H114    1.080   .     S
C110   H115    1.083   .     S
H111   C163    1.088   .     S
H117   N143    1.031   .     S
H121   N144    1.031   .     S
H126   N379    1.031   .     S
H128   C337    1.111   .     S
H130   N146    1.030   .     S
H131   C338    1.111   .     S
H132   C338    1.112   .     S
N141   Zn156   2.004   .     S
N142   Zn155   2.004   .     S
N145   H360    1.031   1_545 S
N146   C338    1.450   .     S
O147   Zn155   1.990   .     S
O148   Zn156   1.990   .     S
O149   Zn156   1.997   .     S
O150   Zn155   1.997   .     S
O151   Zn155   1.967   .     S
O152   Zn156   1.967   .     S
O153   Zn156   1.979   .     S
O154   Zn155   1.979   .     S
C157   O227    1.283   .     A
C157   O225    1.285   .     A
C157   C170    1.433   .     S
C158   C187    1.407   .     A
C158   C160    1.408   .     A
C158   H194    1.083   .     S
C159   C179    1.409   .     A
C159   C188    1.409   .     A
C159   C628    1.510   1_554 S
C160   C183    1.409   .     A
C160   C627    1.510   .     S
C161   C163    1.400   .     S
C161   O231    1.277   .     A
C161   O229    1.275   .     A
C162   O230    1.275   .     A
C162   C164    1.400   .     S
C162   O232    1.277   .     A
C164   C7      1.329   1_655 S
C164   H44     1.087   1_655 S
C165   H211    1.084   .     S
C165   C176    1.393   .     A
C165   C167    1.376   .     A
C166   C177    1.392   .     A
C166   H213    1.084   .     S
C166   C169    1.376   .     A
C167   C170    1.395   .     A
C167   H214    1.084   .     S
C168   O228    1.282   .     A
C168   C171    1.434   .     S
C168   O226    1.286   .     A
C169   C171    1.395   .     A
C169   H215    1.084   .     S
C170   C172    1.411   .     A
C171   C173    1.409   .     A
C172   C174    1.400   .     A
C172   N221    1.428   .     S
C173   N222    1.426   .     S
C173   C175    1.403   .     A
C174   N223    1.426   .     S
C174   C176    1.407   .     A
C175   C177    1.408   .     A
C175   N224    1.429   .     S
C176   C411    1.437   1_545 S
C177   C410    1.437   .     S
C178   H197    1.109   .     S
C178   N221    1.448   .     S
C178   H196    1.109   .     S
C178   H198    1.110   .     S
C179   H216    1.083   .     S
C179   C184    1.408   .     A
C180   H201    1.108   .     S
C180   N222    1.447   .     S
C180   H203    1.111   .     S
C180   H202    1.110   .     S
C181   N223    1.449   .     S
C181   H207    1.112   .     S
C181   H205    1.110   .     S
C181   H440    1.111   1_545 S
C182   H212    1.110   .     S
C182   H443    1.111   1_545 S
C182   H444    1.112   1_545 S
C182   N458    1.450   1_545 S
C183   C185    1.408   .     A
C183   H217    1.083   .     S
C184   N219    1.364   .     A
C184   H218    1.081   .     S
C185   N220    1.365   .     A
C185   H190    1.081   .     S
C186   H191    1.081   .     S
C186   N219    1.364   .     A
C186   C188    1.408   .     A
C187   N220    1.365   .     A
C187   H192    1.080   .     S
C188   H193    1.083   .     S
H189   C7      1.088   1_655 S
H195   N221    1.031   .     S
H199   N222    1.031   .     S
H204   N457    1.031   .     S
H206   C415    1.111   .     S
H208   N224    1.030   .     S
H209   C416    1.111   .     S
H210   C416    1.112   .     S
N219   Zn234   2.004   .     S
N220   Zn233   2.004   .     S
N223   H438    1.031   1_545 S
N224   C416    1.450   .     S
O225   Zn233   1.990   .     S
O226   Zn234   1.990   .     S
O227   Zn234   1.997   .     S
O228   Zn233   1.997   .     S
O229   Zn233   1.967   .     S
O230   Zn234   1.967   .     S
O231   Zn234   1.979   .     S
O232   Zn233   1.979   .     S
C235   O305    1.283   .     A
C235   O303    1.285   .     A
C235   C248    1.433   .     S
C236   C265    1.407   .     A
C236   C238    1.408   .     A
C236   H272    1.083   .     S
C237   C257    1.409   .     A
C237   C266    1.409   .     A
C237   C706    1.510   1_554 S
C238   C261    1.409   .     A
C238   C705    1.510   .     S
C239   C241    1.400   .     S
C239   O309    1.277   .     A
C239   O307    1.275   .     A
C240   O308    1.275   .     A
C240   C242    1.400   .     S
C240   O310    1.277   .     A
C241   C398    1.329   1_455 S
C241   H423    1.088   1_455 S
C242   C319    1.329   .     S
C242   H356    1.087   .     S
C243   H289    1.084   .     S
C243   C254    1.393   .     A
C243   C245    1.376   .     A
C244   C255    1.392   .     A
C244   H291    1.084   .     S
C244   C247    1.376   .     A
C245   C248    1.395   .     A
C245   H292    1.084   .     S
C246   O306    1.282   .     A
C246   C249    1.434   .     S
C246   O304    1.286   .     A
C247   C249    1.395   .     A
C247   H293    1.084   .     S
C248   C250    1.411   .     A
C249   C251    1.409   .     A
C250   C252    1.400   .     A
C250   N299    1.428   .     S
C251   N300    1.426   .     S
C251   C253    1.403   .     A
C252   N301    1.426   .     S
C252   C254    1.407   .     A
C253   C255    1.408   .     A
C253   N302    1.429   .     S
C255   C20     1.437   1_565 S
C256   H275    1.109   .     S
C256   N299    1.448   .     S
C256   H274    1.109   .     S
C256   H276    1.110   .     S
C257   H294    1.083   .     S
C257   C262    1.408   .     A
C258   H279    1.108   .     S
C258   N300    1.447   .     S
C258   H281    1.111   .     S
C258   H280    1.110   .     S
C259   N301    1.449   .     S
C259   H285    1.112   .     S
C259   H283    1.110   .     S
C260   H290    1.110   .     S
C261   C263    1.408   .     A
C261   H295    1.083   .     S
C262   N297    1.364   .     A
C262   H296    1.081   .     S
C263   N298    1.365   .     A
C263   H268    1.081   .     S
C264   H269    1.081   .     S
C264   N297    1.364   .     A
C264   C266    1.408   .     A
C265   N298    1.365   .     A
C265   H270    1.080   .     S
C266   H271    1.083   .     S
H267   C319    1.088   .     S
H273   N299    1.031   .     S
H277   N300    1.031   .     S
H278   C398    1.087   1_455 S
H282   N67     1.031   1_565 S
H284   C25     1.111   1_565 S
H286   N302    1.030   .     S
H287   C26     1.111   1_565 S
H288   C26     1.112   1_565 S
N297   Zn312   2.004   .     S
N298   Zn311   2.004   .     S
N302   C26     1.450   1_565 S
O303   Zn311   1.990   .     S
O304   Zn312   1.990   .     S
O305   Zn312   1.997   .     S
O306   Zn311   1.997   .     S
O307   Zn311   1.967   .     S
O308   Zn312   1.967   .     S
O309   Zn312   1.979   .     S
O310   Zn311   1.979   .     S
C313   O383    1.283   .     A
C313   O381    1.285   .     A
C313   C326    1.433   .     S
C314   C343    1.407   .     A
C314   C316    1.408   .     A
C314   H350    1.083   .     S
C315   C335    1.409   .     A
C315   C344    1.409   .     A
C315   C784    1.510   1_554 S
C316   C339    1.409   .     A
C316   C783    1.510   .     S
C317   C319    1.400   .     S
C317   O387    1.277   .     A
C317   O385    1.275   .     A
C318   O386    1.275   .     A
C318   C320    1.400   .     S
C318   O388    1.277   .     A
C320   C397    1.329   .     S
C320   H434    1.087   .     S
C321   H367    1.084   .     S
C321   C332    1.393   .     A
C321   C323    1.376   .     A
C322   C333    1.392   .     A
C322   H369    1.084   .     S
C322   C325    1.376   .     A
C323   C326    1.395   .     A
C323   H370    1.084   .     S
C324   O384    1.282   .     A
C324   C327    1.434   .     S
C324   O382    1.286   .     A
C325   C327    1.395   .     A
C325   H371    1.084   .     S
C326   C328    1.411   .     A
C327   C329    1.409   .     A
C328   C330    1.400   .     A
C328   N377    1.428   .     S
C329   N378    1.426   .     S
C329   C331    1.403   .     A
C330   N379    1.426   .     S
C330   C332    1.407   .     A
C331   C333    1.408   .     A
C331   N380    1.429   .     S
C333   C98     1.437   1_565 S
C334   H353    1.109   .     S
C334   N377    1.448   .     S
C334   H352    1.109   .     S
C334   H354    1.110   .     S
C335   H372    1.083   .     S
C335   C340    1.408   .     A
C336   H357    1.108   .     S
C336   N378    1.447   .     S
C336   H359    1.111   .     S
C336   H358    1.110   .     S
C337   N379    1.449   .     S
C337   H363    1.112   .     S
C337   H361    1.110   .     S
C338   H368    1.110   .     S
C339   C341    1.408   .     A
C339   H373    1.083   .     S
C340   N375    1.364   .     A
C340   H374    1.081   .     S
C341   N376    1.365   .     A
C341   H346    1.081   .     S
C342   H347    1.081   .     S
C342   N375    1.364   .     A
C342   C344    1.408   .     A
C343   N376    1.365   .     A
C343   H348    1.080   .     S
C344   H349    1.083   .     S
H345   C397    1.088   .     S
H351   N377    1.031   .     S
H355   N378    1.031   .     S
H360   N145    1.031   1_565 S
H362   C103    1.111   1_565 S
H364   N380    1.030   .     S
H365   C104    1.111   1_565 S
H366   C104    1.112   1_565 S
N375   Zn390   2.004   .     S
N376   Zn389   2.004   .     S
N380   C104    1.450   1_565 S
O381   Zn389   1.990   .     S
O382   Zn390   1.990   .     S
O383   Zn390   1.997   .     S
O384   Zn389   1.997   .     S
O385   Zn389   1.967   .     S
O386   Zn390   1.967   .     S
O387   Zn390   1.979   .     S
O388   Zn389   1.979   .     S
C391   O461    1.283   .     A
C391   O459    1.285   .     A
C391   C404    1.433   .     S
C392   C421    1.407   .     A
C392   C394    1.408   .     A
C392   H428    1.083   .     S
C393   C413    1.409   .     A
C393   C422    1.409   .     A
C393   C862    1.510   1_554 S
C394   C417    1.409   .     A
C394   C861    1.510   .     S
C395   C397    1.400   .     S
C395   O465    1.277   .     A
C395   O463    1.275   .     A
C396   O464    1.275   .     A
C396   C398    1.400   .     S
C396   O466    1.277   .     A
C398   C241    1.329   1_655 S
C398   H278    1.087   1_655 S
C399   H445    1.084   .     S
C399   C410    1.393   .     A
C399   C401    1.376   .     A
C400   C411    1.392   .     A
C400   H447    1.084   .     S
C400   C403    1.376   .     A
C401   C404    1.395   .     A
C401   H448    1.084   .     S
C402   O462    1.282   .     A
C402   C405    1.434   .     S
C402   O460    1.286   .     A
C403   C405    1.395   .     A
C403   H449    1.084   .     S
C404   C406    1.411   .     A
C405   C407    1.409   .     A
C406   C408    1.400   .     A
C406   N455    1.428   .     S
C407   N456    1.426   .     S
C407   C409    1.403   .     A
C408   N457    1.426   .     S
C408   C410    1.407   .     A
C409   C411    1.408   .     A
C409   N458    1.429   .     S
C411   C176    1.437   1_565 S
C412   H431    1.109   .     S
C412   N455    1.448   .     S
C412   H430    1.109   .     S
C412   H432    1.110   .     S
C413   H450    1.083   .     S
C413   C418    1.408   .     A
C414   H435    1.108   .     S
C414   N456    1.447   .     S
C414   H437    1.111   .     S
C414   H436    1.110   .     S
C415   N457    1.449   .     S
C415   H441    1.112   .     S
C415   H439    1.110   .     S
C416   H446    1.110   .     S
C417   C419    1.408   .     A
C417   H451    1.083   .     S
C418   N453    1.364   .     A
C418   H452    1.081   .     S
C419   N454    1.365   .     A
C419   H424    1.081   .     S
C420   H425    1.081   .     S
C420   N453    1.364   .     A
C420   C422    1.408   .     A
C421   N454    1.365   .     A
C421   H426    1.080   .     S
C422   H427    1.083   .     S
H423   C241    1.088   1_655 S
H429   N455    1.031   .     S
H433   N456    1.031   .     S
H438   N223    1.031   1_565 S
H440   C181    1.111   1_565 S
H442   N458    1.030   .     S
H443   C182    1.111   1_565 S
H444   C182    1.112   1_565 S
N453   Zn468   2.004   .     S
N454   Zn467   2.004   .     S
N458   C182    1.450   1_565 S
O459   Zn467   1.990   .     S
O460   Zn468   1.990   .     S
O461   Zn468   1.997   .     S
O462   Zn467   1.997   .     S
O463   Zn467   1.967   .     S
O464   Zn468   1.967   .     S
O465   Zn468   1.979   .     S
O466   Zn467   1.979   .     S
C469   O539    1.283   .     A
C469   O537    1.285   .     A
C469   C482    1.433   .     S
C470   C499    1.407   .     A
C470   C472    1.408   .     A
C470   H506    1.083   .     S
C471   C491    1.409   .     A
C471   C500    1.409   .     A
C472   C495    1.409   .     A
C472   C3      1.510   1_556 S
C473   C475    1.400   .     S
C473   O543    1.277   .     A
C473   O541    1.275   .     A
C474   O542    1.275   .     A
C474   C476    1.400   .     S
C474   O544    1.277   .     A
C475   C632    1.329   1_455 S
C475   H657    1.088   1_455 S
C476   C553    1.329   .     S
C476   H590    1.087   .     S
C477   H523    1.084   .     S
C477   C488    1.393   .     A
C477   C479    1.376   .     A
C478   C489    1.392   .     A
C478   H525    1.084   .     S
C478   C481    1.376   .     A
C479   C482    1.395   .     A
C479   H526    1.084   .     S
C480   O540    1.282   .     A
C480   C483    1.434   .     S
C480   O538    1.286   .     A
C481   C483    1.395   .     A
C481   H527    1.084   .     S
C482   C484    1.411   .     A
C483   C485    1.409   .     A
C484   C486    1.400   .     A
C484   N533    1.428   .     S
C485   N534    1.426   .     S
C485   C487    1.403   .     A
C486   N535    1.426   .     S
C486   C488    1.407   .     A
C487   C489    1.408   .     A
C487   N536    1.429   .     S
C488   C723    1.437   1_545 S
C489   C722    1.437   .     S
C490   H509    1.109   .     S
C490   N533    1.448   .     S
C490   H508    1.109   .     S
C490   H510    1.110   .     S
C491   H528    1.083   .     S
C491   C496    1.408   .     A
C492   H513    1.108   .     S
C492   N534    1.447   .     S
C492   H515    1.111   .     S
C492   H514    1.110   .     S
C493   N535    1.449   .     S
C493   H519    1.112   .     S
C493   H517    1.110   .     S
C493   H752    1.111   1_545 S
C494   H524    1.110   .     S
C494   H755    1.111   1_545 S
C494   H756    1.112   1_545 S
C494   N770    1.450   1_545 S
C495   C497    1.408   .     A
C495   H529    1.083   .     S
C496   N531    1.364   .     A
C496   H530    1.081   .     S
C497   N532    1.365   .     A
C497   H502    1.081   .     S
C498   H503    1.081   .     S
C498   N531    1.364   .     A
C498   C500    1.408   .     A
C499   N532    1.365   .     A
C499   H504    1.080   .     S
C500   H505    1.083   .     S
H501   C553    1.088   .     S
H507   N533    1.031   .     S
H511   N534    1.031   .     S
H512   C632    1.087   1_455 S
H516   N769    1.031   .     S
H518   C727    1.111   .     S
H520   N536    1.030   .     S
H521   C728    1.111   .     S
H522   C728    1.112   .     S
N531   Zn546   2.004   .     S
N532   Zn545   2.004   .     S
N535   H750    1.031   1_545 S
N536   C728    1.450   .     S
O537   Zn545   1.990   .     S
O538   Zn546   1.990   .     S
O539   Zn546   1.997   .     S
O540   Zn545   1.997   .     S
O541   Zn545   1.967   .     S
O542   Zn546   1.967   .     S
O543   Zn546   1.979   .     S
O544   Zn545   1.979   .     S
C547   O617    1.283   .     A
C547   O615    1.285   .     A
C547   C560    1.433   .     S
C548   C577    1.407   .     A
C548   C550    1.408   .     A
C548   H584    1.083   .     S
C549   C569    1.409   .     A
C549   C578    1.409   .     A
C550   C573    1.409   .     A
C550   C81     1.510   1_556 S
C551   C553    1.400   .     S
C551   O621    1.277   .     A
C551   O619    1.275   .     A
C552   O620    1.275   .     A
C552   C554    1.400   .     S
C552   O622    1.277   .     A
C554   C631    1.329   .     S
C554   H668    1.087   .     S
C555   H601    1.084   .     S
C555   C566    1.393   .     A
C555   C557    1.376   .     A
C556   C567    1.392   .     A
C556   H603    1.084   .     S
C556   C559    1.376   .     A
C557   C560    1.395   .     A
C557   H604    1.084   .     S
C558   O618    1.282   .     A
C558   C561    1.434   .     S
C558   O616    1.286   .     A
C559   C561    1.395   .     A
C559   H605    1.084   .     S
C560   C562    1.411   .     A
C561   C563    1.409   .     A
C562   C564    1.400   .     A
C562   N611    1.428   .     S
C563   N612    1.426   .     S
C563   C565    1.403   .     A
C564   N613    1.426   .     S
C564   C566    1.407   .     A
C565   C567    1.408   .     A
C565   N614    1.429   .     S
C566   C801    1.437   1_545 S
C567   C800    1.437   .     S
C568   H587    1.109   .     S
C568   N611    1.448   .     S
C568   H586    1.109   .     S
C568   H588    1.110   .     S
C569   H606    1.083   .     S
C569   C574    1.408   .     A
C570   H591    1.108   .     S
C570   N612    1.447   .     S
C570   H593    1.111   .     S
C570   H592    1.110   .     S
C571   N613    1.449   .     S
C571   H597    1.112   .     S
C571   H595    1.110   .     S
C571   H830    1.111   1_545 S
C572   H602    1.110   .     S
C572   H833    1.111   1_545 S
C572   H834    1.112   1_545 S
C572   N848    1.450   1_545 S
C573   C575    1.408   .     A
C573   H607    1.083   .     S
C574   N609    1.364   .     A
C574   H608    1.081   .     S
C575   N610    1.365   .     A
C575   H580    1.081   .     S
C576   H581    1.081   .     S
C576   N609    1.364   .     A
C576   C578    1.408   .     A
C577   N610    1.365   .     A
C577   H582    1.080   .     S
C578   H583    1.083   .     S
H579   C631    1.088   .     S
H585   N611    1.031   .     S
H589   N612    1.031   .     S
H594   N847    1.031   .     S
H596   C805    1.111   .     S
H598   N614    1.030   .     S
H599   C806    1.111   .     S
H600   C806    1.112   .     S
N609   Zn624   2.004   .     S
N610   Zn623   2.004   .     S
N613   H828    1.031   1_545 S
N614   C806    1.450   .     S
O615   Zn623   1.990   .     S
O616   Zn624   1.990   .     S
O617   Zn624   1.997   .     S
O618   Zn623   1.997   .     S
O619   Zn623   1.967   .     S
O620   Zn624   1.967   .     S
O621   Zn624   1.979   .     S
O622   Zn623   1.979   .     S
C625   O695    1.283   .     A
C625   O693    1.285   .     A
C625   C638    1.433   .     S
C626   C655    1.407   .     A
C626   C628    1.408   .     A
C626   H662    1.083   .     S
C627   C647    1.409   .     A
C627   C656    1.409   .     A
C628   C651    1.409   .     A
C628   C159    1.510   1_556 S
C629   C631    1.400   .     S
C629   O699    1.277   .     A
C629   O697    1.275   .     A
C630   O698    1.275   .     A
C630   C632    1.400   .     S
C630   O700    1.277   .     A
C632   C475    1.329   1_655 S
C632   H512    1.087   1_655 S
C633   H679    1.084   .     S
C633   C644    1.393   .     A
C633   C635    1.376   .     A
C634   C645    1.392   .     A
C634   H681    1.084   .     S
C634   C637    1.376   .     A
C635   C638    1.395   .     A
C635   H682    1.084   .     S
C636   O696    1.282   .     A
C636   C639    1.434   .     S
C636   O694    1.286   .     A
C637   C639    1.395   .     A
C637   H683    1.084   .     S
C638   C640    1.411   .     A
C639   C641    1.409   .     A
C640   C642    1.400   .     A
C640   N689    1.428   .     S
C641   N690    1.426   .     S
C641   C643    1.403   .     A
C642   N691    1.426   .     S
C642   C644    1.407   .     A
C643   C645    1.408   .     A
C643   N692    1.429   .     S
C644   C879    1.437   1_545 S
C645   C878    1.437   .     S
C646   H665    1.109   .     S
C646   N689    1.448   .     S
C646   H664    1.109   .     S
C646   H666    1.110   .     S
C647   H684    1.083   .     S
C647   C652    1.408   .     A
C648   H669    1.108   .     S
C648   N690    1.447   .     S
C648   H671    1.111   .     S
C648   H670    1.110   .     S
C649   N691    1.449   .     S
C649   H675    1.112   .     S
C649   H673    1.110   .     S
C649   H908    1.111   1_545 S
C650   H680    1.110   .     S
C650   H911    1.111   1_545 S
C650   H912    1.112   1_545 S
C650   N926    1.450   1_545 S
C651   C653    1.408   .     A
C651   H685    1.083   .     S
C652   N687    1.364   .     A
C652   H686    1.081   .     S
C653   N688    1.365   .     A
C653   H658    1.081   .     S
C654   H659    1.081   .     S
C654   N687    1.364   .     A
C654   C656    1.408   .     A
C655   N688    1.365   .     A
C655   H660    1.080   .     S
C656   H661    1.083   .     S
H657   C475    1.088   1_655 S
H663   N689    1.031   .     S
H667   N690    1.031   .     S
H672   N925    1.031   .     S
H674   C883    1.111   .     S
H676   N692    1.030   .     S
H677   C884    1.111   .     S
H678   C884    1.112   .     S
N687   Zn702   2.004   .     S
N688   Zn701   2.004   .     S
N691   H906    1.031   1_545 S
N692   C884    1.450   .     S
O693   Zn701   1.990   .     S
O694   Zn702   1.990   .     S
O695   Zn702   1.997   .     S
O696   Zn701   1.997   .     S
O697   Zn701   1.967   .     S
O698   Zn702   1.967   .     S
O699   Zn702   1.979   .     S
O700   Zn701   1.979   .     S
C703   O773    1.283   .     A
C703   O771    1.285   .     A
C703   C716    1.433   .     S
C704   C733    1.407   .     A
C704   C706    1.408   .     A
C704   H740    1.083   .     S
C705   C725    1.409   .     A
C705   C734    1.409   .     A
C706   C729    1.409   .     A
C706   C237    1.510   1_556 S
C707   C709    1.400   .     S
C707   O777    1.277   .     A
C707   O775    1.275   .     A
C708   O776    1.275   .     A
C708   C710    1.400   .     S
C708   O778    1.277   .     A
C709   C866    1.329   1_455 S
C709   H891    1.088   1_455 S
C710   C787    1.329   .     S
C710   H824    1.087   .     S
C711   H757    1.084   .     S
C711   C722    1.393   .     A
C711   C713    1.376   .     A
C712   C723    1.392   .     A
C712   H759    1.084   .     S
C712   C715    1.376   .     A
C713   C716    1.395   .     A
C713   H760    1.084   .     S
C714   O774    1.282   .     A
C714   C717    1.434   .     S
C714   O772    1.286   .     A
C715   C717    1.395   .     A
C715   H761    1.084   .     S
C716   C718    1.411   .     A
C717   C719    1.409   .     A
C718   C720    1.400   .     A
C718   N767    1.428   .     S
C719   N768    1.426   .     S
C719   C721    1.403   .     A
C720   N769    1.426   .     S
C720   C722    1.407   .     A
C721   C723    1.408   .     A
C721   N770    1.429   .     S
C723   C488    1.437   1_565 S
C724   H743    1.109   .     S
C724   N767    1.448   .     S
C724   H742    1.109   .     S
C724   H744    1.110   .     S
C725   H762    1.083   .     S
C725   C730    1.408   .     A
C726   H747    1.108   .     S
C726   N768    1.447   .     S
C726   H749    1.111   .     S
C726   H748    1.110   .     S
C727   N769    1.449   .     S
C727   H753    1.112   .     S
C727   H751    1.110   .     S
C728   H758    1.110   .     S
C729   C731    1.408   .     A
C729   H763    1.083   .     S
C730   N765    1.364   .     A
C730   H764    1.081   .     S
C731   N766    1.365   .     A
C731   H736    1.081   .     S
C732   H737    1.081   .     S
C732   N765    1.364   .     A
C732   C734    1.408   .     A
C733   N766    1.365   .     A
C733   H738    1.080   .     S
C734   H739    1.083   .     S
H735   C787    1.088   .     S
H741   N767    1.031   .     S
H745   N768    1.031   .     S
H746   C866    1.087   1_455 S
H750   N535    1.031   1_565 S
H752   C493    1.111   1_565 S
H754   N770    1.030   .     S
H755   C494    1.111   1_565 S
H756   C494    1.112   1_565 S
N765   Zn780   2.004   .     S
N766   Zn779   2.004   .     S
N770   C494    1.450   1_565 S
O771   Zn779   1.990   .     S
O772   Zn780   1.990   .     S
O773   Zn780   1.997   .     S
O774   Zn779   1.997   .     S
O775   Zn779   1.967   .     S
O776   Zn780   1.967   .     S
O777   Zn780   1.979   .     S
O778   Zn779   1.979   .     S
C781   O851    1.283   .     A
C781   O849    1.285   .     A
C781   C794    1.433   .     S
C782   C811    1.407   .     A
C782   C784    1.408   .     A
C782   H818    1.083   .     S
C783   C803    1.409   .     A
C783   C812    1.409   .     A
C784   C807    1.409   .     A
C784   C315    1.510   1_556 S
C785   C787    1.400   .     S
C785   O855    1.277   .     A
C785   O853    1.275   .     A
C786   O854    1.275   .     A
C786   C788    1.400   .     S
C786   O856    1.277   .     A
C788   C865    1.329   .     S
C788   H902    1.087   .     S
C789   H835    1.084   .     S
C789   C800    1.393   .     A
C789   C791    1.376   .     A
C790   C801    1.392   .     A
C790   H837    1.084   .     S
C790   C793    1.376   .     A
C791   C794    1.395   .     A
C791   H838    1.084   .     S
C792   O852    1.282   .     A
C792   C795    1.434   .     S
C792   O850    1.286   .     A
C793   C795    1.395   .     A
C793   H839    1.084   .     S
C794   C796    1.411   .     A
C795   C797    1.409   .     A
C796   C798    1.400   .     A
C796   N845    1.428   .     S
C797   N846    1.426   .     S
C797   C799    1.403   .     A
C798   N847    1.426   .     S
C798   C800    1.407   .     A
C799   C801    1.408   .     A
C799   N848    1.429   .     S
C801   C566    1.437   1_565 S
C802   H821    1.109   .     S
C802   N845    1.448   .     S
C802   H820    1.109   .     S
C802   H822    1.110   .     S
C803   H840    1.083   .     S
C803   C808    1.408   .     A
C804   H825    1.108   .     S
C804   N846    1.447   .     S
C804   H827    1.111   .     S
C804   H826    1.110   .     S
C805   N847    1.449   .     S
C805   H831    1.112   .     S
C805   H829    1.110   .     S
C806   H836    1.110   .     S
C807   C809    1.408   .     A
C807   H841    1.083   .     S
C808   N843    1.364   .     A
C808   H842    1.081   .     S
C809   N844    1.365   .     A
C809   H814    1.081   .     S
C810   H815    1.081   .     S
C810   N843    1.364   .     A
C810   C812    1.408   .     A
C811   N844    1.365   .     A
C811   H816    1.080   .     S
C812   H817    1.083   .     S
H813   C865    1.088   .     S
H819   N845    1.031   .     S
H823   N846    1.031   .     S
H828   N613    1.031   1_565 S
H830   C571    1.111   1_565 S
H832   N848    1.030   .     S
H833   C572    1.111   1_565 S
H834   C572    1.112   1_565 S
N843   Zn858   2.004   .     S
N844   Zn857   2.004   .     S
N848   C572    1.450   1_565 S
O849   Zn857   1.990   .     S
O850   Zn858   1.990   .     S
O851   Zn858   1.997   .     S
O852   Zn857   1.997   .     S
O853   Zn857   1.967   .     S
O854   Zn858   1.967   .     S
O855   Zn858   1.979   .     S
O856   Zn857   1.979   .     S
C859   O929    1.283   .     A
C859   O927    1.285   .     A
C859   C872    1.433   .     S
C860   C889    1.407   .     A
C860   C862    1.408   .     A
C860   H896    1.083   .     S
C861   C881    1.409   .     A
C861   C890    1.409   .     A
C862   C885    1.409   .     A
C862   C393    1.510   1_556 S
C863   C865    1.400   .     S
C863   O933    1.277   .     A
C863   O931    1.275   .     A
C864   O932    1.275   .     A
C864   C866    1.400   .     S
C864   O934    1.277   .     A
C866   C709    1.329   1_655 S
C866   H746    1.087   1_655 S
C867   H913    1.084   .     S
C867   C878    1.393   .     A
C867   C869    1.376   .     A
C868   C879    1.392   .     A
C868   H915    1.084   .     S
C868   C871    1.376   .     A
C869   C872    1.395   .     A
C869   H916    1.084   .     S
C870   O930    1.282   .     A
C870   C873    1.434   .     S
C870   O928    1.286   .     A
C871   C873    1.395   .     A
C871   H917    1.084   .     S
C872   C874    1.411   .     A
C873   C875    1.409   .     A
C874   C876    1.400   .     A
C874   N923    1.428   .     S
C875   N924    1.426   .     S
C875   C877    1.403   .     A
C876   N925    1.426   .     S
C876   C878    1.407   .     A
C877   C879    1.408   .     A
C877   N926    1.429   .     S
C879   C644    1.437   1_565 S
C880   H899    1.109   .     S
C880   N923    1.448   .     S
C880   H898    1.109   .     S
C880   H900    1.110   .     S
C881   H918    1.083   .     S
C881   C886    1.408   .     A
C882   H903    1.108   .     S
C882   N924    1.447   .     S
C882   H905    1.111   .     S
C882   H904    1.110   .     S
C883   N925    1.449   .     S
C883   H909    1.112   .     S
C883   H907    1.110   .     S
C884   H914    1.110   .     S
C885   C887    1.408   .     A
C885   H919    1.083   .     S
C886   N921    1.364   .     A
C886   H920    1.081   .     S
C887   N922    1.365   .     A
C887   H892    1.081   .     S
C888   H893    1.081   .     S
C888   N921    1.364   .     A
C888   C890    1.408   .     A
C889   N922    1.365   .     A
C889   H894    1.080   .     S
C890   H895    1.083   .     S
H891   C709    1.088   1_655 S
H897   N923    1.031   .     S
H901   N924    1.031   .     S
H906   N691    1.031   1_565 S
H908   C649    1.111   1_565 S
H910   N926    1.030   .     S
H911   C650    1.111   1_565 S
H912   C650    1.112   1_565 S
N921   Zn936   2.004   .     S
N922   Zn935   2.004   .     S
N926   C650    1.450   1_565 S
O927   Zn935   1.990   .     S
O928   Zn936   1.990   .     S
O929   Zn936   1.997   .     S
O930   Zn935   1.997   .     S
O931   Zn935   1.967   .     S
O932   Zn936   1.967   .     S
O933   Zn936   1.979   .     S
O934   Zn935   1.979   .     S
