data_str_m3_o1_o17_pcu_sym.9
_audit_creation_date              2020-01-03
_audit_creation_method            'Materials Studio'
_symmetry_space_group_name_H-M    'P1'
_symmetry_Int_Tables_number       1
_symmetry_cell_setting            triclinic
loop_
_symmetry_equiv_pos_as_xyz
  x,y,z
_cell_length_a                    32.2046
_cell_length_b                    29.5328
_cell_length_c                    29.6374
_cell_angle_alpha                 89.9460
_cell_angle_beta                  90.1833
_cell_angle_gamma                 89.9854
loop_
_atom_site_label
_atom_site_type_symbol
_atom_site_fract_x
_atom_site_fract_y
_atom_site_fract_z
_atom_site_U_iso_or_equiv
_atom_site_adp_type
_atom_site_occupancy
C1     C     0.08662   0.16667   0.24998   0.00000  Uiso   1.00
C2     C     0.04247   0.16668   0.25001   0.00000  Uiso   1.00
C3     C     0.19335   0.02394   0.27713   0.00000  Uiso   1.00
C4     C     0.13999   0.30938   0.22287   0.00000  Uiso   1.00
C5     C     0.13998   0.02401   0.22287   0.00000  Uiso   1.00
C6     C     0.19335   0.30932   0.27713   0.00000  Uiso   1.00
C7     C     0.16651   0.16678   0.16344   0.00000  Uiso   1.00
C8     C     0.16683   0.16674   0.33656   0.00000  Uiso   1.00
C9     C     0.20502   0.17419   0.40673   0.00000  Uiso   1.00
C10    C     0.12832   0.17414   0.09323   0.00000  Uiso   1.00
C11    C     0.16703   0.16827   0.38466   0.00000  Uiso   1.00
C12    C     0.24671   0.16666   0.25006   0.00000  Uiso   1.00
C13    C     0.16632   0.16836   0.11533   0.00000  Uiso   1.00
C14    C     0.12901   0.17284   0.40667   0.00000  Uiso   1.00
C15    C     0.20434   0.17298   0.09332   0.00000  Uiso   1.00
C16    C     0.12855   0.18485   0.45248   0.00000  Uiso   1.00
C17    C     0.20479   0.18494   0.04748   0.00000  Uiso   1.00
C18    C     0.16679   0.18519   0.47638   0.00000  Uiso   1.00
C19    C     0.16655   0.18520   0.02357   0.00000  Uiso   1.00
C20    C     0.20527   0.18340   0.45326   0.00000  Uiso   1.00
C21    C     0.12806   0.18337   0.04669   0.00000  Uiso   1.00
C22    C     0.09150   0.19701   0.47544   0.00000  Uiso   1.00
C23    C     0.09089   0.19298   0.02292   0.00000  Uiso   1.00
C24    C     0.24182   0.19710   0.02448   0.00000  Uiso   1.00
C25    C     0.05445   0.21821   0.45070   0.00000  Uiso   1.00
C26    C     0.06672   0.26136   0.42543   0.00000  Uiso   1.00
C27    C     0.27884   0.21837   0.04915   0.00000  Uiso   1.00
C28    C     0.26652   0.26157   0.07423   0.00000  Uiso   1.00
C29    C     0.24244   0.19304   0.47701   0.00000  Uiso   1.00
C30    C     0.02128   0.12753   0.23696   0.00000  Uiso   1.00
C31    C     0.31205   0.20581   0.26316   0.00000  Uiso   1.00
C32    C     0.31199   0.12752   0.23700   0.00000  Uiso   1.00
C33    C     0.02134   0.20582   0.26312   0.00000  Uiso   1.00
C34    C     0.29086   0.16666   0.25008   0.00000  Uiso   1.00
H35    H     0.03754   0.09724   0.22638   0.00000  Uiso   1.00
H36    H     0.24428   0.19389   0.35665   0.00000  Uiso   1.00
H37    H     0.08994   0.13691   0.13314   0.00000  Uiso   1.00
H38    H     0.08896   0.19358   0.14327   0.00000  Uiso   1.00
H39    H     0.09335   0.12855   0.37128   0.00000  Uiso   1.00
H40    H     0.08782   0.18346   0.35540   0.00000  Uiso   1.00
H41    H     0.24007   0.12876   0.12884   0.00000  Uiso   1.00
H42    H     0.24550   0.18369   0.14458   0.00000  Uiso   1.00
H43    H     0.07999   0.28642   0.44940   0.00000  Uiso   1.00
H44    H     0.08983   0.25442   0.39870   0.00000  Uiso   1.00
H45    H     0.03877   0.27642   0.40928   0.00000  Uiso   1.00
H46    H     0.29579   0.23610   0.27374   0.00000  Uiso   1.00
H47    H     0.03891   0.19382   0.42798   0.00000  Uiso   1.00
H48    H     0.02962   0.22867   0.47397   0.00000  Uiso   1.00
H49    H     0.25330   0.28659   0.05012   0.00000  Uiso   1.00
H50    H     0.24333   0.25469   0.10092   0.00000  Uiso   1.00
H51    H     0.29442   0.27665   0.09040   0.00000  Uiso   1.00
H52    H     0.29439   0.19405   0.07198   0.00000  Uiso   1.00
H53    H     0.30368   0.22879   0.02587   0.00000  Uiso   1.00
H54    H     0.04409   0.23336   0.04560   0.00000  Uiso   1.00
H55    H     0.03004   0.17825   0.03373   0.00000  Uiso   1.00
H56    H     0.28924   0.23339   0.45422   0.00000  Uiso   1.00
H57    H     0.29568   0.09722   0.22646   0.00000  Uiso   1.00
H58    H     0.30329   0.17828   0.46627   0.00000  Uiso   1.00
H59    H     0.03766   0.23611   0.27369   0.00000  Uiso   1.00
H60    H     0.21468   0.04209   0.29882   0.00000  Uiso   1.00
H61    H     0.11866   0.29124   0.20117   0.00000  Uiso   1.00
H62    H     0.11864   0.04221   0.20119   0.00000  Uiso   1.00
H63    H     0.21468   0.29111   0.29882   0.00000  Uiso   1.00
H64    H     0.24352   0.13719   0.36679   0.00000  Uiso   1.00
N65    N     0.16667   0.28573   0.25000   0.00000  Uiso   1.00
N66    N     0.16667   0.04760   0.25000   0.00000  Uiso   1.00
N67    N     0.24308   0.16917   0.38190   0.00000  Uiso   1.00
N68    N     0.09026   0.16892   0.11803   0.00000  Uiso   1.00
N69    N     0.09128   0.16182   0.38309   0.00000  Uiso   1.00
N70    N     0.24208   0.16203   0.11694   0.00000  Uiso   1.00
N71    N     0.05293   0.19936   0.04731   0.00000  Uiso   1.00
N72    N     0.28041   0.19938   0.45261   0.00000  Uiso   1.00
O73    O     0.10559   0.20487   0.25000   0.00000  Uiso   1.00
O74    O     0.22774   0.12846   0.25001   0.00000  Uiso   1.00
O75    O     0.22774   0.20487   0.25001   0.00000  Uiso   1.00
O76    O     0.10559   0.12846   0.25000   0.00000  Uiso   1.00
O77    O     0.16666   0.20489   0.18393   0.00000  Uiso   1.00
O78    O     0.16667   0.12844   0.31608   0.00000  Uiso   1.00
O79    O     0.16667   0.20489   0.31608   0.00000  Uiso   1.00
O80    O     0.16666   0.12844   0.18393   0.00000  Uiso   1.00
Zn81   Zn    0.16667   0.21771   0.25000   0.00000  Uiso   1.00
Zn82   Zn    0.16667   0.11563   0.25000   0.00000  Uiso   1.00
C83    C     0.41996   0.16667   0.24998   0.00000  Uiso   1.00
C84    C     0.37581   0.16668   0.25001   0.00000  Uiso   1.00
C85    C     0.52668   0.02394   0.27713   0.00000  Uiso   1.00
C86    C     0.47332   0.30938   0.22287   0.00000  Uiso   1.00
C87    C     0.47331   0.02401   0.22287   0.00000  Uiso   1.00
C88    C     0.52668   0.30932   0.27713   0.00000  Uiso   1.00
C89    C     0.49984   0.16678   0.16344   0.00000  Uiso   1.00
C90    C     0.50016   0.16674   0.33656   0.00000  Uiso   1.00
C91    C     0.53836   0.17419   0.40673   0.00000  Uiso   1.00
C92    C     0.46165   0.17414   0.09323   0.00000  Uiso   1.00
C93    C     0.50036   0.16827   0.38466   0.00000  Uiso   1.00
C94    C     0.58004   0.16666   0.25006   0.00000  Uiso   1.00
C95    C     0.49965   0.16836   0.11533   0.00000  Uiso   1.00
C96    C     0.46234   0.17284   0.40667   0.00000  Uiso   1.00
C97    C     0.53767   0.17298   0.09332   0.00000  Uiso   1.00
C98    C     0.46188   0.18485   0.45248   0.00000  Uiso   1.00
C99    C     0.53812   0.18494   0.04748   0.00000  Uiso   1.00
C100   C     0.50013   0.18519   0.47638   0.00000  Uiso   1.00
C101   C     0.49988   0.18520   0.02357   0.00000  Uiso   1.00
C102   C     0.53861   0.18340   0.45326   0.00000  Uiso   1.00
C103   C     0.46140   0.18337   0.04669   0.00000  Uiso   1.00
C104   C     0.42483   0.19701   0.47544   0.00000  Uiso   1.00
C105   C     0.42422   0.19298   0.02292   0.00000  Uiso   1.00
C106   C     0.57516   0.19710   0.02448   0.00000  Uiso   1.00
C107   C     0.38778   0.21821   0.45070   0.00000  Uiso   1.00
C108   C     0.40005   0.26136   0.42543   0.00000  Uiso   1.00
C109   C     0.61218   0.21837   0.04915   0.00000  Uiso   1.00
C110   C     0.59985   0.26157   0.07423   0.00000  Uiso   1.00
C111   C     0.57577   0.19304   0.47701   0.00000  Uiso   1.00
C112   C     0.35461   0.12753   0.23696   0.00000  Uiso   1.00
C113   C     0.64539   0.20581   0.26316   0.00000  Uiso   1.00
C114   C     0.64533   0.12752   0.23700   0.00000  Uiso   1.00
C115   C     0.35468   0.20582   0.26312   0.00000  Uiso   1.00
C116   C     0.62419   0.16666   0.25008   0.00000  Uiso   1.00
H117   H     0.37087   0.09724   0.22638   0.00000  Uiso   1.00
H118   H     0.57761   0.19389   0.35665   0.00000  Uiso   1.00
H119   H     0.42327   0.13691   0.13314   0.00000  Uiso   1.00
H120   H     0.42229   0.19358   0.14327   0.00000  Uiso   1.00
H121   H     0.42668   0.12855   0.37128   0.00000  Uiso   1.00
H122   H     0.42115   0.18346   0.35540   0.00000  Uiso   1.00
H123   H     0.57341   0.12876   0.12884   0.00000  Uiso   1.00
H124   H     0.57883   0.18369   0.14458   0.00000  Uiso   1.00
H125   H     0.41332   0.28642   0.44940   0.00000  Uiso   1.00
H126   H     0.42317   0.25442   0.39870   0.00000  Uiso   1.00
H127   H     0.37211   0.27642   0.40928   0.00000  Uiso   1.00
H128   H     0.62912   0.23610   0.27374   0.00000  Uiso   1.00
H129   H     0.37224   0.19382   0.42798   0.00000  Uiso   1.00
H130   H     0.36296   0.22867   0.47397   0.00000  Uiso   1.00
H131   H     0.58664   0.28659   0.05012   0.00000  Uiso   1.00
H132   H     0.57666   0.25469   0.10092   0.00000  Uiso   1.00
H133   H     0.62776   0.27665   0.09040   0.00000  Uiso   1.00
H134   H     0.62773   0.19405   0.07198   0.00000  Uiso   1.00
H135   H     0.63702   0.22879   0.02587   0.00000  Uiso   1.00
H136   H     0.37742   0.23336   0.04560   0.00000  Uiso   1.00
H137   H     0.36337   0.17825   0.03373   0.00000  Uiso   1.00
H138   H     0.62257   0.23339   0.45422   0.00000  Uiso   1.00
H139   H     0.62902   0.09722   0.22646   0.00000  Uiso   1.00
H140   H     0.63663   0.17828   0.46627   0.00000  Uiso   1.00
H141   H     0.37099   0.23611   0.27369   0.00000  Uiso   1.00
H142   H     0.54802   0.04209   0.29882   0.00000  Uiso   1.00
H143   H     0.45199   0.29124   0.20117   0.00000  Uiso   1.00
H144   H     0.45198   0.04221   0.20119   0.00000  Uiso   1.00
H145   H     0.54801   0.29111   0.29882   0.00000  Uiso   1.00
H146   H     0.57685   0.13719   0.36679   0.00000  Uiso   1.00
N147   N     0.50000   0.28573   0.25000   0.00000  Uiso   1.00
N148   N     0.50000   0.04760   0.25000   0.00000  Uiso   1.00
N149   N     0.57642   0.16917   0.38190   0.00000  Uiso   1.00
N150   N     0.42359   0.16892   0.11803   0.00000  Uiso   1.00
N151   N     0.42462   0.16182   0.38309   0.00000  Uiso   1.00
N152   N     0.57541   0.16203   0.11694   0.00000  Uiso   1.00
N153   N     0.38626   0.19936   0.04731   0.00000  Uiso   1.00
N154   N     0.61374   0.19938   0.45261   0.00000  Uiso   1.00
O155   O     0.43892   0.20487   0.25000   0.00000  Uiso   1.00
O156   O     0.56108   0.12846   0.25001   0.00000  Uiso   1.00
O157   O     0.56108   0.20487   0.25001   0.00000  Uiso   1.00
O158   O     0.43892   0.12846   0.25000   0.00000  Uiso   1.00
O159   O     0.49999   0.20489   0.18393   0.00000  Uiso   1.00
O160   O     0.50001   0.12844   0.31608   0.00000  Uiso   1.00
O161   O     0.50001   0.20489   0.31608   0.00000  Uiso   1.00
O162   O     0.49999   0.12844   0.18393   0.00000  Uiso   1.00
Zn163  Zn    0.50000   0.21771   0.25000   0.00000  Uiso   1.00
Zn164  Zn    0.50000   0.11563   0.25000   0.00000  Uiso   1.00
C165   C     0.75329   0.16667   0.24998   0.00000  Uiso   1.00
C166   C     0.70914   0.16668   0.25001   0.00000  Uiso   1.00
C167   C     0.86002   0.02394   0.27713   0.00000  Uiso   1.00
C168   C     0.80665   0.30938   0.22287   0.00000  Uiso   1.00
C169   C     0.80665   0.02401   0.22287   0.00000  Uiso   1.00
C170   C     0.86001   0.30932   0.27713   0.00000  Uiso   1.00
C171   C     0.83318   0.16678   0.16344   0.00000  Uiso   1.00
C172   C     0.83349   0.16674   0.33656   0.00000  Uiso   1.00
C173   C     0.87169   0.17419   0.40673   0.00000  Uiso   1.00
C174   C     0.79499   0.17414   0.09323   0.00000  Uiso   1.00
C175   C     0.83370   0.16827   0.38466   0.00000  Uiso   1.00
C176   C     0.91338   0.16666   0.25006   0.00000  Uiso   1.00
C177   C     0.83299   0.16836   0.11533   0.00000  Uiso   1.00
C178   C     0.79568   0.17284   0.40667   0.00000  Uiso   1.00
C179   C     0.87101   0.17298   0.09332   0.00000  Uiso   1.00
C180   C     0.79521   0.18485   0.45248   0.00000  Uiso   1.00
C181   C     0.87146   0.18494   0.04748   0.00000  Uiso   1.00
C182   C     0.83346   0.18519   0.47638   0.00000  Uiso   1.00
C183   C     0.83321   0.18520   0.02357   0.00000  Uiso   1.00
C184   C     0.87194   0.18340   0.45326   0.00000  Uiso   1.00
C185   C     0.79473   0.18337   0.04669   0.00000  Uiso   1.00
C186   C     0.75817   0.19701   0.47544   0.00000  Uiso   1.00
C187   C     0.75756   0.19298   0.02292   0.00000  Uiso   1.00
C188   C     0.90849   0.19710   0.02448   0.00000  Uiso   1.00
C189   C     0.72112   0.21821   0.45070   0.00000  Uiso   1.00
C190   C     0.73338   0.26136   0.42543   0.00000  Uiso   1.00
C191   C     0.94551   0.21837   0.04915   0.00000  Uiso   1.00
C192   C     0.93318   0.26157   0.07423   0.00000  Uiso   1.00
C193   C     0.90911   0.19304   0.47701   0.00000  Uiso   1.00
C194   C     0.68794   0.12753   0.23696   0.00000  Uiso   1.00
C195   C     0.97872   0.20581   0.26316   0.00000  Uiso   1.00
C196   C     0.97866   0.12752   0.23700   0.00000  Uiso   1.00
C197   C     0.68801   0.20582   0.26312   0.00000  Uiso   1.00
C198   C     0.95753   0.16666   0.25008   0.00000  Uiso   1.00
H199   H     0.70421   0.09724   0.22638   0.00000  Uiso   1.00
H200   H     0.91094   0.19389   0.35665   0.00000  Uiso   1.00
H201   H     0.75661   0.13691   0.13314   0.00000  Uiso   1.00
H202   H     0.75562   0.19358   0.14327   0.00000  Uiso   1.00
H203   H     0.76001   0.12855   0.37128   0.00000  Uiso   1.00
H204   H     0.75448   0.18346   0.35540   0.00000  Uiso   1.00
H205   H     0.90674   0.12876   0.12884   0.00000  Uiso   1.00
H206   H     0.91216   0.18369   0.14458   0.00000  Uiso   1.00
H207   H     0.74666   0.28642   0.44940   0.00000  Uiso   1.00
H208   H     0.75650   0.25442   0.39870   0.00000  Uiso   1.00
H209   H     0.70544   0.27642   0.40928   0.00000  Uiso   1.00
H210   H     0.96245   0.23610   0.27374   0.00000  Uiso   1.00
H211   H     0.70558   0.19382   0.42798   0.00000  Uiso   1.00
H212   H     0.69629   0.22867   0.47397   0.00000  Uiso   1.00
H213   H     0.91997   0.28659   0.05012   0.00000  Uiso   1.00
H214   H     0.90999   0.25469   0.10092   0.00000  Uiso   1.00
H215   H     0.96109   0.27665   0.09040   0.00000  Uiso   1.00
H216   H     0.96106   0.19405   0.07198   0.00000  Uiso   1.00
H217   H     0.97035   0.22879   0.02587   0.00000  Uiso   1.00
H218   H     0.71076   0.23336   0.04560   0.00000  Uiso   1.00
H219   H     0.69671   0.17825   0.03373   0.00000  Uiso   1.00
H220   H     0.95590   0.23339   0.45422   0.00000  Uiso   1.00
H221   H     0.96235   0.09722   0.22646   0.00000  Uiso   1.00
H222   H     0.96996   0.17828   0.46627   0.00000  Uiso   1.00
H223   H     0.70433   0.23611   0.27369   0.00000  Uiso   1.00
H224   H     0.88135   0.04209   0.29882   0.00000  Uiso   1.00
H225   H     0.78533   0.29124   0.20117   0.00000  Uiso   1.00
H226   H     0.78531   0.04221   0.20119   0.00000  Uiso   1.00
H227   H     0.88135   0.29111   0.29882   0.00000  Uiso   1.00
H228   H     0.91018   0.13719   0.36679   0.00000  Uiso   1.00
N229   N     0.83333   0.28573   0.25000   0.00000  Uiso   1.00
N230   N     0.83333   0.04760   0.25000   0.00000  Uiso   1.00
N231   N     0.90975   0.16917   0.38190   0.00000  Uiso   1.00
N232   N     0.75693   0.16892   0.11803   0.00000  Uiso   1.00
N233   N     0.75795   0.16182   0.38309   0.00000  Uiso   1.00
N234   N     0.90875   0.16203   0.11694   0.00000  Uiso   1.00
N235   N     0.71960   0.19936   0.04731   0.00000  Uiso   1.00
N236   N     0.94707   0.19938   0.45261   0.00000  Uiso   1.00
O237   O     0.77226   0.20487   0.25000   0.00000  Uiso   1.00
O238   O     0.89441   0.12846   0.25001   0.00000  Uiso   1.00
O239   O     0.89441   0.20487   0.25001   0.00000  Uiso   1.00
O240   O     0.77226   0.12846   0.25000   0.00000  Uiso   1.00
O241   O     0.83333   0.20489   0.18393   0.00000  Uiso   1.00
O242   O     0.83334   0.12844   0.31608   0.00000  Uiso   1.00
O243   O     0.83334   0.20489   0.31608   0.00000  Uiso   1.00
O244   O     0.83333   0.12844   0.18393   0.00000  Uiso   1.00
Zn245  Zn    0.83333   0.21771   0.25000   0.00000  Uiso   1.00
Zn246  Zn    0.83333   0.11563   0.25000   0.00000  Uiso   1.00
C247   C     0.08662   0.50001   0.24998   0.00000  Uiso   1.00
C248   C     0.04247   0.50001   0.25001   0.00000  Uiso   1.00
C249   C     0.19335   0.35728   0.27713   0.00000  Uiso   1.00
C250   C     0.13999   0.64272   0.22287   0.00000  Uiso   1.00
C251   C     0.13998   0.35735   0.22287   0.00000  Uiso   1.00
C252   C     0.19335   0.64265   0.27713   0.00000  Uiso   1.00
C253   C     0.16651   0.50011   0.16344   0.00000  Uiso   1.00
C254   C     0.16683   0.50008   0.33656   0.00000  Uiso   1.00
C255   C     0.20502   0.50753   0.40673   0.00000  Uiso   1.00
C256   C     0.12832   0.50748   0.09323   0.00000  Uiso   1.00
C257   C     0.16703   0.50160   0.38466   0.00000  Uiso   1.00
C258   C     0.24671   0.50000   0.25006   0.00000  Uiso   1.00
C259   C     0.16632   0.50169   0.11533   0.00000  Uiso   1.00
C260   C     0.12901   0.50617   0.40667   0.00000  Uiso   1.00
C261   C     0.20434   0.50631   0.09332   0.00000  Uiso   1.00
C262   C     0.12855   0.51819   0.45248   0.00000  Uiso   1.00
C263   C     0.20479   0.51827   0.04748   0.00000  Uiso   1.00
C264   C     0.16679   0.51852   0.47638   0.00000  Uiso   1.00
C265   C     0.16655   0.51853   0.02357   0.00000  Uiso   1.00
C266   C     0.20527   0.51673   0.45326   0.00000  Uiso   1.00
C267   C     0.12806   0.51670   0.04669   0.00000  Uiso   1.00
C268   C     0.09150   0.53034   0.47544   0.00000  Uiso   1.00
C269   C     0.09089   0.52631   0.02292   0.00000  Uiso   1.00
C270   C     0.24182   0.53044   0.02448   0.00000  Uiso   1.00
C271   C     0.05445   0.55155   0.45070   0.00000  Uiso   1.00
C272   C     0.06672   0.59469   0.42543   0.00000  Uiso   1.00
C273   C     0.27884   0.55171   0.04915   0.00000  Uiso   1.00
C274   C     0.26652   0.59490   0.07423   0.00000  Uiso   1.00
C275   C     0.24244   0.52637   0.47701   0.00000  Uiso   1.00
C276   C     0.02128   0.46087   0.23696   0.00000  Uiso   1.00
C277   C     0.31205   0.53914   0.26316   0.00000  Uiso   1.00
C278   C     0.31199   0.46086   0.23700   0.00000  Uiso   1.00
C279   C     0.02134   0.53915   0.26312   0.00000  Uiso   1.00
C280   C     0.29086   0.49999   0.25008   0.00000  Uiso   1.00
H281   H     0.03754   0.43057   0.22638   0.00000  Uiso   1.00
H282   H     0.24428   0.52723   0.35665   0.00000  Uiso   1.00
H283   H     0.08994   0.47024   0.13314   0.00000  Uiso   1.00
H284   H     0.08896   0.52692   0.14327   0.00000  Uiso   1.00
H285   H     0.09335   0.46188   0.37128   0.00000  Uiso   1.00
H286   H     0.08782   0.51680   0.35540   0.00000  Uiso   1.00
H287   H     0.24007   0.46209   0.12884   0.00000  Uiso   1.00
H288   H     0.24550   0.51703   0.14458   0.00000  Uiso   1.00
H289   H     0.07999   0.61975   0.44940   0.00000  Uiso   1.00
H290   H     0.08983   0.58776   0.39870   0.00000  Uiso   1.00
H291   H     0.03877   0.60976   0.40928   0.00000  Uiso   1.00
H292   H     0.29579   0.56943   0.27374   0.00000  Uiso   1.00
H293   H     0.03891   0.52716   0.42798   0.00000  Uiso   1.00
H294   H     0.02962   0.56200   0.47397   0.00000  Uiso   1.00
H295   H     0.25330   0.61992   0.05012   0.00000  Uiso   1.00
H296   H     0.24333   0.58802   0.10092   0.00000  Uiso   1.00
H297   H     0.29442   0.60998   0.09040   0.00000  Uiso   1.00
H298   H     0.29439   0.52738   0.07198   0.00000  Uiso   1.00
H299   H     0.30368   0.56212   0.02587   0.00000  Uiso   1.00
H300   H     0.04409   0.56670   0.04560   0.00000  Uiso   1.00
H301   H     0.03004   0.51159   0.03373   0.00000  Uiso   1.00
H302   H     0.28924   0.56672   0.45422   0.00000  Uiso   1.00
H303   H     0.29568   0.43055   0.22646   0.00000  Uiso   1.00
H304   H     0.30329   0.51162   0.46627   0.00000  Uiso   1.00
H305   H     0.03766   0.56945   0.27369   0.00000  Uiso   1.00
H306   H     0.21468   0.37542   0.29882   0.00000  Uiso   1.00
H307   H     0.11866   0.62457   0.20117   0.00000  Uiso   1.00
H308   H     0.11864   0.37554   0.20119   0.00000  Uiso   1.00
H309   H     0.21468   0.62445   0.29882   0.00000  Uiso   1.00
H310   H     0.24352   0.47052   0.36679   0.00000  Uiso   1.00
N311   N     0.16667   0.61907   0.25000   0.00000  Uiso   1.00
N312   N     0.16667   0.38093   0.25000   0.00000  Uiso   1.00
N313   N     0.24308   0.50251   0.38190   0.00000  Uiso   1.00
N314   N     0.09026   0.50225   0.11803   0.00000  Uiso   1.00
N315   N     0.09128   0.49515   0.38309   0.00000  Uiso   1.00
N316   N     0.24208   0.49536   0.11694   0.00000  Uiso   1.00
N317   N     0.05293   0.53269   0.04731   0.00000  Uiso   1.00
N318   N     0.28041   0.53272   0.45261   0.00000  Uiso   1.00
O319   O     0.10559   0.53821   0.25000   0.00000  Uiso   1.00
O320   O     0.22774   0.46179   0.25001   0.00000  Uiso   1.00
O321   O     0.22774   0.53821   0.25001   0.00000  Uiso   1.00
O322   O     0.10559   0.46179   0.25000   0.00000  Uiso   1.00
O323   O     0.16666   0.53823   0.18393   0.00000  Uiso   1.00
O324   O     0.16667   0.46177   0.31608   0.00000  Uiso   1.00
O325   O     0.16667   0.53823   0.31608   0.00000  Uiso   1.00
O326   O     0.16666   0.46177   0.18393   0.00000  Uiso   1.00
Zn327  Zn    0.16667   0.55104   0.25000   0.00000  Uiso   1.00
Zn328  Zn    0.16667   0.44896   0.25000   0.00000  Uiso   1.00
C329   C     0.41996   0.50001   0.24998   0.00000  Uiso   1.00
C330   C     0.37581   0.50001   0.25001   0.00000  Uiso   1.00
C331   C     0.52668   0.35728   0.27713   0.00000  Uiso   1.00
C332   C     0.47332   0.64272   0.22287   0.00000  Uiso   1.00
C333   C     0.47331   0.35735   0.22287   0.00000  Uiso   1.00
C334   C     0.52668   0.64265   0.27713   0.00000  Uiso   1.00
C335   C     0.49984   0.50011   0.16344   0.00000  Uiso   1.00
C336   C     0.50016   0.50008   0.33656   0.00000  Uiso   1.00
C337   C     0.53836   0.50753   0.40673   0.00000  Uiso   1.00
C338   C     0.46165   0.50748   0.09323   0.00000  Uiso   1.00
C339   C     0.50036   0.50160   0.38466   0.00000  Uiso   1.00
C340   C     0.58004   0.50000   0.25006   0.00000  Uiso   1.00
C341   C     0.49965   0.50169   0.11533   0.00000  Uiso   1.00
C342   C     0.46234   0.50617   0.40667   0.00000  Uiso   1.00
C343   C     0.53767   0.50631   0.09332   0.00000  Uiso   1.00
C344   C     0.46188   0.51819   0.45248   0.00000  Uiso   1.00
C345   C     0.53812   0.51827   0.04748   0.00000  Uiso   1.00
C346   C     0.50013   0.51852   0.47638   0.00000  Uiso   1.00
C347   C     0.49988   0.51853   0.02357   0.00000  Uiso   1.00
C348   C     0.53861   0.51673   0.45326   0.00000  Uiso   1.00
C349   C     0.46140   0.51670   0.04669   0.00000  Uiso   1.00
C350   C     0.42483   0.53034   0.47544   0.00000  Uiso   1.00
C351   C     0.42422   0.52631   0.02292   0.00000  Uiso   1.00
C352   C     0.57516   0.53044   0.02448   0.00000  Uiso   1.00
C353   C     0.38778   0.55155   0.45070   0.00000  Uiso   1.00
C354   C     0.40005   0.59469   0.42543   0.00000  Uiso   1.00
C355   C     0.61218   0.55171   0.04915   0.00000  Uiso   1.00
C356   C     0.59985   0.59490   0.07423   0.00000  Uiso   1.00
C357   C     0.57577   0.52637   0.47701   0.00000  Uiso   1.00
C358   C     0.35461   0.46087   0.23696   0.00000  Uiso   1.00
C359   C     0.64539   0.53914   0.26316   0.00000  Uiso   1.00
C360   C     0.64533   0.46086   0.23700   0.00000  Uiso   1.00
C361   C     0.35468   0.53915   0.26312   0.00000  Uiso   1.00
C362   C     0.62419   0.49999   0.25008   0.00000  Uiso   1.00
H363   H     0.37087   0.43057   0.22638   0.00000  Uiso   1.00
H364   H     0.57761   0.52723   0.35665   0.00000  Uiso   1.00
H365   H     0.42327   0.47024   0.13314   0.00000  Uiso   1.00
H366   H     0.42229   0.52692   0.14327   0.00000  Uiso   1.00
H367   H     0.42668   0.46188   0.37128   0.00000  Uiso   1.00
H368   H     0.42115   0.51680   0.35540   0.00000  Uiso   1.00
H369   H     0.57341   0.46209   0.12884   0.00000  Uiso   1.00
H370   H     0.57883   0.51703   0.14458   0.00000  Uiso   1.00
H371   H     0.41332   0.61975   0.44940   0.00000  Uiso   1.00
H372   H     0.42317   0.58776   0.39870   0.00000  Uiso   1.00
H373   H     0.37211   0.60976   0.40928   0.00000  Uiso   1.00
H374   H     0.62912   0.56943   0.27374   0.00000  Uiso   1.00
H375   H     0.37224   0.52716   0.42798   0.00000  Uiso   1.00
H376   H     0.36296   0.56200   0.47397   0.00000  Uiso   1.00
H377   H     0.58664   0.61992   0.05012   0.00000  Uiso   1.00
H378   H     0.57666   0.58802   0.10092   0.00000  Uiso   1.00
H379   H     0.62776   0.60998   0.09040   0.00000  Uiso   1.00
H380   H     0.62773   0.52738   0.07198   0.00000  Uiso   1.00
H381   H     0.63702   0.56212   0.02587   0.00000  Uiso   1.00
H382   H     0.37742   0.56670   0.04560   0.00000  Uiso   1.00
H383   H     0.36337   0.51159   0.03373   0.00000  Uiso   1.00
H384   H     0.62257   0.56672   0.45422   0.00000  Uiso   1.00
H385   H     0.62902   0.43055   0.22646   0.00000  Uiso   1.00
H386   H     0.63663   0.51162   0.46627   0.00000  Uiso   1.00
H387   H     0.37099   0.56945   0.27369   0.00000  Uiso   1.00
H388   H     0.54802   0.37542   0.29882   0.00000  Uiso   1.00
H389   H     0.45199   0.62457   0.20117   0.00000  Uiso   1.00
H390   H     0.45198   0.37554   0.20119   0.00000  Uiso   1.00
H391   H     0.54801   0.62445   0.29882   0.00000  Uiso   1.00
H392   H     0.57685   0.47052   0.36679   0.00000  Uiso   1.00
N393   N     0.50000   0.61907   0.25000   0.00000  Uiso   1.00
N394   N     0.50000   0.38093   0.25000   0.00000  Uiso   1.00
N395   N     0.57642   0.50251   0.38190   0.00000  Uiso   1.00
N396   N     0.42359   0.50225   0.11803   0.00000  Uiso   1.00
N397   N     0.42462   0.49515   0.38309   0.00000  Uiso   1.00
N398   N     0.57541   0.49536   0.11694   0.00000  Uiso   1.00
N399   N     0.38626   0.53269   0.04731   0.00000  Uiso   1.00
N400   N     0.61374   0.53272   0.45261   0.00000  Uiso   1.00
O401   O     0.43892   0.53821   0.25000   0.00000  Uiso   1.00
O402   O     0.56108   0.46179   0.25001   0.00000  Uiso   1.00
O403   O     0.56108   0.53821   0.25001   0.00000  Uiso   1.00
O404   O     0.43892   0.46179   0.25000   0.00000  Uiso   1.00
O405   O     0.49999   0.53823   0.18393   0.00000  Uiso   1.00
O406   O     0.50001   0.46177   0.31608   0.00000  Uiso   1.00
O407   O     0.50001   0.53823   0.31608   0.00000  Uiso   1.00
O408   O     0.49999   0.46177   0.18393   0.00000  Uiso   1.00
Zn409  Zn    0.50000   0.55104   0.25000   0.00000  Uiso   1.00
Zn410  Zn    0.50000   0.44896   0.25000   0.00000  Uiso   1.00
C411   C     0.75329   0.50001   0.24998   0.00000  Uiso   1.00
C412   C     0.70914   0.50001   0.25001   0.00000  Uiso   1.00
C413   C     0.86002   0.35728   0.27713   0.00000  Uiso   1.00
C414   C     0.80665   0.64272   0.22287   0.00000  Uiso   1.00
C415   C     0.80665   0.35735   0.22287   0.00000  Uiso   1.00
C416   C     0.86001   0.64265   0.27713   0.00000  Uiso   1.00
C417   C     0.83318   0.50011   0.16344   0.00000  Uiso   1.00
C418   C     0.83349   0.50008   0.33656   0.00000  Uiso   1.00
C419   C     0.87169   0.50753   0.40673   0.00000  Uiso   1.00
C420   C     0.79499   0.50748   0.09323   0.00000  Uiso   1.00
C421   C     0.83370   0.50160   0.38466   0.00000  Uiso   1.00
C422   C     0.91338   0.50000   0.25006   0.00000  Uiso   1.00
C423   C     0.83299   0.50169   0.11533   0.00000  Uiso   1.00
C424   C     0.79568   0.50617   0.40667   0.00000  Uiso   1.00
C425   C     0.87101   0.50631   0.09332   0.00000  Uiso   1.00
C426   C     0.79521   0.51819   0.45248   0.00000  Uiso   1.00
C427   C     0.87146   0.51827   0.04748   0.00000  Uiso   1.00
C428   C     0.83346   0.51852   0.47638   0.00000  Uiso   1.00
C429   C     0.83321   0.51853   0.02357   0.00000  Uiso   1.00
C430   C     0.87194   0.51673   0.45326   0.00000  Uiso   1.00
C431   C     0.79473   0.51670   0.04669   0.00000  Uiso   1.00
C432   C     0.75817   0.53034   0.47544   0.00000  Uiso   1.00
C433   C     0.75756   0.52631   0.02292   0.00000  Uiso   1.00
C434   C     0.90849   0.53044   0.02448   0.00000  Uiso   1.00
C435   C     0.72112   0.55155   0.45070   0.00000  Uiso   1.00
C436   C     0.73338   0.59469   0.42543   0.00000  Uiso   1.00
C437   C     0.94551   0.55171   0.04915   0.00000  Uiso   1.00
C438   C     0.93318   0.59490   0.07423   0.00000  Uiso   1.00
C439   C     0.90911   0.52637   0.47701   0.00000  Uiso   1.00
C440   C     0.68794   0.46087   0.23696   0.00000  Uiso   1.00
C441   C     0.97872   0.53914   0.26316   0.00000  Uiso   1.00
C442   C     0.97866   0.46086   0.23700   0.00000  Uiso   1.00
C443   C     0.68801   0.53915   0.26312   0.00000  Uiso   1.00
C444   C     0.95753   0.49999   0.25008   0.00000  Uiso   1.00
H445   H     0.70421   0.43057   0.22638   0.00000  Uiso   1.00
H446   H     0.91094   0.52723   0.35665   0.00000  Uiso   1.00
H447   H     0.75661   0.47024   0.13314   0.00000  Uiso   1.00
H448   H     0.75562   0.52692   0.14327   0.00000  Uiso   1.00
H449   H     0.76001   0.46188   0.37128   0.00000  Uiso   1.00
H450   H     0.75448   0.51680   0.35540   0.00000  Uiso   1.00
H451   H     0.90674   0.46209   0.12884   0.00000  Uiso   1.00
H452   H     0.91216   0.51703   0.14458   0.00000  Uiso   1.00
H453   H     0.74666   0.61975   0.44940   0.00000  Uiso   1.00
H454   H     0.75650   0.58776   0.39870   0.00000  Uiso   1.00
H455   H     0.70544   0.60976   0.40928   0.00000  Uiso   1.00
H456   H     0.96245   0.56943   0.27374   0.00000  Uiso   1.00
H457   H     0.70558   0.52716   0.42798   0.00000  Uiso   1.00
H458   H     0.69629   0.56200   0.47397   0.00000  Uiso   1.00
H459   H     0.91997   0.61992   0.05012   0.00000  Uiso   1.00
H460   H     0.90999   0.58802   0.10092   0.00000  Uiso   1.00
H461   H     0.96109   0.60998   0.09040   0.00000  Uiso   1.00
H462   H     0.96106   0.52738   0.07198   0.00000  Uiso   1.00
H463   H     0.97035   0.56212   0.02587   0.00000  Uiso   1.00
H464   H     0.71076   0.56670   0.04560   0.00000  Uiso   1.00
H465   H     0.69671   0.51159   0.03373   0.00000  Uiso   1.00
H466   H     0.95590   0.56672   0.45422   0.00000  Uiso   1.00
H467   H     0.96235   0.43055   0.22646   0.00000  Uiso   1.00
H468   H     0.96996   0.51162   0.46627   0.00000  Uiso   1.00
H469   H     0.70433   0.56945   0.27369   0.00000  Uiso   1.00
H470   H     0.88135   0.37542   0.29882   0.00000  Uiso   1.00
H471   H     0.78533   0.62457   0.20117   0.00000  Uiso   1.00
H472   H     0.78531   0.37554   0.20119   0.00000  Uiso   1.00
H473   H     0.88135   0.62445   0.29882   0.00000  Uiso   1.00
H474   H     0.91018   0.47052   0.36679   0.00000  Uiso   1.00
N475   N     0.83333   0.61907   0.25000   0.00000  Uiso   1.00
N476   N     0.83333   0.38093   0.25000   0.00000  Uiso   1.00
N477   N     0.90975   0.50251   0.38190   0.00000  Uiso   1.00
N478   N     0.75693   0.50225   0.11803   0.00000  Uiso   1.00
N479   N     0.75795   0.49515   0.38309   0.00000  Uiso   1.00
N480   N     0.90875   0.49536   0.11694   0.00000  Uiso   1.00
N481   N     0.71960   0.53269   0.04731   0.00000  Uiso   1.00
N482   N     0.94707   0.53272   0.45261   0.00000  Uiso   1.00
O483   O     0.77226   0.53821   0.25000   0.00000  Uiso   1.00
O484   O     0.89441   0.46179   0.25001   0.00000  Uiso   1.00
O485   O     0.89441   0.53821   0.25001   0.00000  Uiso   1.00
O486   O     0.77226   0.46179   0.25000   0.00000  Uiso   1.00
O487   O     0.83333   0.53823   0.18393   0.00000  Uiso   1.00
O488   O     0.83334   0.46177   0.31608   0.00000  Uiso   1.00
O489   O     0.83334   0.53823   0.31608   0.00000  Uiso   1.00
O490   O     0.83333   0.46177   0.18393   0.00000  Uiso   1.00
Zn491  Zn    0.83333   0.55104   0.25000   0.00000  Uiso   1.00
Zn492  Zn    0.83333   0.44896   0.25000   0.00000  Uiso   1.00
C493   C     0.08662   0.83334   0.24998   0.00000  Uiso   1.00
C494   C     0.04247   0.83335   0.25001   0.00000  Uiso   1.00
C495   C     0.19335   0.69061   0.27713   0.00000  Uiso   1.00
C496   C     0.13999   0.97605   0.22287   0.00000  Uiso   1.00
C497   C     0.13998   0.69068   0.22287   0.00000  Uiso   1.00
C498   C     0.19335   0.97598   0.27713   0.00000  Uiso   1.00
C499   C     0.16651   0.83344   0.16344   0.00000  Uiso   1.00
C500   C     0.16683   0.83341   0.33656   0.00000  Uiso   1.00
C501   C     0.20502   0.84086   0.40673   0.00000  Uiso   1.00
C502   C     0.12832   0.84081   0.09323   0.00000  Uiso   1.00
C503   C     0.16703   0.83493   0.38466   0.00000  Uiso   1.00
C504   C     0.24671   0.83333   0.25006   0.00000  Uiso   1.00
C505   C     0.16632   0.83502   0.11533   0.00000  Uiso   1.00
C506   C     0.12901   0.83950   0.40667   0.00000  Uiso   1.00
C507   C     0.20434   0.83965   0.09332   0.00000  Uiso   1.00
C508   C     0.12855   0.85152   0.45248   0.00000  Uiso   1.00
C509   C     0.20479   0.85161   0.04748   0.00000  Uiso   1.00
C510   C     0.16679   0.85185   0.47638   0.00000  Uiso   1.00
C511   C     0.16655   0.85187   0.02357   0.00000  Uiso   1.00
C512   C     0.20527   0.85006   0.45326   0.00000  Uiso   1.00
C513   C     0.12806   0.85003   0.04669   0.00000  Uiso   1.00
C514   C     0.09150   0.86367   0.47544   0.00000  Uiso   1.00
C515   C     0.09089   0.85965   0.02292   0.00000  Uiso   1.00
C516   C     0.24182   0.86377   0.02448   0.00000  Uiso   1.00
C517   C     0.05445   0.88488   0.45070   0.00000  Uiso   1.00
C518   C     0.06672   0.92803   0.42543   0.00000  Uiso   1.00
C519   C     0.27884   0.88504   0.04915   0.00000  Uiso   1.00
C520   C     0.26652   0.92824   0.07423   0.00000  Uiso   1.00
C521   C     0.24244   0.85971   0.47701   0.00000  Uiso   1.00
C522   C     0.02128   0.79420   0.23696   0.00000  Uiso   1.00
C523   C     0.31205   0.87247   0.26316   0.00000  Uiso   1.00
C524   C     0.31199   0.79419   0.23700   0.00000  Uiso   1.00
C525   C     0.02134   0.87248   0.26312   0.00000  Uiso   1.00
C526   C     0.29086   0.83333   0.25008   0.00000  Uiso   1.00
H527   H     0.03754   0.76390   0.22638   0.00000  Uiso   1.00
H528   H     0.24428   0.86056   0.35665   0.00000  Uiso   1.00
H529   H     0.08994   0.80358   0.13314   0.00000  Uiso   1.00
H530   H     0.08896   0.86025   0.14327   0.00000  Uiso   1.00
H531   H     0.09335   0.79521   0.37128   0.00000  Uiso   1.00
H532   H     0.08782   0.85013   0.35540   0.00000  Uiso   1.00
H533   H     0.24007   0.79542   0.12884   0.00000  Uiso   1.00
H534   H     0.24550   0.85036   0.14458   0.00000  Uiso   1.00
H535   H     0.07999   0.95308   0.44940   0.00000  Uiso   1.00
H536   H     0.08983   0.92109   0.39870   0.00000  Uiso   1.00
H537   H     0.03877   0.94309   0.40928   0.00000  Uiso   1.00
H538   H     0.29579   0.90277   0.27374   0.00000  Uiso   1.00
H539   H     0.03891   0.86049   0.42798   0.00000  Uiso   1.00
H540   H     0.02962   0.89534   0.47397   0.00000  Uiso   1.00
H541   H     0.25330   0.95326   0.05012   0.00000  Uiso   1.00
H542   H     0.24333   0.92135   0.10092   0.00000  Uiso   1.00
H543   H     0.29442   0.94331   0.09040   0.00000  Uiso   1.00
H544   H     0.29439   0.86071   0.07198   0.00000  Uiso   1.00
H545   H     0.30368   0.89546   0.02587   0.00000  Uiso   1.00
H546   H     0.04409   0.90003   0.04560   0.00000  Uiso   1.00
H547   H     0.03004   0.84492   0.03373   0.00000  Uiso   1.00
H548   H     0.28924   0.90006   0.45422   0.00000  Uiso   1.00
H549   H     0.29568   0.76388   0.22646   0.00000  Uiso   1.00
H550   H     0.30329   0.84495   0.46627   0.00000  Uiso   1.00
H551   H     0.03766   0.90278   0.27369   0.00000  Uiso   1.00
H552   H     0.21468   0.70876   0.29882   0.00000  Uiso   1.00
H553   H     0.11866   0.95790   0.20117   0.00000  Uiso   1.00
H554   H     0.11864   0.70888   0.20119   0.00000  Uiso   1.00
H555   H     0.21468   0.95778   0.29882   0.00000  Uiso   1.00
H556   H     0.24352   0.80386   0.36679   0.00000  Uiso   1.00
N557   N     0.16667   0.95240   0.25000   0.00000  Uiso   1.00
N558   N     0.16667   0.71427   0.25000   0.00000  Uiso   1.00
N559   N     0.24308   0.83584   0.38190   0.00000  Uiso   1.00
N560   N     0.09026   0.83559   0.11803   0.00000  Uiso   1.00
N561   N     0.09128   0.82849   0.38309   0.00000  Uiso   1.00
N562   N     0.24208   0.82870   0.11694   0.00000  Uiso   1.00
N563   N     0.05293   0.86603   0.04731   0.00000  Uiso   1.00
N564   N     0.28041   0.86605   0.45261   0.00000  Uiso   1.00
O565   O     0.10559   0.87154   0.25000   0.00000  Uiso   1.00
O566   O     0.22774   0.79513   0.25001   0.00000  Uiso   1.00
O567   O     0.22774   0.87154   0.25001   0.00000  Uiso   1.00
O568   O     0.10559   0.79513   0.25000   0.00000  Uiso   1.00
O569   O     0.16666   0.87156   0.18393   0.00000  Uiso   1.00
O570   O     0.16667   0.79511   0.31608   0.00000  Uiso   1.00
O571   O     0.16667   0.87156   0.31608   0.00000  Uiso   1.00
O572   O     0.16666   0.79511   0.18393   0.00000  Uiso   1.00
Zn573  Zn    0.16667   0.88437   0.25000   0.00000  Uiso   1.00
Zn574  Zn    0.16667   0.78229   0.25000   0.00000  Uiso   1.00
C575   C     0.41996   0.83334   0.24998   0.00000  Uiso   1.00
C576   C     0.37581   0.83335   0.25001   0.00000  Uiso   1.00
C577   C     0.52668   0.69061   0.27713   0.00000  Uiso   1.00
C578   C     0.47332   0.97605   0.22287   0.00000  Uiso   1.00
C579   C     0.47331   0.69068   0.22287   0.00000  Uiso   1.00
C580   C     0.52668   0.97598   0.27713   0.00000  Uiso   1.00
C581   C     0.49984   0.83344   0.16344   0.00000  Uiso   1.00
C582   C     0.50016   0.83341   0.33656   0.00000  Uiso   1.00
C583   C     0.53836   0.84086   0.40673   0.00000  Uiso   1.00
C584   C     0.46165   0.84081   0.09323   0.00000  Uiso   1.00
C585   C     0.50036   0.83493   0.38466   0.00000  Uiso   1.00
C586   C     0.58004   0.83333   0.25006   0.00000  Uiso   1.00
C587   C     0.49965   0.83502   0.11533   0.00000  Uiso   1.00
C588   C     0.46234   0.83950   0.40667   0.00000  Uiso   1.00
C589   C     0.53767   0.83965   0.09332   0.00000  Uiso   1.00
C590   C     0.46188   0.85152   0.45248   0.00000  Uiso   1.00
C591   C     0.53812   0.85161   0.04748   0.00000  Uiso   1.00
C592   C     0.50013   0.85185   0.47638   0.00000  Uiso   1.00
C593   C     0.49988   0.85187   0.02357   0.00000  Uiso   1.00
C594   C     0.53861   0.85006   0.45326   0.00000  Uiso   1.00
C595   C     0.46140   0.85003   0.04669   0.00000  Uiso   1.00
C596   C     0.42483   0.86367   0.47544   0.00000  Uiso   1.00
C597   C     0.42422   0.85965   0.02292   0.00000  Uiso   1.00
C598   C     0.57516   0.86377   0.02448   0.00000  Uiso   1.00
C599   C     0.38778   0.88488   0.45070   0.00000  Uiso   1.00
C600   C     0.40005   0.92803   0.42543   0.00000  Uiso   1.00
C601   C     0.61218   0.88504   0.04915   0.00000  Uiso   1.00
C602   C     0.59985   0.92824   0.07423   0.00000  Uiso   1.00
C603   C     0.57577   0.85971   0.47701   0.00000  Uiso   1.00
C604   C     0.35461   0.79420   0.23696   0.00000  Uiso   1.00
C605   C     0.64539   0.87247   0.26316   0.00000  Uiso   1.00
C606   C     0.64533   0.79419   0.23700   0.00000  Uiso   1.00
C607   C     0.35468   0.87248   0.26312   0.00000  Uiso   1.00
C608   C     0.62419   0.83333   0.25008   0.00000  Uiso   1.00
H609   H     0.37087   0.76390   0.22638   0.00000  Uiso   1.00
H610   H     0.57761   0.86056   0.35665   0.00000  Uiso   1.00
H611   H     0.42327   0.80358   0.13314   0.00000  Uiso   1.00
H612   H     0.42229   0.86025   0.14327   0.00000  Uiso   1.00
H613   H     0.42668   0.79521   0.37128   0.00000  Uiso   1.00
H614   H     0.42115   0.85013   0.35540   0.00000  Uiso   1.00
H615   H     0.57341   0.79542   0.12884   0.00000  Uiso   1.00
H616   H     0.57883   0.85036   0.14458   0.00000  Uiso   1.00
H617   H     0.41332   0.95308   0.44940   0.00000  Uiso   1.00
H618   H     0.42317   0.92109   0.39870   0.00000  Uiso   1.00
H619   H     0.37211   0.94309   0.40928   0.00000  Uiso   1.00
H620   H     0.62912   0.90277   0.27374   0.00000  Uiso   1.00
H621   H     0.37224   0.86049   0.42798   0.00000  Uiso   1.00
H622   H     0.36296   0.89534   0.47397   0.00000  Uiso   1.00
H623   H     0.58664   0.95326   0.05012   0.00000  Uiso   1.00
H624   H     0.57666   0.92135   0.10092   0.00000  Uiso   1.00
H625   H     0.62776   0.94331   0.09040   0.00000  Uiso   1.00
H626   H     0.62773   0.86071   0.07198   0.00000  Uiso   1.00
H627   H     0.63702   0.89546   0.02587   0.00000  Uiso   1.00
H628   H     0.37742   0.90003   0.04560   0.00000  Uiso   1.00
H629   H     0.36337   0.84492   0.03373   0.00000  Uiso   1.00
H630   H     0.62257   0.90006   0.45422   0.00000  Uiso   1.00
H631   H     0.62902   0.76388   0.22646   0.00000  Uiso   1.00
H632   H     0.63663   0.84495   0.46627   0.00000  Uiso   1.00
H633   H     0.37099   0.90278   0.27369   0.00000  Uiso   1.00
H634   H     0.54802   0.70876   0.29882   0.00000  Uiso   1.00
H635   H     0.45199   0.95790   0.20117   0.00000  Uiso   1.00
H636   H     0.45198   0.70888   0.20119   0.00000  Uiso   1.00
H637   H     0.54801   0.95778   0.29882   0.00000  Uiso   1.00
H638   H     0.57685   0.80386   0.36679   0.00000  Uiso   1.00
N639   N     0.50000   0.95240   0.25000   0.00000  Uiso   1.00
N640   N     0.50000   0.71427   0.25000   0.00000  Uiso   1.00
N641   N     0.57642   0.83584   0.38190   0.00000  Uiso   1.00
N642   N     0.42359   0.83559   0.11803   0.00000  Uiso   1.00
N643   N     0.42462   0.82849   0.38309   0.00000  Uiso   1.00
N644   N     0.57541   0.82870   0.11694   0.00000  Uiso   1.00
N645   N     0.38626   0.86603   0.04731   0.00000  Uiso   1.00
N646   N     0.61374   0.86605   0.45261   0.00000  Uiso   1.00
O647   O     0.43892   0.87154   0.25000   0.00000  Uiso   1.00
O648   O     0.56108   0.79513   0.25001   0.00000  Uiso   1.00
O649   O     0.56108   0.87154   0.25001   0.00000  Uiso   1.00
O650   O     0.43892   0.79513   0.25000   0.00000  Uiso   1.00
O651   O     0.49999   0.87156   0.18393   0.00000  Uiso   1.00
O652   O     0.50001   0.79511   0.31608   0.00000  Uiso   1.00
O653   O     0.50001   0.87156   0.31608   0.00000  Uiso   1.00
O654   O     0.49999   0.79511   0.18393   0.00000  Uiso   1.00
Zn655  Zn    0.50000   0.88437   0.25000   0.00000  Uiso   1.00
Zn656  Zn    0.50000   0.78229   0.25000   0.00000  Uiso   1.00
C657   C     0.75329   0.83334   0.24998   0.00000  Uiso   1.00
C658   C     0.70914   0.83335   0.25001   0.00000  Uiso   1.00
C659   C     0.86002   0.69061   0.27713   0.00000  Uiso   1.00
C660   C     0.80665   0.97605   0.22287   0.00000  Uiso   1.00
C661   C     0.80665   0.69068   0.22287   0.00000  Uiso   1.00
C662   C     0.86001   0.97598   0.27713   0.00000  Uiso   1.00
C663   C     0.83318   0.83344   0.16344   0.00000  Uiso   1.00
C664   C     0.83349   0.83341   0.33656   0.00000  Uiso   1.00
C665   C     0.87169   0.84086   0.40673   0.00000  Uiso   1.00
C666   C     0.79499   0.84081   0.09323   0.00000  Uiso   1.00
C667   C     0.83370   0.83493   0.38466   0.00000  Uiso   1.00
C668   C     0.91338   0.83333   0.25006   0.00000  Uiso   1.00
C669   C     0.83299   0.83502   0.11533   0.00000  Uiso   1.00
C670   C     0.79568   0.83950   0.40667   0.00000  Uiso   1.00
C671   C     0.87101   0.83965   0.09332   0.00000  Uiso   1.00
C672   C     0.79521   0.85152   0.45248   0.00000  Uiso   1.00
C673   C     0.87146   0.85161   0.04748   0.00000  Uiso   1.00
C674   C     0.83346   0.85185   0.47638   0.00000  Uiso   1.00
C675   C     0.83321   0.85187   0.02357   0.00000  Uiso   1.00
C676   C     0.87194   0.85006   0.45326   0.00000  Uiso   1.00
C677   C     0.79473   0.85003   0.04669   0.00000  Uiso   1.00
C678   C     0.75817   0.86367   0.47544   0.00000  Uiso   1.00
C679   C     0.75756   0.85965   0.02292   0.00000  Uiso   1.00
C680   C     0.90849   0.86377   0.02448   0.00000  Uiso   1.00
C681   C     0.72112   0.88488   0.45070   0.00000  Uiso   1.00
C682   C     0.73338   0.92803   0.42543   0.00000  Uiso   1.00
C683   C     0.94551   0.88504   0.04915   0.00000  Uiso   1.00
C684   C     0.93318   0.92824   0.07423   0.00000  Uiso   1.00
C685   C     0.90911   0.85971   0.47701   0.00000  Uiso   1.00
C686   C     0.68794   0.79420   0.23696   0.00000  Uiso   1.00
C687   C     0.97872   0.87247   0.26316   0.00000  Uiso   1.00
C688   C     0.97866   0.79419   0.23700   0.00000  Uiso   1.00
C689   C     0.68801   0.87248   0.26312   0.00000  Uiso   1.00
C690   C     0.95753   0.83333   0.25008   0.00000  Uiso   1.00
H691   H     0.70421   0.76390   0.22638   0.00000  Uiso   1.00
H692   H     0.91094   0.86056   0.35665   0.00000  Uiso   1.00
H693   H     0.75661   0.80358   0.13314   0.00000  Uiso   1.00
H694   H     0.75562   0.86025   0.14327   0.00000  Uiso   1.00
H695   H     0.76001   0.79521   0.37128   0.00000  Uiso   1.00
H696   H     0.75448   0.85013   0.35540   0.00000  Uiso   1.00
H697   H     0.90674   0.79542   0.12884   0.00000  Uiso   1.00
H698   H     0.91216   0.85036   0.14458   0.00000  Uiso   1.00
H699   H     0.74666   0.95308   0.44940   0.00000  Uiso   1.00
H700   H     0.75650   0.92109   0.39870   0.00000  Uiso   1.00
H701   H     0.70544   0.94309   0.40928   0.00000  Uiso   1.00
H702   H     0.96245   0.90277   0.27374   0.00000  Uiso   1.00
H703   H     0.70558   0.86049   0.42798   0.00000  Uiso   1.00
H704   H     0.69629   0.89534   0.47397   0.00000  Uiso   1.00
H705   H     0.91997   0.95326   0.05012   0.00000  Uiso   1.00
H706   H     0.90999   0.92135   0.10092   0.00000  Uiso   1.00
H707   H     0.96109   0.94331   0.09040   0.00000  Uiso   1.00
H708   H     0.96106   0.86071   0.07198   0.00000  Uiso   1.00
H709   H     0.97035   0.89546   0.02587   0.00000  Uiso   1.00
H710   H     0.71076   0.90003   0.04560   0.00000  Uiso   1.00
H711   H     0.69671   0.84492   0.03373   0.00000  Uiso   1.00
H712   H     0.95590   0.90006   0.45422   0.00000  Uiso   1.00
H713   H     0.96235   0.76388   0.22646   0.00000  Uiso   1.00
H714   H     0.96996   0.84495   0.46627   0.00000  Uiso   1.00
H715   H     0.70433   0.90278   0.27369   0.00000  Uiso   1.00
H716   H     0.88135   0.70876   0.29882   0.00000  Uiso   1.00
H717   H     0.78533   0.95790   0.20117   0.00000  Uiso   1.00
H718   H     0.78531   0.70888   0.20119   0.00000  Uiso   1.00
H719   H     0.88135   0.95778   0.29882   0.00000  Uiso   1.00
H720   H     0.91018   0.80386   0.36679   0.00000  Uiso   1.00
N721   N     0.83333   0.95240   0.25000   0.00000  Uiso   1.00
N722   N     0.83333   0.71427   0.25000   0.00000  Uiso   1.00
N723   N     0.90975   0.83584   0.38190   0.00000  Uiso   1.00
N724   N     0.75693   0.83559   0.11803   0.00000  Uiso   1.00
N725   N     0.75795   0.82849   0.38309   0.00000  Uiso   1.00
N726   N     0.90875   0.82870   0.11694   0.00000  Uiso   1.00
N727   N     0.71960   0.86603   0.04731   0.00000  Uiso   1.00
N728   N     0.94707   0.86605   0.45261   0.00000  Uiso   1.00
O729   O     0.77226   0.87154   0.25000   0.00000  Uiso   1.00
O730   O     0.89441   0.79513   0.25001   0.00000  Uiso   1.00
O731   O     0.89441   0.87154   0.25001   0.00000  Uiso   1.00
O732   O     0.77226   0.79513   0.25000   0.00000  Uiso   1.00
O733   O     0.83333   0.87156   0.18393   0.00000  Uiso   1.00
O734   O     0.83334   0.79511   0.31608   0.00000  Uiso   1.00
O735   O     0.83334   0.87156   0.31608   0.00000  Uiso   1.00
O736   O     0.83333   0.79511   0.18393   0.00000  Uiso   1.00
Zn737  Zn    0.83333   0.88437   0.25000   0.00000  Uiso   1.00
Zn738  Zn    0.83333   0.78229   0.25000   0.00000  Uiso   1.00
C739   C     0.08662   0.16667   0.74998   0.00000  Uiso   1.00
C740   C     0.04247   0.16668   0.75001   0.00000  Uiso   1.00
C741   C     0.19335   0.02394   0.77713   0.00000  Uiso   1.00
C742   C     0.13999   0.30938   0.72287   0.00000  Uiso   1.00
C743   C     0.13998   0.02401   0.72287   0.00000  Uiso   1.00
C744   C     0.19335   0.30932   0.77713   0.00000  Uiso   1.00
C745   C     0.16651   0.16678   0.66344   0.00000  Uiso   1.00
C746   C     0.16683   0.16674   0.83656   0.00000  Uiso   1.00
C747   C     0.20502   0.17419   0.90673   0.00000  Uiso   1.00
C748   C     0.12832   0.17414   0.59323   0.00000  Uiso   1.00
C749   C     0.16703   0.16827   0.88466   0.00000  Uiso   1.00
C750   C     0.24671   0.16666   0.75006   0.00000  Uiso   1.00
C751   C     0.16632   0.16836   0.61533   0.00000  Uiso   1.00
C752   C     0.12901   0.17284   0.90667   0.00000  Uiso   1.00
C753   C     0.20434   0.17298   0.59332   0.00000  Uiso   1.00
C754   C     0.12855   0.18485   0.95248   0.00000  Uiso   1.00
C755   C     0.20479   0.18494   0.54748   0.00000  Uiso   1.00
C756   C     0.16679   0.18519   0.97638   0.00000  Uiso   1.00
C757   C     0.16655   0.18520   0.52357   0.00000  Uiso   1.00
C758   C     0.20527   0.18340   0.95326   0.00000  Uiso   1.00
C759   C     0.12806   0.18337   0.54669   0.00000  Uiso   1.00
C760   C     0.09150   0.19701   0.97544   0.00000  Uiso   1.00
C761   C     0.09089   0.19298   0.52292   0.00000  Uiso   1.00
C762   C     0.24182   0.19710   0.52448   0.00000  Uiso   1.00
C763   C     0.05445   0.21821   0.95070   0.00000  Uiso   1.00
C764   C     0.06672   0.26136   0.92543   0.00000  Uiso   1.00
C765   C     0.27884   0.21837   0.54915   0.00000  Uiso   1.00
C766   C     0.26652   0.26157   0.57423   0.00000  Uiso   1.00
C767   C     0.24244   0.19304   0.97701   0.00000  Uiso   1.00
C768   C     0.02128   0.12753   0.73696   0.00000  Uiso   1.00
C769   C     0.31205   0.20581   0.76316   0.00000  Uiso   1.00
C770   C     0.31199   0.12752   0.73700   0.00000  Uiso   1.00
C771   C     0.02134   0.20582   0.76312   0.00000  Uiso   1.00
C772   C     0.29086   0.16666   0.75008   0.00000  Uiso   1.00
H773   H     0.03754   0.09724   0.72638   0.00000  Uiso   1.00
H774   H     0.24428   0.19389   0.85665   0.00000  Uiso   1.00
H775   H     0.08994   0.13691   0.63314   0.00000  Uiso   1.00
H776   H     0.08896   0.19358   0.64327   0.00000  Uiso   1.00
H777   H     0.09335   0.12855   0.87128   0.00000  Uiso   1.00
H778   H     0.08782   0.18346   0.85540   0.00000  Uiso   1.00
H779   H     0.24007   0.12876   0.62884   0.00000  Uiso   1.00
H780   H     0.24550   0.18369   0.64458   0.00000  Uiso   1.00
H781   H     0.07999   0.28642   0.94940   0.00000  Uiso   1.00
H782   H     0.08983   0.25442   0.89870   0.00000  Uiso   1.00
H783   H     0.03877   0.27642   0.90928   0.00000  Uiso   1.00
H784   H     0.29579   0.23610   0.77374   0.00000  Uiso   1.00
H785   H     0.03891   0.19382   0.92798   0.00000  Uiso   1.00
H786   H     0.02962   0.22867   0.97397   0.00000  Uiso   1.00
H787   H     0.25330   0.28659   0.55012   0.00000  Uiso   1.00
H788   H     0.24333   0.25469   0.60092   0.00000  Uiso   1.00
H789   H     0.29442   0.27665   0.59040   0.00000  Uiso   1.00
H790   H     0.29439   0.19405   0.57198   0.00000  Uiso   1.00
H791   H     0.30368   0.22879   0.52587   0.00000  Uiso   1.00
H792   H     0.04409   0.23336   0.54560   0.00000  Uiso   1.00
H793   H     0.03004   0.17825   0.53373   0.00000  Uiso   1.00
H794   H     0.28924   0.23339   0.95422   0.00000  Uiso   1.00
H795   H     0.29568   0.09722   0.72646   0.00000  Uiso   1.00
H796   H     0.30329   0.17828   0.96627   0.00000  Uiso   1.00
H797   H     0.03766   0.23611   0.77369   0.00000  Uiso   1.00
H798   H     0.21468   0.04209   0.79882   0.00000  Uiso   1.00
H799   H     0.11866   0.29124   0.70117   0.00000  Uiso   1.00
H800   H     0.11864   0.04221   0.70119   0.00000  Uiso   1.00
H801   H     0.21468   0.29111   0.79882   0.00000  Uiso   1.00
H802   H     0.24352   0.13719   0.86679   0.00000  Uiso   1.00
N803   N     0.16667   0.28573   0.75000   0.00000  Uiso   1.00
N804   N     0.16667   0.04760   0.75000   0.00000  Uiso   1.00
N805   N     0.24308   0.16917   0.88190   0.00000  Uiso   1.00
N806   N     0.09026   0.16892   0.61803   0.00000  Uiso   1.00
N807   N     0.09128   0.16182   0.88309   0.00000  Uiso   1.00
N808   N     0.24208   0.16203   0.61694   0.00000  Uiso   1.00
N809   N     0.05293   0.19936   0.54731   0.00000  Uiso   1.00
N810   N     0.28041   0.19938   0.95261   0.00000  Uiso   1.00
O811   O     0.10559   0.20487   0.75000   0.00000  Uiso   1.00
O812   O     0.22774   0.12846   0.75001   0.00000  Uiso   1.00
O813   O     0.22774   0.20487   0.75001   0.00000  Uiso   1.00
O814   O     0.10559   0.12846   0.75000   0.00000  Uiso   1.00
O815   O     0.16666   0.20489   0.68393   0.00000  Uiso   1.00
O816   O     0.16667   0.12844   0.81608   0.00000  Uiso   1.00
O817   O     0.16667   0.20489   0.81608   0.00000  Uiso   1.00
O818   O     0.16666   0.12844   0.68393   0.00000  Uiso   1.00
Zn819  Zn    0.16667   0.21771   0.75000   0.00000  Uiso   1.00
Zn820  Zn    0.16667   0.11563   0.75000   0.00000  Uiso   1.00
C821   C     0.41996   0.16667   0.74998   0.00000  Uiso   1.00
C822   C     0.37581   0.16668   0.75001   0.00000  Uiso   1.00
C823   C     0.52668   0.02394   0.77713   0.00000  Uiso   1.00
C824   C     0.47332   0.30938   0.72287   0.00000  Uiso   1.00
C825   C     0.47331   0.02401   0.72287   0.00000  Uiso   1.00
C826   C     0.52668   0.30932   0.77713   0.00000  Uiso   1.00
C827   C     0.49984   0.16678   0.66344   0.00000  Uiso   1.00
C828   C     0.50016   0.16674   0.83656   0.00000  Uiso   1.00
C829   C     0.53836   0.17419   0.90673   0.00000  Uiso   1.00
C830   C     0.46165   0.17414   0.59323   0.00000  Uiso   1.00
C831   C     0.50036   0.16827   0.88466   0.00000  Uiso   1.00
C832   C     0.58004   0.16666   0.75006   0.00000  Uiso   1.00
C833   C     0.49965   0.16836   0.61533   0.00000  Uiso   1.00
C834   C     0.46234   0.17284   0.90667   0.00000  Uiso   1.00
C835   C     0.53767   0.17298   0.59332   0.00000  Uiso   1.00
C836   C     0.46188   0.18485   0.95248   0.00000  Uiso   1.00
C837   C     0.53812   0.18494   0.54748   0.00000  Uiso   1.00
C838   C     0.50013   0.18519   0.97638   0.00000  Uiso   1.00
C839   C     0.49988   0.18520   0.52357   0.00000  Uiso   1.00
C840   C     0.53861   0.18340   0.95326   0.00000  Uiso   1.00
C841   C     0.46140   0.18337   0.54669   0.00000  Uiso   1.00
C842   C     0.42483   0.19701   0.97544   0.00000  Uiso   1.00
C843   C     0.42422   0.19298   0.52292   0.00000  Uiso   1.00
C844   C     0.57516   0.19710   0.52448   0.00000  Uiso   1.00
C845   C     0.38778   0.21821   0.95070   0.00000  Uiso   1.00
C846   C     0.40005   0.26136   0.92543   0.00000  Uiso   1.00
C847   C     0.61218   0.21837   0.54915   0.00000  Uiso   1.00
C848   C     0.59985   0.26157   0.57423   0.00000  Uiso   1.00
C849   C     0.57577   0.19304   0.97701   0.00000  Uiso   1.00
C850   C     0.35461   0.12753   0.73696   0.00000  Uiso   1.00
C851   C     0.64539   0.20581   0.76316   0.00000  Uiso   1.00
C852   C     0.64533   0.12752   0.73700   0.00000  Uiso   1.00
C853   C     0.35468   0.20582   0.76312   0.00000  Uiso   1.00
C854   C     0.62419   0.16666   0.75008   0.00000  Uiso   1.00
H855   H     0.37087   0.09724   0.72638   0.00000  Uiso   1.00
H856   H     0.57761   0.19389   0.85665   0.00000  Uiso   1.00
H857   H     0.42327   0.13691   0.63314   0.00000  Uiso   1.00
H858   H     0.42229   0.19358   0.64327   0.00000  Uiso   1.00
H859   H     0.42668   0.12855   0.87128   0.00000  Uiso   1.00
H860   H     0.42115   0.18346   0.85540   0.00000  Uiso   1.00
H861   H     0.57341   0.12876   0.62884   0.00000  Uiso   1.00
H862   H     0.57883   0.18369   0.64458   0.00000  Uiso   1.00
H863   H     0.41332   0.28642   0.94940   0.00000  Uiso   1.00
H864   H     0.42317   0.25442   0.89870   0.00000  Uiso   1.00
H865   H     0.37211   0.27642   0.90928   0.00000  Uiso   1.00
H866   H     0.62912   0.23610   0.77374   0.00000  Uiso   1.00
H867   H     0.37224   0.19382   0.92798   0.00000  Uiso   1.00
H868   H     0.36296   0.22867   0.97397   0.00000  Uiso   1.00
H869   H     0.58664   0.28659   0.55012   0.00000  Uiso   1.00
H870   H     0.57666   0.25469   0.60092   0.00000  Uiso   1.00
H871   H     0.62776   0.27665   0.59040   0.00000  Uiso   1.00
H872   H     0.62773   0.19405   0.57198   0.00000  Uiso   1.00
H873   H     0.63702   0.22879   0.52587   0.00000  Uiso   1.00
H874   H     0.37742   0.23336   0.54560   0.00000  Uiso   1.00
H875   H     0.36337   0.17825   0.53373   0.00000  Uiso   1.00
H876   H     0.62257   0.23339   0.95422   0.00000  Uiso   1.00
H877   H     0.62902   0.09722   0.72646   0.00000  Uiso   1.00
H878   H     0.63663   0.17828   0.96627   0.00000  Uiso   1.00
H879   H     0.37099   0.23611   0.77369   0.00000  Uiso   1.00
H880   H     0.54802   0.04209   0.79882   0.00000  Uiso   1.00
H881   H     0.45199   0.29124   0.70117   0.00000  Uiso   1.00
H882   H     0.45198   0.04221   0.70119   0.00000  Uiso   1.00
H883   H     0.54801   0.29111   0.79882   0.00000  Uiso   1.00
H884   H     0.57685   0.13719   0.86679   0.00000  Uiso   1.00
N885   N     0.50000   0.28573   0.75000   0.00000  Uiso   1.00
N886   N     0.50000   0.04760   0.75000   0.00000  Uiso   1.00
N887   N     0.57642   0.16917   0.88190   0.00000  Uiso   1.00
N888   N     0.42359   0.16892   0.61803   0.00000  Uiso   1.00
N889   N     0.42462   0.16182   0.88309   0.00000  Uiso   1.00
N890   N     0.57541   0.16203   0.61694   0.00000  Uiso   1.00
N891   N     0.38626   0.19936   0.54731   0.00000  Uiso   1.00
N892   N     0.61374   0.19938   0.95261   0.00000  Uiso   1.00
O893   O     0.43892   0.20487   0.75000   0.00000  Uiso   1.00
O894   O     0.56108   0.12846   0.75001   0.00000  Uiso   1.00
O895   O     0.56108   0.20487   0.75001   0.00000  Uiso   1.00
O896   O     0.43892   0.12846   0.75000   0.00000  Uiso   1.00
O897   O     0.49999   0.20489   0.68393   0.00000  Uiso   1.00
O898   O     0.50001   0.12844   0.81608   0.00000  Uiso   1.00
O899   O     0.50001   0.20489   0.81608   0.00000  Uiso   1.00
O900   O     0.49999   0.12844   0.68393   0.00000  Uiso   1.00
Zn901  Zn    0.50000   0.21771   0.75000   0.00000  Uiso   1.00
Zn902  Zn    0.50000   0.11563   0.75000   0.00000  Uiso   1.00
C903   C     0.75329   0.16667   0.74998   0.00000  Uiso   1.00
C904   C     0.70914   0.16668   0.75001   0.00000  Uiso   1.00
C905   C     0.86002   0.02394   0.77713   0.00000  Uiso   1.00
C906   C     0.80665   0.30938   0.72287   0.00000  Uiso   1.00
C907   C     0.80665   0.02401   0.72287   0.00000  Uiso   1.00
C908   C     0.86001   0.30932   0.77713   0.00000  Uiso   1.00
C909   C     0.83318   0.16678   0.66344   0.00000  Uiso   1.00
C910   C     0.83349   0.16674   0.83656   0.00000  Uiso   1.00
C911   C     0.87169   0.17419   0.90673   0.00000  Uiso   1.00
C912   C     0.79499   0.17414   0.59323   0.00000  Uiso   1.00
C913   C     0.83370   0.16827   0.88466   0.00000  Uiso   1.00
C914   C     0.91338   0.16666   0.75006   0.00000  Uiso   1.00
C915   C     0.83299   0.16836   0.61533   0.00000  Uiso   1.00
C916   C     0.79568   0.17284   0.90667   0.00000  Uiso   1.00
C917   C     0.87101   0.17298   0.59332   0.00000  Uiso   1.00
C918   C     0.79521   0.18485   0.95248   0.00000  Uiso   1.00
C919   C     0.87146   0.18494   0.54748   0.00000  Uiso   1.00
C920   C     0.83346   0.18519   0.97638   0.00000  Uiso   1.00
C921   C     0.83321   0.18520   0.52357   0.00000  Uiso   1.00
C922   C     0.87194   0.18340   0.95326   0.00000  Uiso   1.00
C923   C     0.79473   0.18337   0.54669   0.00000  Uiso   1.00
C924   C     0.75817   0.19701   0.97544   0.00000  Uiso   1.00
C925   C     0.75756   0.19298   0.52292   0.00000  Uiso   1.00
C926   C     0.90849   0.19710   0.52448   0.00000  Uiso   1.00
C927   C     0.72112   0.21821   0.95070   0.00000  Uiso   1.00
C928   C     0.73338   0.26136   0.92543   0.00000  Uiso   1.00
C929   C     0.94551   0.21837   0.54915   0.00000  Uiso   1.00
C930   C     0.93318   0.26157   0.57423   0.00000  Uiso   1.00
C931   C     0.90911   0.19304   0.97701   0.00000  Uiso   1.00
C932   C     0.68794   0.12753   0.73696   0.00000  Uiso   1.00
C933   C     0.97872   0.20581   0.76316   0.00000  Uiso   1.00
C934   C     0.97866   0.12752   0.73700   0.00000  Uiso   1.00
C935   C     0.68801   0.20582   0.76312   0.00000  Uiso   1.00
C936   C     0.95753   0.16666   0.75008   0.00000  Uiso   1.00
H937   H     0.70421   0.09724   0.72638   0.00000  Uiso   1.00
H938   H     0.91094   0.19389   0.85665   0.00000  Uiso   1.00
H939   H     0.75661   0.13691   0.63314   0.00000  Uiso   1.00
H940   H     0.75562   0.19358   0.64327   0.00000  Uiso   1.00
H941   H     0.76001   0.12855   0.87128   0.00000  Uiso   1.00
H942   H     0.75448   0.18346   0.85540   0.00000  Uiso   1.00
H943   H     0.90674   0.12876   0.62884   0.00000  Uiso   1.00
H944   H     0.91216   0.18369   0.64458   0.00000  Uiso   1.00
H945   H     0.74666   0.28642   0.94940   0.00000  Uiso   1.00
H946   H     0.75650   0.25442   0.89870   0.00000  Uiso   1.00
H947   H     0.70544   0.27642   0.90928   0.00000  Uiso   1.00
H948   H     0.96245   0.23610   0.77374   0.00000  Uiso   1.00
H949   H     0.70558   0.19382   0.92798   0.00000  Uiso   1.00
H950   H     0.69629   0.22867   0.97397   0.00000  Uiso   1.00
H951   H     0.91997   0.28659   0.55012   0.00000  Uiso   1.00
H952   H     0.90999   0.25469   0.60092   0.00000  Uiso   1.00
H953   H     0.96109   0.27665   0.59040   0.00000  Uiso   1.00
H954   H     0.96106   0.19405   0.57198   0.00000  Uiso   1.00
H955   H     0.97035   0.22879   0.52587   0.00000  Uiso   1.00
H956   H     0.71076   0.23336   0.54560   0.00000  Uiso   1.00
H957   H     0.69671   0.17825   0.53373   0.00000  Uiso   1.00
H958   H     0.95590   0.23339   0.95422   0.00000  Uiso   1.00
H959   H     0.96235   0.09722   0.72646   0.00000  Uiso   1.00
H960   H     0.96996   0.17828   0.96627   0.00000  Uiso   1.00
H961   H     0.70433   0.23611   0.77369   0.00000  Uiso   1.00
H962   H     0.88135   0.04209   0.79882   0.00000  Uiso   1.00
H963   H     0.78533   0.29124   0.70117   0.00000  Uiso   1.00
H964   H     0.78531   0.04221   0.70119   0.00000  Uiso   1.00
H965   H     0.88135   0.29111   0.79882   0.00000  Uiso   1.00
H966   H     0.91018   0.13719   0.86679   0.00000  Uiso   1.00
N967   N     0.83333   0.28573   0.75000   0.00000  Uiso   1.00
N968   N     0.83333   0.04760   0.75000   0.00000  Uiso   1.00
N969   N     0.90975   0.16917   0.88190   0.00000  Uiso   1.00
N970   N     0.75693   0.16892   0.61803   0.00000  Uiso   1.00
N971   N     0.75795   0.16182   0.88309   0.00000  Uiso   1.00
N972   N     0.90875   0.16203   0.61694   0.00000  Uiso   1.00
N973   N     0.71960   0.19936   0.54731   0.00000  Uiso   1.00
N974   N     0.94707   0.19938   0.95261   0.00000  Uiso   1.00
O975   O     0.77226   0.20487   0.75000   0.00000  Uiso   1.00
O976   O     0.89441   0.12846   0.75001   0.00000  Uiso   1.00
O977   O     0.89441   0.20487   0.75001   0.00000  Uiso   1.00
O978   O     0.77226   0.12846   0.75000   0.00000  Uiso   1.00
O979   O     0.83333   0.20489   0.68393   0.00000  Uiso   1.00
O980   O     0.83334   0.12844   0.81608   0.00000  Uiso   1.00
O981   O     0.83334   0.20489   0.81608   0.00000  Uiso   1.00
O982   O     0.83333   0.12844   0.68393   0.00000  Uiso   1.00
Zn983  Zn    0.83333   0.21771   0.75000   0.00000  Uiso   1.00
Zn984  Zn    0.83333   0.11563   0.75000   0.00000  Uiso   1.00
C985   C     0.08662   0.50001   0.74998   0.00000  Uiso   1.00
C986   C     0.04247   0.50001   0.75001   0.00000  Uiso   1.00
C987   C     0.19335   0.35728   0.77713   0.00000  Uiso   1.00
C988   C     0.13999   0.64272   0.72287   0.00000  Uiso   1.00
C989   C     0.13998   0.35735   0.72287   0.00000  Uiso   1.00
C990   C     0.19335   0.64265   0.77713   0.00000  Uiso   1.00
C991   C     0.16651   0.50011   0.66344   0.00000  Uiso   1.00
C992   C     0.16683   0.50008   0.83656   0.00000  Uiso   1.00
C993   C     0.20502   0.50753   0.90673   0.00000  Uiso   1.00
C994   C     0.12832   0.50748   0.59323   0.00000  Uiso   1.00
C995   C     0.16703   0.50160   0.88466   0.00000  Uiso   1.00
C996   C     0.24671   0.50000   0.75006   0.00000  Uiso   1.00
C997   C     0.16632   0.50169   0.61533   0.00000  Uiso   1.00
C998   C     0.12901   0.50617   0.90667   0.00000  Uiso   1.00
C999   C     0.20434   0.50631   0.59332   0.00000  Uiso   1.00
C1000  C     0.12855   0.51819   0.95248   0.00000  Uiso   1.00
C1001  C     0.20479   0.51827   0.54748   0.00000  Uiso   1.00
C1002  C     0.16679   0.51852   0.97638   0.00000  Uiso   1.00
C1003  C     0.16655   0.51853   0.52357   0.00000  Uiso   1.00
C1004  C     0.20527   0.51673   0.95326   0.00000  Uiso   1.00
C1005  C     0.12806   0.51670   0.54669   0.00000  Uiso   1.00
C1006  C     0.09150   0.53034   0.97544   0.00000  Uiso   1.00
C1007  C     0.09089   0.52631   0.52292   0.00000  Uiso   1.00
C1008  C     0.24182   0.53044   0.52448   0.00000  Uiso   1.00
C1009  C     0.05445   0.55155   0.95070   0.00000  Uiso   1.00
C1010  C     0.06672   0.59469   0.92543   0.00000  Uiso   1.00
C1011  C     0.27884   0.55171   0.54915   0.00000  Uiso   1.00
C1012  C     0.26652   0.59490   0.57423   0.00000  Uiso   1.00
C1013  C     0.24244   0.52637   0.97701   0.00000  Uiso   1.00
C1014  C     0.02128   0.46087   0.73696   0.00000  Uiso   1.00
C1015  C     0.31205   0.53914   0.76316   0.00000  Uiso   1.00
C1016  C     0.31199   0.46086   0.73700   0.00000  Uiso   1.00
C1017  C     0.02134   0.53915   0.76312   0.00000  Uiso   1.00
C1018  C     0.29086   0.49999   0.75008   0.00000  Uiso   1.00
H1019  H     0.03754   0.43057   0.72638   0.00000  Uiso   1.00
H1020  H     0.24428   0.52723   0.85665   0.00000  Uiso   1.00
H1021  H     0.08994   0.47024   0.63314   0.00000  Uiso   1.00
H1022  H     0.08896   0.52692   0.64327   0.00000  Uiso   1.00
H1023  H     0.09335   0.46188   0.87128   0.00000  Uiso   1.00
H1024  H     0.08782   0.51680   0.85540   0.00000  Uiso   1.00
H1025  H     0.24007   0.46209   0.62884   0.00000  Uiso   1.00
H1026  H     0.24550   0.51703   0.64458   0.00000  Uiso   1.00
H1027  H     0.07999   0.61975   0.94940   0.00000  Uiso   1.00
H1028  H     0.08983   0.58776   0.89870   0.00000  Uiso   1.00
H1029  H     0.03877   0.60976   0.90928   0.00000  Uiso   1.00
H1030  H     0.29579   0.56943   0.77374   0.00000  Uiso   1.00
H1031  H     0.03891   0.52716   0.92798   0.00000  Uiso   1.00
H1032  H     0.02962   0.56200   0.97397   0.00000  Uiso   1.00
H1033  H     0.25330   0.61992   0.55012   0.00000  Uiso   1.00
H1034  H     0.24333   0.58802   0.60092   0.00000  Uiso   1.00
H1035  H     0.29442   0.60998   0.59040   0.00000  Uiso   1.00
H1036  H     0.29439   0.52738   0.57198   0.00000  Uiso   1.00
H1037  H     0.30368   0.56212   0.52587   0.00000  Uiso   1.00
H1038  H     0.04409   0.56670   0.54560   0.00000  Uiso   1.00
H1039  H     0.03004   0.51159   0.53373   0.00000  Uiso   1.00
H1040  H     0.28924   0.56672   0.95422   0.00000  Uiso   1.00
H1041  H     0.29568   0.43055   0.72646   0.00000  Uiso   1.00
H1042  H     0.30329   0.51162   0.96627   0.00000  Uiso   1.00
H1043  H     0.03766   0.56945   0.77369   0.00000  Uiso   1.00
H1044  H     0.21468   0.37542   0.79882   0.00000  Uiso   1.00
H1045  H     0.11866   0.62457   0.70117   0.00000  Uiso   1.00
H1046  H     0.11864   0.37554   0.70119   0.00000  Uiso   1.00
H1047  H     0.21468   0.62445   0.79882   0.00000  Uiso   1.00
H1048  H     0.24352   0.47052   0.86679   0.00000  Uiso   1.00
N1049  N     0.16667   0.61907   0.75000   0.00000  Uiso   1.00
N1050  N     0.16667   0.38093   0.75000   0.00000  Uiso   1.00
N1051  N     0.24308   0.50251   0.88190   0.00000  Uiso   1.00
N1052  N     0.09026   0.50225   0.61803   0.00000  Uiso   1.00
N1053  N     0.09128   0.49515   0.88309   0.00000  Uiso   1.00
N1054  N     0.24208   0.49536   0.61694   0.00000  Uiso   1.00
N1055  N     0.05293   0.53269   0.54731   0.00000  Uiso   1.00
N1056  N     0.28041   0.53272   0.95261   0.00000  Uiso   1.00
O1057  O     0.10559   0.53821   0.75000   0.00000  Uiso   1.00
O1058  O     0.22774   0.46179   0.75001   0.00000  Uiso   1.00
O1059  O     0.22774   0.53821   0.75001   0.00000  Uiso   1.00
O1060  O     0.10559   0.46179   0.75000   0.00000  Uiso   1.00
O1061  O     0.16666   0.53823   0.68393   0.00000  Uiso   1.00
O1062  O     0.16667   0.46177   0.81608   0.00000  Uiso   1.00
O1063  O     0.16667   0.53823   0.81608   0.00000  Uiso   1.00
O1064  O     0.16666   0.46177   0.68393   0.00000  Uiso   1.00
Zn1065 Zn    0.16667   0.55104   0.75000   0.00000  Uiso   1.00
Zn1066 Zn    0.16667   0.44896   0.75000   0.00000  Uiso   1.00
C1067  C     0.41996   0.50001   0.74998   0.00000  Uiso   1.00
C1068  C     0.37581   0.50001   0.75001   0.00000  Uiso   1.00
C1069  C     0.52668   0.35728   0.77713   0.00000  Uiso   1.00
C1070  C     0.47332   0.64272   0.72287   0.00000  Uiso   1.00
C1071  C     0.47331   0.35735   0.72287   0.00000  Uiso   1.00
C1072  C     0.52668   0.64265   0.77713   0.00000  Uiso   1.00
C1073  C     0.49984   0.50011   0.66344   0.00000  Uiso   1.00
C1074  C     0.50016   0.50008   0.83656   0.00000  Uiso   1.00
C1075  C     0.53836   0.50753   0.90673   0.00000  Uiso   1.00
C1076  C     0.46165   0.50748   0.59323   0.00000  Uiso   1.00
C1077  C     0.50036   0.50160   0.88466   0.00000  Uiso   1.00
C1078  C     0.58004   0.50000   0.75006   0.00000  Uiso   1.00
C1079  C     0.49965   0.50169   0.61533   0.00000  Uiso   1.00
C1080  C     0.46234   0.50617   0.90667   0.00000  Uiso   1.00
C1081  C     0.53767   0.50631   0.59332   0.00000  Uiso   1.00
C1082  C     0.46188   0.51819   0.95248   0.00000  Uiso   1.00
C1083  C     0.53812   0.51827   0.54748   0.00000  Uiso   1.00
C1084  C     0.50013   0.51852   0.97638   0.00000  Uiso   1.00
C1085  C     0.49988   0.51853   0.52357   0.00000  Uiso   1.00
C1086  C     0.53861   0.51673   0.95326   0.00000  Uiso   1.00
C1087  C     0.46140   0.51670   0.54669   0.00000  Uiso   1.00
C1088  C     0.42483   0.53034   0.97544   0.00000  Uiso   1.00
C1089  C     0.42422   0.52631   0.52292   0.00000  Uiso   1.00
C1090  C     0.57516   0.53044   0.52448   0.00000  Uiso   1.00
C1091  C     0.38778   0.55155   0.95070   0.00000  Uiso   1.00
C1092  C     0.40005   0.59469   0.92543   0.00000  Uiso   1.00
C1093  C     0.61218   0.55171   0.54915   0.00000  Uiso   1.00
C1094  C     0.59985   0.59490   0.57423   0.00000  Uiso   1.00
C1095  C     0.57577   0.52637   0.97701   0.00000  Uiso   1.00
C1096  C     0.35461   0.46087   0.73696   0.00000  Uiso   1.00
C1097  C     0.64539   0.53914   0.76316   0.00000  Uiso   1.00
C1098  C     0.64533   0.46086   0.73700   0.00000  Uiso   1.00
C1099  C     0.35468   0.53915   0.76312   0.00000  Uiso   1.00
C1100  C     0.62419   0.49999   0.75008   0.00000  Uiso   1.00
H1101  H     0.37087   0.43057   0.72638   0.00000  Uiso   1.00
H1102  H     0.57761   0.52723   0.85665   0.00000  Uiso   1.00
H1103  H     0.42327   0.47024   0.63314   0.00000  Uiso   1.00
H1104  H     0.42229   0.52692   0.64327   0.00000  Uiso   1.00
H1105  H     0.42668   0.46188   0.87128   0.00000  Uiso   1.00
H1106  H     0.42115   0.51680   0.85540   0.00000  Uiso   1.00
H1107  H     0.57341   0.46209   0.62884   0.00000  Uiso   1.00
H1108  H     0.57883   0.51703   0.64458   0.00000  Uiso   1.00
H1109  H     0.41332   0.61975   0.94940   0.00000  Uiso   1.00
H1110  H     0.42317   0.58776   0.89870   0.00000  Uiso   1.00
H1111  H     0.37211   0.60976   0.90928   0.00000  Uiso   1.00
H1112  H     0.62912   0.56943   0.77374   0.00000  Uiso   1.00
H1113  H     0.37224   0.52716   0.92798   0.00000  Uiso   1.00
H1114  H     0.36296   0.56200   0.97397   0.00000  Uiso   1.00
H1115  H     0.58664   0.61992   0.55012   0.00000  Uiso   1.00
H1116  H     0.57666   0.58802   0.60092   0.00000  Uiso   1.00
H1117  H     0.62776   0.60998   0.59040   0.00000  Uiso   1.00
H1118  H     0.62773   0.52738   0.57198   0.00000  Uiso   1.00
H1119  H     0.63702   0.56212   0.52587   0.00000  Uiso   1.00
H1120  H     0.37742   0.56670   0.54560   0.00000  Uiso   1.00
H1121  H     0.36337   0.51159   0.53373   0.00000  Uiso   1.00
H1122  H     0.62257   0.56672   0.95422   0.00000  Uiso   1.00
H1123  H     0.62902   0.43055   0.72646   0.00000  Uiso   1.00
H1124  H     0.63663   0.51162   0.96627   0.00000  Uiso   1.00
H1125  H     0.37099   0.56945   0.77369   0.00000  Uiso   1.00
H1126  H     0.54802   0.37542   0.79882   0.00000  Uiso   1.00
H1127  H     0.45199   0.62457   0.70117   0.00000  Uiso   1.00
H1128  H     0.45198   0.37554   0.70119   0.00000  Uiso   1.00
H1129  H     0.54801   0.62445   0.79882   0.00000  Uiso   1.00
H1130  H     0.57685   0.47052   0.86679   0.00000  Uiso   1.00
N1131  N     0.50000   0.61907   0.75000   0.00000  Uiso   1.00
N1132  N     0.50000   0.38093   0.75000   0.00000  Uiso   1.00
N1133  N     0.57642   0.50251   0.88190   0.00000  Uiso   1.00
N1134  N     0.42359   0.50225   0.61803   0.00000  Uiso   1.00
N1135  N     0.42462   0.49515   0.88309   0.00000  Uiso   1.00
N1136  N     0.57541   0.49536   0.61694   0.00000  Uiso   1.00
N1137  N     0.38626   0.53269   0.54731   0.00000  Uiso   1.00
N1138  N     0.61374   0.53272   0.95261   0.00000  Uiso   1.00
O1139  O     0.43892   0.53821   0.75000   0.00000  Uiso   1.00
O1140  O     0.56108   0.46179   0.75001   0.00000  Uiso   1.00
O1141  O     0.56108   0.53821   0.75001   0.00000  Uiso   1.00
O1142  O     0.43892   0.46179   0.75000   0.00000  Uiso   1.00
O1143  O     0.49999   0.53823   0.68393   0.00000  Uiso   1.00
O1144  O     0.50001   0.46177   0.81608   0.00000  Uiso   1.00
O1145  O     0.50001   0.53823   0.81608   0.00000  Uiso   1.00
O1146  O     0.49999   0.46177   0.68393   0.00000  Uiso   1.00
Zn1147 Zn    0.50000   0.55104   0.75000   0.00000  Uiso   1.00
Zn1148 Zn    0.50000   0.44896   0.75000   0.00000  Uiso   1.00
C1149  C     0.75329   0.50001   0.74998   0.00000  Uiso   1.00
C1150  C     0.70914   0.50001   0.75001   0.00000  Uiso   1.00
C1151  C     0.86002   0.35728   0.77713   0.00000  Uiso   1.00
C1152  C     0.80665   0.64272   0.72287   0.00000  Uiso   1.00
C1153  C     0.80665   0.35735   0.72287   0.00000  Uiso   1.00
C1154  C     0.86001   0.64265   0.77713   0.00000  Uiso   1.00
C1155  C     0.83318   0.50011   0.66344   0.00000  Uiso   1.00
C1156  C     0.83349   0.50008   0.83656   0.00000  Uiso   1.00
C1157  C     0.87169   0.50753   0.90673   0.00000  Uiso   1.00
C1158  C     0.79499   0.50748   0.59323   0.00000  Uiso   1.00
C1159  C     0.83370   0.50160   0.88466   0.00000  Uiso   1.00
C1160  C     0.91338   0.50000   0.75006   0.00000  Uiso   1.00
C1161  C     0.83299   0.50169   0.61533   0.00000  Uiso   1.00
C1162  C     0.79568   0.50617   0.90667   0.00000  Uiso   1.00
C1163  C     0.87101   0.50631   0.59332   0.00000  Uiso   1.00
C1164  C     0.79521   0.51819   0.95248   0.00000  Uiso   1.00
C1165  C     0.87146   0.51827   0.54748   0.00000  Uiso   1.00
C1166  C     0.83346   0.51852   0.97638   0.00000  Uiso   1.00
C1167  C     0.83321   0.51853   0.52357   0.00000  Uiso   1.00
C1168  C     0.87194   0.51673   0.95326   0.00000  Uiso   1.00
C1169  C     0.79473   0.51670   0.54669   0.00000  Uiso   1.00
C1170  C     0.75817   0.53034   0.97544   0.00000  Uiso   1.00
C1171  C     0.75756   0.52631   0.52292   0.00000  Uiso   1.00
C1172  C     0.90849   0.53044   0.52448   0.00000  Uiso   1.00
C1173  C     0.72112   0.55155   0.95070   0.00000  Uiso   1.00
C1174  C     0.73338   0.59469   0.92543   0.00000  Uiso   1.00
C1175  C     0.94551   0.55171   0.54915   0.00000  Uiso   1.00
C1176  C     0.93318   0.59490   0.57423   0.00000  Uiso   1.00
C1177  C     0.90911   0.52637   0.97701   0.00000  Uiso   1.00
C1178  C     0.68794   0.46087   0.73696   0.00000  Uiso   1.00
C1179  C     0.97872   0.53914   0.76316   0.00000  Uiso   1.00
C1180  C     0.97866   0.46086   0.73700   0.00000  Uiso   1.00
C1181  C     0.68801   0.53915   0.76312   0.00000  Uiso   1.00
C1182  C     0.95753   0.49999   0.75008   0.00000  Uiso   1.00
H1183  H     0.70421   0.43057   0.72638   0.00000  Uiso   1.00
H1184  H     0.91094   0.52723   0.85665   0.00000  Uiso   1.00
H1185  H     0.75661   0.47024   0.63314   0.00000  Uiso   1.00
H1186  H     0.75562   0.52692   0.64327   0.00000  Uiso   1.00
H1187  H     0.76001   0.46188   0.87128   0.00000  Uiso   1.00
H1188  H     0.75448   0.51680   0.85540   0.00000  Uiso   1.00
H1189  H     0.90674   0.46209   0.62884   0.00000  Uiso   1.00
H1190  H     0.91216   0.51703   0.64458   0.00000  Uiso   1.00
H1191  H     0.74666   0.61975   0.94940   0.00000  Uiso   1.00
H1192  H     0.75650   0.58776   0.89870   0.00000  Uiso   1.00
H1193  H     0.70544   0.60976   0.90928   0.00000  Uiso   1.00
H1194  H     0.96245   0.56943   0.77374   0.00000  Uiso   1.00
H1195  H     0.70558   0.52716   0.92798   0.00000  Uiso   1.00
H1196  H     0.69629   0.56200   0.97397   0.00000  Uiso   1.00
H1197  H     0.91997   0.61992   0.55012   0.00000  Uiso   1.00
H1198  H     0.90999   0.58802   0.60092   0.00000  Uiso   1.00
H1199  H     0.96109   0.60998   0.59040   0.00000  Uiso   1.00
H1200  H     0.96106   0.52738   0.57198   0.00000  Uiso   1.00
H1201  H     0.97035   0.56212   0.52587   0.00000  Uiso   1.00
H1202  H     0.71076   0.56670   0.54560   0.00000  Uiso   1.00
H1203  H     0.69671   0.51159   0.53373   0.00000  Uiso   1.00
H1204  H     0.95590   0.56672   0.95422   0.00000  Uiso   1.00
H1205  H     0.96235   0.43055   0.72646   0.00000  Uiso   1.00
H1206  H     0.96996   0.51162   0.96627   0.00000  Uiso   1.00
H1207  H     0.70433   0.56945   0.77369   0.00000  Uiso   1.00
H1208  H     0.88135   0.37542   0.79882   0.00000  Uiso   1.00
H1209  H     0.78533   0.62457   0.70117   0.00000  Uiso   1.00
H1210  H     0.78531   0.37554   0.70119   0.00000  Uiso   1.00
H1211  H     0.88135   0.62445   0.79882   0.00000  Uiso   1.00
H1212  H     0.91018   0.47052   0.86679   0.00000  Uiso   1.00
N1213  N     0.83333   0.61907   0.75000   0.00000  Uiso   1.00
N1214  N     0.83333   0.38093   0.75000   0.00000  Uiso   1.00
N1215  N     0.90975   0.50251   0.88190   0.00000  Uiso   1.00
N1216  N     0.75693   0.50225   0.61803   0.00000  Uiso   1.00
N1217  N     0.75795   0.49515   0.88309   0.00000  Uiso   1.00
N1218  N     0.90875   0.49536   0.61694   0.00000  Uiso   1.00
N1219  N     0.71960   0.53269   0.54731   0.00000  Uiso   1.00
N1220  N     0.94707   0.53272   0.95261   0.00000  Uiso   1.00
O1221  O     0.77226   0.53821   0.75000   0.00000  Uiso   1.00
O1222  O     0.89441   0.46179   0.75001   0.00000  Uiso   1.00
O1223  O     0.89441   0.53821   0.75001   0.00000  Uiso   1.00
O1224  O     0.77226   0.46179   0.75000   0.00000  Uiso   1.00
O1225  O     0.83333   0.53823   0.68393   0.00000  Uiso   1.00
O1226  O     0.83334   0.46177   0.81608   0.00000  Uiso   1.00
O1227  O     0.83334   0.53823   0.81608   0.00000  Uiso   1.00
O1228  O     0.83333   0.46177   0.68393   0.00000  Uiso   1.00
Zn1229 Zn    0.83333   0.55104   0.75000   0.00000  Uiso   1.00
Zn1230 Zn    0.83333   0.44896   0.75000   0.00000  Uiso   1.00
C1231  C     0.08662   0.83334   0.74998   0.00000  Uiso   1.00
C1232  C     0.04247   0.83335   0.75001   0.00000  Uiso   1.00
C1233  C     0.19335   0.69061   0.77713   0.00000  Uiso   1.00
C1234  C     0.13999   0.97605   0.72287   0.00000  Uiso   1.00
C1235  C     0.13998   0.69068   0.72287   0.00000  Uiso   1.00
C1236  C     0.19335   0.97598   0.77713   0.00000  Uiso   1.00
C1237  C     0.16651   0.83344   0.66344   0.00000  Uiso   1.00
C1238  C     0.16683   0.83341   0.83656   0.00000  Uiso   1.00
C1239  C     0.20502   0.84086   0.90673   0.00000  Uiso   1.00
C1240  C     0.12832   0.84081   0.59323   0.00000  Uiso   1.00
C1241  C     0.16703   0.83493   0.88466   0.00000  Uiso   1.00
C1242  C     0.24671   0.83333   0.75006   0.00000  Uiso   1.00
C1243  C     0.16632   0.83502   0.61533   0.00000  Uiso   1.00
C1244  C     0.12901   0.83950   0.90667   0.00000  Uiso   1.00
C1245  C     0.20434   0.83965   0.59332   0.00000  Uiso   1.00
C1246  C     0.12855   0.85152   0.95248   0.00000  Uiso   1.00
C1247  C     0.20479   0.85161   0.54748   0.00000  Uiso   1.00
C1248  C     0.16679   0.85185   0.97638   0.00000  Uiso   1.00
C1249  C     0.16655   0.85187   0.52357   0.00000  Uiso   1.00
C1250  C     0.20527   0.85006   0.95326   0.00000  Uiso   1.00
C1251  C     0.12806   0.85003   0.54669   0.00000  Uiso   1.00
C1252  C     0.09150   0.86367   0.97544   0.00000  Uiso   1.00
C1253  C     0.09089   0.85965   0.52292   0.00000  Uiso   1.00
C1254  C     0.24182   0.86377   0.52448   0.00000  Uiso   1.00
C1255  C     0.05445   0.88488   0.95070   0.00000  Uiso   1.00
C1256  C     0.06672   0.92803   0.92543   0.00000  Uiso   1.00
C1257  C     0.27884   0.88504   0.54915   0.00000  Uiso   1.00
C1258  C     0.26652   0.92824   0.57423   0.00000  Uiso   1.00
C1259  C     0.24244   0.85971   0.97701   0.00000  Uiso   1.00
C1260  C     0.02128   0.79420   0.73696   0.00000  Uiso   1.00
C1261  C     0.31205   0.87247   0.76316   0.00000  Uiso   1.00
C1262  C     0.31199   0.79419   0.73700   0.00000  Uiso   1.00
C1263  C     0.02134   0.87248   0.76312   0.00000  Uiso   1.00
C1264  C     0.29086   0.83333   0.75008   0.00000  Uiso   1.00
H1265  H     0.03754   0.76390   0.72638   0.00000  Uiso   1.00
H1266  H     0.24428   0.86056   0.85665   0.00000  Uiso   1.00
H1267  H     0.08994   0.80358   0.63314   0.00000  Uiso   1.00
H1268  H     0.08896   0.86025   0.64327   0.00000  Uiso   1.00
H1269  H     0.09335   0.79521   0.87128   0.00000  Uiso   1.00
H1270  H     0.08782   0.85013   0.85540   0.00000  Uiso   1.00
H1271  H     0.24007   0.79542   0.62884   0.00000  Uiso   1.00
H1272  H     0.24550   0.85036   0.64458   0.00000  Uiso   1.00
H1273  H     0.07999   0.95308   0.94940   0.00000  Uiso   1.00
H1274  H     0.08983   0.92109   0.89870   0.00000  Uiso   1.00
H1275  H     0.03877   0.94309   0.90928   0.00000  Uiso   1.00
H1276  H     0.29579   0.90277   0.77374   0.00000  Uiso   1.00
H1277  H     0.03891   0.86049   0.92798   0.00000  Uiso   1.00
H1278  H     0.02962   0.89534   0.97397   0.00000  Uiso   1.00
H1279  H     0.25330   0.95326   0.55012   0.00000  Uiso   1.00
H1280  H     0.24333   0.92135   0.60092   0.00000  Uiso   1.00
H1281  H     0.29442   0.94331   0.59040   0.00000  Uiso   1.00
H1282  H     0.29439   0.86071   0.57198   0.00000  Uiso   1.00
H1283  H     0.30368   0.89546   0.52587   0.00000  Uiso   1.00
H1284  H     0.04409   0.90003   0.54560   0.00000  Uiso   1.00
H1285  H     0.03004   0.84492   0.53373   0.00000  Uiso   1.00
H1286  H     0.28924   0.90006   0.95422   0.00000  Uiso   1.00
H1287  H     0.29568   0.76388   0.72646   0.00000  Uiso   1.00
H1288  H     0.30329   0.84495   0.96627   0.00000  Uiso   1.00
H1289  H     0.03766   0.90278   0.77369   0.00000  Uiso   1.00
H1290  H     0.21468   0.70876   0.79882   0.00000  Uiso   1.00
H1291  H     0.11866   0.95790   0.70117   0.00000  Uiso   1.00
H1292  H     0.11864   0.70888   0.70119   0.00000  Uiso   1.00
H1293  H     0.21468   0.95778   0.79882   0.00000  Uiso   1.00
H1294  H     0.24352   0.80386   0.86679   0.00000  Uiso   1.00
N1295  N     0.16667   0.95240   0.75000   0.00000  Uiso   1.00
N1296  N     0.16667   0.71427   0.75000   0.00000  Uiso   1.00
N1297  N     0.24308   0.83584   0.88190   0.00000  Uiso   1.00
N1298  N     0.09026   0.83559   0.61803   0.00000  Uiso   1.00
N1299  N     0.09128   0.82849   0.88309   0.00000  Uiso   1.00
N1300  N     0.24208   0.82870   0.61694   0.00000  Uiso   1.00
N1301  N     0.05293   0.86603   0.54731   0.00000  Uiso   1.00
N1302  N     0.28041   0.86605   0.95261   0.00000  Uiso   1.00
O1303  O     0.10559   0.87154   0.75000   0.00000  Uiso   1.00
O1304  O     0.22774   0.79513   0.75001   0.00000  Uiso   1.00
O1305  O     0.22774   0.87154   0.75001   0.00000  Uiso   1.00
O1306  O     0.10559   0.79513   0.75000   0.00000  Uiso   1.00
O1307  O     0.16666   0.87156   0.68393   0.00000  Uiso   1.00
O1308  O     0.16667   0.79511   0.81608   0.00000  Uiso   1.00
O1309  O     0.16667   0.87156   0.81608   0.00000  Uiso   1.00
O1310  O     0.16666   0.79511   0.68393   0.00000  Uiso   1.00
Zn1311 Zn    0.16667   0.88437   0.75000   0.00000  Uiso   1.00
Zn1312 Zn    0.16667   0.78229   0.75000   0.00000  Uiso   1.00
C1313  C     0.41996   0.83334   0.74998   0.00000  Uiso   1.00
C1314  C     0.37581   0.83335   0.75001   0.00000  Uiso   1.00
C1315  C     0.52668   0.69061   0.77713   0.00000  Uiso   1.00
C1316  C     0.47332   0.97605   0.72287   0.00000  Uiso   1.00
C1317  C     0.47331   0.69068   0.72287   0.00000  Uiso   1.00
C1318  C     0.52668   0.97598   0.77713   0.00000  Uiso   1.00
C1319  C     0.49984   0.83344   0.66344   0.00000  Uiso   1.00
C1320  C     0.50016   0.83341   0.83656   0.00000  Uiso   1.00
C1321  C     0.53836   0.84086   0.90673   0.00000  Uiso   1.00
C1322  C     0.46165   0.84081   0.59323   0.00000  Uiso   1.00
C1323  C     0.50036   0.83493   0.88466   0.00000  Uiso   1.00
C1324  C     0.58004   0.83333   0.75006   0.00000  Uiso   1.00
C1325  C     0.49965   0.83502   0.61533   0.00000  Uiso   1.00
C1326  C     0.46234   0.83950   0.90667   0.00000  Uiso   1.00
C1327  C     0.53767   0.83965   0.59332   0.00000  Uiso   1.00
C1328  C     0.46188   0.85152   0.95248   0.00000  Uiso   1.00
C1329  C     0.53812   0.85161   0.54748   0.00000  Uiso   1.00
C1330  C     0.50013   0.85185   0.97638   0.00000  Uiso   1.00
C1331  C     0.49988   0.85187   0.52357   0.00000  Uiso   1.00
C1332  C     0.53861   0.85006   0.95326   0.00000  Uiso   1.00
C1333  C     0.46140   0.85003   0.54669   0.00000  Uiso   1.00
C1334  C     0.42483   0.86367   0.97544   0.00000  Uiso   1.00
C1335  C     0.42422   0.85965   0.52292   0.00000  Uiso   1.00
C1336  C     0.57516   0.86377   0.52448   0.00000  Uiso   1.00
C1337  C     0.38778   0.88488   0.95070   0.00000  Uiso   1.00
C1338  C     0.40005   0.92803   0.92543   0.00000  Uiso   1.00
C1339  C     0.61218   0.88504   0.54915   0.00000  Uiso   1.00
C1340  C     0.59985   0.92824   0.57423   0.00000  Uiso   1.00
C1341  C     0.57577   0.85971   0.97701   0.00000  Uiso   1.00
C1342  C     0.35461   0.79420   0.73696   0.00000  Uiso   1.00
C1343  C     0.64539   0.87247   0.76316   0.00000  Uiso   1.00
C1344  C     0.64533   0.79419   0.73700   0.00000  Uiso   1.00
C1345  C     0.35468   0.87248   0.76312   0.00000  Uiso   1.00
C1346  C     0.62419   0.83333   0.75008   0.00000  Uiso   1.00
H1347  H     0.37087   0.76390   0.72638   0.00000  Uiso   1.00
H1348  H     0.57761   0.86056   0.85665   0.00000  Uiso   1.00
H1349  H     0.42327   0.80358   0.63314   0.00000  Uiso   1.00
H1350  H     0.42229   0.86025   0.64327   0.00000  Uiso   1.00
H1351  H     0.42668   0.79521   0.87128   0.00000  Uiso   1.00
H1352  H     0.42115   0.85013   0.85540   0.00000  Uiso   1.00
H1353  H     0.57341   0.79542   0.62884   0.00000  Uiso   1.00
H1354  H     0.57883   0.85036   0.64458   0.00000  Uiso   1.00
H1355  H     0.41332   0.95308   0.94940   0.00000  Uiso   1.00
H1356  H     0.42317   0.92109   0.89870   0.00000  Uiso   1.00
H1357  H     0.37211   0.94309   0.90928   0.00000  Uiso   1.00
H1358  H     0.62912   0.90277   0.77374   0.00000  Uiso   1.00
H1359  H     0.37224   0.86049   0.92798   0.00000  Uiso   1.00
H1360  H     0.36296   0.89534   0.97397   0.00000  Uiso   1.00
H1361  H     0.58664   0.95326   0.55012   0.00000  Uiso   1.00
H1362  H     0.57666   0.92135   0.60092   0.00000  Uiso   1.00
H1363  H     0.62776   0.94331   0.59040   0.00000  Uiso   1.00
H1364  H     0.62773   0.86071   0.57198   0.00000  Uiso   1.00
H1365  H     0.63702   0.89546   0.52587   0.00000  Uiso   1.00
H1366  H     0.37742   0.90003   0.54560   0.00000  Uiso   1.00
H1367  H     0.36337   0.84492   0.53373   0.00000  Uiso   1.00
H1368  H     0.62257   0.90006   0.95422   0.00000  Uiso   1.00
H1369  H     0.62902   0.76388   0.72646   0.00000  Uiso   1.00
H1370  H     0.63663   0.84495   0.96627   0.00000  Uiso   1.00
H1371  H     0.37099   0.90278   0.77369   0.00000  Uiso   1.00
H1372  H     0.54802   0.70876   0.79882   0.00000  Uiso   1.00
H1373  H     0.45199   0.95790   0.70117   0.00000  Uiso   1.00
H1374  H     0.45198   0.70888   0.70119   0.00000  Uiso   1.00
H1375  H     0.54801   0.95778   0.79882   0.00000  Uiso   1.00
H1376  H     0.57685   0.80386   0.86679   0.00000  Uiso   1.00
N1377  N     0.50000   0.95240   0.75000   0.00000  Uiso   1.00
N1378  N     0.50000   0.71427   0.75000   0.00000  Uiso   1.00
N1379  N     0.57642   0.83584   0.88190   0.00000  Uiso   1.00
N1380  N     0.42359   0.83559   0.61803   0.00000  Uiso   1.00
N1381  N     0.42462   0.82849   0.88309   0.00000  Uiso   1.00
N1382  N     0.57541   0.82870   0.61694   0.00000  Uiso   1.00
N1383  N     0.38626   0.86603   0.54731   0.00000  Uiso   1.00
N1384  N     0.61374   0.86605   0.95261   0.00000  Uiso   1.00
O1385  O     0.43892   0.87154   0.75000   0.00000  Uiso   1.00
O1386  O     0.56108   0.79513   0.75001   0.00000  Uiso   1.00
O1387  O     0.56108   0.87154   0.75001   0.00000  Uiso   1.00
O1388  O     0.43892   0.79513   0.75000   0.00000  Uiso   1.00
O1389  O     0.49999   0.87156   0.68393   0.00000  Uiso   1.00
O1390  O     0.50001   0.79511   0.81608   0.00000  Uiso   1.00
O1391  O     0.50001   0.87156   0.81608   0.00000  Uiso   1.00
O1392  O     0.49999   0.79511   0.68393   0.00000  Uiso   1.00
Zn1393 Zn    0.50000   0.88437   0.75000   0.00000  Uiso   1.00
Zn1394 Zn    0.50000   0.78229   0.75000   0.00000  Uiso   1.00
C1395  C     0.75329   0.83334   0.74998   0.00000  Uiso   1.00
C1396  C     0.70914   0.83335   0.75001   0.00000  Uiso   1.00
C1397  C     0.86002   0.69061   0.77713   0.00000  Uiso   1.00
C1398  C     0.80665   0.97605   0.72287   0.00000  Uiso   1.00
C1399  C     0.80665   0.69068   0.72287   0.00000  Uiso   1.00
C1400  C     0.86001   0.97598   0.77713   0.00000  Uiso   1.00
C1401  C     0.83318   0.83344   0.66344   0.00000  Uiso   1.00
C1402  C     0.83349   0.83341   0.83656   0.00000  Uiso   1.00
C1403  C     0.87169   0.84086   0.90673   0.00000  Uiso   1.00
C1404  C     0.79499   0.84081   0.59323   0.00000  Uiso   1.00
C1405  C     0.83370   0.83493   0.88466   0.00000  Uiso   1.00
C1406  C     0.91338   0.83333   0.75006   0.00000  Uiso   1.00
C1407  C     0.83299   0.83502   0.61533   0.00000  Uiso   1.00
C1408  C     0.79568   0.83950   0.90667   0.00000  Uiso   1.00
C1409  C     0.87101   0.83965   0.59332   0.00000  Uiso   1.00
C1410  C     0.79521   0.85152   0.95248   0.00000  Uiso   1.00
C1411  C     0.87146   0.85161   0.54748   0.00000  Uiso   1.00
C1412  C     0.83346   0.85185   0.97638   0.00000  Uiso   1.00
C1413  C     0.83321   0.85187   0.52357   0.00000  Uiso   1.00
C1414  C     0.87194   0.85006   0.95326   0.00000  Uiso   1.00
C1415  C     0.79473   0.85003   0.54669   0.00000  Uiso   1.00
C1416  C     0.75817   0.86367   0.97544   0.00000  Uiso   1.00
C1417  C     0.75756   0.85965   0.52292   0.00000  Uiso   1.00
C1418  C     0.90849   0.86377   0.52448   0.00000  Uiso   1.00
C1419  C     0.72112   0.88488   0.95070   0.00000  Uiso   1.00
C1420  C     0.73338   0.92803   0.92543   0.00000  Uiso   1.00
C1421  C     0.94551   0.88504   0.54915   0.00000  Uiso   1.00
C1422  C     0.93318   0.92824   0.57423   0.00000  Uiso   1.00
C1423  C     0.90911   0.85971   0.97701   0.00000  Uiso   1.00
C1424  C     0.68794   0.79420   0.73696   0.00000  Uiso   1.00
C1425  C     0.97872   0.87247   0.76316   0.00000  Uiso   1.00
C1426  C     0.97866   0.79419   0.73700   0.00000  Uiso   1.00
C1427  C     0.68801   0.87248   0.76312   0.00000  Uiso   1.00
C1428  C     0.95753   0.83333   0.75008   0.00000  Uiso   1.00
H1429  H     0.70421   0.76390   0.72638   0.00000  Uiso   1.00
H1430  H     0.91094   0.86056   0.85665   0.00000  Uiso   1.00
H1431  H     0.75661   0.80358   0.63314   0.00000  Uiso   1.00
H1432  H     0.75562   0.86025   0.64327   0.00000  Uiso   1.00
H1433  H     0.76001   0.79521   0.87128   0.00000  Uiso   1.00
H1434  H     0.75448   0.85013   0.85540   0.00000  Uiso   1.00
H1435  H     0.90674   0.79542   0.62884   0.00000  Uiso   1.00
H1436  H     0.91216   0.85036   0.64458   0.00000  Uiso   1.00
H1437  H     0.74666   0.95308   0.94940   0.00000  Uiso   1.00
H1438  H     0.75650   0.92109   0.89870   0.00000  Uiso   1.00
H1439  H     0.70544   0.94309   0.90928   0.00000  Uiso   1.00
H1440  H     0.96245   0.90277   0.77374   0.00000  Uiso   1.00
H1441  H     0.70558   0.86049   0.92798   0.00000  Uiso   1.00
H1442  H     0.69629   0.89534   0.97397   0.00000  Uiso   1.00
H1443  H     0.91997   0.95326   0.55012   0.00000  Uiso   1.00
H1444  H     0.90999   0.92135   0.60092   0.00000  Uiso   1.00
H1445  H     0.96109   0.94331   0.59040   0.00000  Uiso   1.00
H1446  H     0.96106   0.86071   0.57198   0.00000  Uiso   1.00
H1447  H     0.97035   0.89546   0.52587   0.00000  Uiso   1.00
H1448  H     0.71076   0.90003   0.54560   0.00000  Uiso   1.00
H1449  H     0.69671   0.84492   0.53373   0.00000  Uiso   1.00
H1450  H     0.95590   0.90006   0.95422   0.00000  Uiso   1.00
H1451  H     0.96235   0.76388   0.72646   0.00000  Uiso   1.00
H1452  H     0.96996   0.84495   0.96627   0.00000  Uiso   1.00
H1453  H     0.70433   0.90278   0.77369   0.00000  Uiso   1.00
H1454  H     0.88135   0.70876   0.79882   0.00000  Uiso   1.00
H1455  H     0.78533   0.95790   0.70117   0.00000  Uiso   1.00
H1456  H     0.78531   0.70888   0.70119   0.00000  Uiso   1.00
H1457  H     0.88135   0.95778   0.79882   0.00000  Uiso   1.00
H1458  H     0.91018   0.80386   0.86679   0.00000  Uiso   1.00
N1459  N     0.83333   0.95240   0.75000   0.00000  Uiso   1.00
N1460  N     0.83333   0.71427   0.75000   0.00000  Uiso   1.00
N1461  N     0.90975   0.83584   0.88190   0.00000  Uiso   1.00
N1462  N     0.75693   0.83559   0.61803   0.00000  Uiso   1.00
N1463  N     0.75795   0.82849   0.88309   0.00000  Uiso   1.00
N1464  N     0.90875   0.82870   0.61694   0.00000  Uiso   1.00
N1465  N     0.71960   0.86603   0.54731   0.00000  Uiso   1.00
N1466  N     0.94707   0.86605   0.95261   0.00000  Uiso   1.00
O1467  O     0.77226   0.87154   0.75000   0.00000  Uiso   1.00
O1468  O     0.89441   0.79513   0.75001   0.00000  Uiso   1.00
O1469  O     0.89441   0.87154   0.75001   0.00000  Uiso   1.00
O1470  O     0.77226   0.79513   0.75000   0.00000  Uiso   1.00
O1471  O     0.83333   0.87156   0.68393   0.00000  Uiso   1.00
O1472  O     0.83334   0.79511   0.81608   0.00000  Uiso   1.00
O1473  O     0.83334   0.87156   0.81608   0.00000  Uiso   1.00
O1474  O     0.83333   0.79511   0.68393   0.00000  Uiso   1.00
Zn1475 Zn    0.83333   0.88437   0.75000   0.00000  Uiso   1.00
Zn1476 Zn    0.83333   0.78229   0.75000   0.00000  Uiso   1.00
loop_
_geom_bond_atom_site_label_1
_geom_bond_atom_site_label_2
_geom_bond_distance
_geom_bond_site_symmetry_2
_ccdc_geom_bond_type
C1     C2      1.422   .     S
C1     O76     1.283   .     A
C1     O73     1.283   .     A
C2     C33     1.397   .     A
C2     C30     1.397   .     A
C3     H60     1.082   .     S
C3     N66     1.366   .     A
C3     C498    1.416   1_545 S
C4     N65     1.366   .     A
C4     H61     1.082   .     S
C4     C251    1.416   .     S
C5     N66     1.366   .     A
C5     H62     1.082   .     S
C5     C496    1.416   1_545 S
C6     N65     1.366   .     A
C6     H63     1.082   .     S
C6     C249    1.416   .     S
C7     O77     1.280   .     A
C7     C13     1.426   .     S
C7     O80     1.284   .     A
C8     O79     1.279   .     A
C8     O78     1.284   .     A
C8     C11     1.426   .     S
C9     N67     1.439   .     S
C9     C20     1.406   .     A
C9     C11     1.397   .     A
C10    C21     1.406   .     A
C10    C13     1.397   .     A
C10    N68     1.439   .     S
C11    C14     1.396   .     A
C12    O74     1.283   .     A
C12    C34     1.422   .     S
C12    O75     1.283   .     A
C13    C15     1.396   .     A
C14    N69     1.437   .     S
C14    C16     1.404   .     A
C15    C17     1.404   .     A
C15    N70     1.437   .     S
C16    C22     1.422   .     A
C16    C18     1.419   .     A
C17    C24     1.422   .     A
C17    C19     1.419   .     A
C18    C20     1.419   .     A
C18    C757    1.399   .     S
C19    C21     1.419   .     A
C19    C756    1.399   1_554 S
C20    C29     1.416   .     A
C21    C23     1.416   .     A
C22    C25     1.532   .     S
C22    C761    1.412   .     S
C23    N71     1.435   .     S
C23    C760    1.412   1_554 S
C24    C27     1.532   .     S
C24    C767    1.412   1_554 S
C25    H47     1.105   .     S
C25    C26     1.530   .     S
C25    H48     1.102   .     S
C26    H44     1.108   .     S
C26    H45     1.111   .     S
C26    H43     1.111   .     S
C27    H52     1.105   .     S
C27    H53     1.102   .     S
C27    C28     1.530   .     S
C28    H51     1.111   .     S
C28    H50     1.108   .     S
C28    H49     1.111   .     S
C29    N72     1.435   .     S
C29    C762    1.412   .     S
C30    H35     1.084   .     S
C30    C196    1.372   1_455 S
C31    H46     1.084   .     S
C31    C34     1.397   .     A
C31    C115    1.373   .     S
C32    H57     1.084   .     S
C32    C34     1.397   .     A
C32    C112    1.372   .     S
C33    H59     1.084   .     S
C33    C195    1.373   1_455 S
H36    N67     1.046   .     S
H37    N68     1.046   .     S
H38    N68     1.046   .     S
H39    N69     1.046   .     S
H40    N69     1.046   .     S
H41    N70     1.046   .     S
H42    N70     1.046   .     S
H54    N71     1.045   .     S
H55    N71     1.045   .     S
H56    N72     1.045   .     S
H58    N72     1.045   .     S
H64    N67     1.046   .     S
N65    Zn81    2.009   .     S
N66    Zn82    2.009   .     S
O73    Zn81    2.003   .     S
O74    Zn82    2.003   .     S
O75    Zn81    2.003   .     S
O76    Zn82    2.003   .     S
O77    Zn81    1.995   .     S
O78    Zn82    1.995   .     S
O79    Zn81    1.994   .     S
O80    Zn82    1.994   .     S
C83    C84     1.422   .     S
C83    O158    1.283   .     A
C83    O155    1.283   .     A
C84    C115    1.397   .     A
C84    C112    1.397   .     A
C85    H142    1.082   .     S
C85    N148    1.366   .     A
C85    C580    1.416   1_545 S
C86    N147    1.366   .     A
C86    H143    1.082   .     S
C86    C333    1.416   .     S
C87    N148    1.366   .     A
C87    H144    1.082   .     S
C87    C578    1.416   1_545 S
C88    N147    1.366   .     A
C88    H145    1.082   .     S
C88    C331    1.416   .     S
C89    O159    1.280   .     A
C89    C95     1.426   .     S
C89    O162    1.284   .     A
C90    O161    1.279   .     A
C90    O160    1.284   .     A
C90    C93     1.426   .     S
C91    N149    1.439   .     S
C91    C102    1.406   .     A
C91    C93     1.397   .     A
C92    C103    1.406   .     A
C92    C95     1.397   .     A
C92    N150    1.439   .     S
C93    C96     1.396   .     A
C94    O156    1.283   .     A
C94    C116    1.422   .     S
C94    O157    1.283   .     A
C95    C97     1.396   .     A
C96    N151    1.437   .     S
C96    C98     1.404   .     A
C97    C99     1.404   .     A
C97    N152    1.437   .     S
C98    C104    1.422   .     A
C98    C100    1.419   .     A
C99    C106    1.422   .     A
C99    C101    1.419   .     A
C100   C102    1.419   .     A
C100   C839    1.399   .     S
C101   C103    1.419   .     A
C101   C838    1.399   1_554 S
C102   C111    1.416   .     A
C103   C105    1.416   .     A
C104   C107    1.532   .     S
C104   C843    1.412   .     S
C105   N153    1.435   .     S
C105   C842    1.412   1_554 S
C106   C109    1.532   .     S
C106   C849    1.412   1_554 S
C107   H129    1.105   .     S
C107   C108    1.530   .     S
C107   H130    1.102   .     S
C108   H126    1.108   .     S
C108   H127    1.111   .     S
C108   H125    1.111   .     S
C109   H134    1.105   .     S
C109   H135    1.102   .     S
C109   C110    1.530   .     S
C110   H133    1.111   .     S
C110   H132    1.108   .     S
C110   H131    1.111   .     S
C111   N154    1.435   .     S
C111   C844    1.412   .     S
C112   H117    1.084   .     S
C113   H128    1.084   .     S
C113   C116    1.397   .     A
C113   C197    1.373   .     S
C114   H139    1.084   .     S
C114   C116    1.397   .     A
C114   C194    1.372   .     S
C115   H141    1.084   .     S
H118   N149    1.046   .     S
H119   N150    1.046   .     S
H120   N150    1.046   .     S
H121   N151    1.046   .     S
H122   N151    1.046   .     S
H123   N152    1.046   .     S
H124   N152    1.046   .     S
H136   N153    1.045   .     S
H137   N153    1.045   .     S
H138   N154    1.045   .     S
H140   N154    1.045   .     S
H146   N149    1.046   .     S
N147   Zn163   2.009   .     S
N148   Zn164   2.009   .     S
O155   Zn163   2.003   .     S
O156   Zn164   2.003   .     S
O157   Zn163   2.003   .     S
O158   Zn164   2.003   .     S
O159   Zn163   1.995   .     S
O160   Zn164   1.995   .     S
O161   Zn163   1.994   .     S
O162   Zn164   1.994   .     S
C165   C166    1.422   .     S
C165   O240    1.283   .     A
C165   O237    1.283   .     A
C166   C197    1.397   .     A
C166   C194    1.397   .     A
C167   H224    1.082   .     S
C167   N230    1.366   .     A
C167   C662    1.416   1_545 S
C168   N229    1.366   .     A
C168   H225    1.082   .     S
C168   C415    1.416   .     S
C169   N230    1.366   .     A
C169   H226    1.082   .     S
C169   C660    1.416   1_545 S
C170   N229    1.366   .     A
C170   H227    1.082   .     S
C170   C413    1.416   .     S
C171   O241    1.280   .     A
C171   C177    1.426   .     S
C171   O244    1.284   .     A
C172   O243    1.279   .     A
C172   O242    1.284   .     A
C172   C175    1.426   .     S
C173   N231    1.439   .     S
C173   C184    1.406   .     A
C173   C175    1.397   .     A
C174   C185    1.406   .     A
C174   C177    1.397   .     A
C174   N232    1.439   .     S
C175   C178    1.396   .     A
C176   O238    1.283   .     A
C176   C198    1.422   .     S
C176   O239    1.283   .     A
C177   C179    1.396   .     A
C178   N233    1.437   .     S
C178   C180    1.404   .     A
C179   C181    1.404   .     A
C179   N234    1.437   .     S
C180   C186    1.422   .     A
C180   C182    1.419   .     A
C181   C188    1.422   .     A
C181   C183    1.419   .     A
C182   C184    1.419   .     A
C182   C921    1.399   .     S
C183   C185    1.419   .     A
C183   C920    1.399   1_554 S
C184   C193    1.416   .     A
C185   C187    1.416   .     A
C186   C189    1.532   .     S
C186   C925    1.412   .     S
C187   N235    1.435   .     S
C187   C924    1.412   1_554 S
C188   C191    1.532   .     S
C188   C931    1.412   1_554 S
C189   H211    1.105   .     S
C189   C190    1.530   .     S
C189   H212    1.102   .     S
C190   H208    1.108   .     S
C190   H209    1.111   .     S
C190   H207    1.111   .     S
C191   H216    1.105   .     S
C191   H217    1.102   .     S
C191   C192    1.530   .     S
C192   H215    1.111   .     S
C192   H214    1.108   .     S
C192   H213    1.111   .     S
C193   N236    1.435   .     S
C193   C926    1.412   .     S
C194   H199    1.084   .     S
C195   H210    1.084   .     S
C195   C198    1.397   .     A
C195   C33     1.373   1_655 S
C196   H221    1.084   .     S
C196   C198    1.397   .     A
C196   C30     1.372   1_655 S
C197   H223    1.084   .     S
H200   N231    1.046   .     S
H201   N232    1.046   .     S
H202   N232    1.046   .     S
H203   N233    1.046   .     S
H204   N233    1.046   .     S
H205   N234    1.046   .     S
H206   N234    1.046   .     S
H218   N235    1.045   .     S
H219   N235    1.045   .     S
H220   N236    1.045   .     S
H222   N236    1.045   .     S
H228   N231    1.046   .     S
N229   Zn245   2.009   .     S
N230   Zn246   2.009   .     S
O237   Zn245   2.003   .     S
O238   Zn246   2.003   .     S
O239   Zn245   2.003   .     S
O240   Zn246   2.003   .     S
O241   Zn245   1.995   .     S
O242   Zn246   1.995   .     S
O243   Zn245   1.994   .     S
O244   Zn246   1.994   .     S
C247   C248    1.422   .     S
C247   O322    1.283   .     A
C247   O319    1.283   .     A
C248   C279    1.397   .     A
C248   C276    1.397   .     A
C249   H306    1.082   .     S
C249   N312    1.366   .     A
C250   N311    1.366   .     A
C250   H307    1.082   .     S
C250   C497    1.416   .     S
C251   N312    1.366   .     A
C251   H308    1.082   .     S
C252   N311    1.366   .     A
C252   H309    1.082   .     S
C252   C495    1.416   .     S
C253   O323    1.280   .     A
C253   C259    1.426   .     S
C253   O326    1.284   .     A
C254   O325    1.279   .     A
C254   O324    1.284   .     A
C254   C257    1.426   .     S
C255   N313    1.439   .     S
C255   C266    1.406   .     A
C255   C257    1.397   .     A
C256   C267    1.406   .     A
C256   C259    1.397   .     A
C256   N314    1.439   .     S
C257   C260    1.396   .     A
C258   O320    1.283   .     A
C258   C280    1.422   .     S
C258   O321    1.283   .     A
C259   C261    1.396   .     A
C260   N315    1.437   .     S
C260   C262    1.404   .     A
C261   C263    1.404   .     A
C261   N316    1.437   .     S
C262   C268    1.422   .     A
C262   C264    1.419   .     A
C263   C270    1.422   .     A
C263   C265    1.419   .     A
C264   C266    1.419   .     A
C264   C1003   1.399   .     S
C265   C267    1.419   .     A
C265   C1002   1.399   1_554 S
C266   C275    1.416   .     A
C267   C269    1.416   .     A
C268   C271    1.532   .     S
C268   C1007   1.412   .     S
C269   N317    1.435   .     S
C269   C1006   1.412   1_554 S
C270   C273    1.532   .     S
C270   C1013   1.412   1_554 S
C271   H293    1.105   .     S
C271   C272    1.530   .     S
C271   H294    1.102   .     S
C272   H290    1.108   .     S
C272   H291    1.111   .     S
C272   H289    1.111   .     S
C273   H298    1.105   .     S
C273   H299    1.102   .     S
C273   C274    1.530   .     S
C274   H297    1.111   .     S
C274   H296    1.108   .     S
C274   H295    1.111   .     S
C275   N318    1.435   .     S
C275   C1008   1.412   .     S
C276   H281    1.084   .     S
C276   C442    1.372   1_455 S
C277   H292    1.084   .     S
C277   C280    1.397   .     A
C277   C361    1.373   .     S
C278   H303    1.084   .     S
C278   C280    1.397   .     A
C278   C358    1.372   .     S
C279   H305    1.084   .     S
C279   C441    1.373   1_455 S
H282   N313    1.046   .     S
H283   N314    1.046   .     S
H284   N314    1.046   .     S
H285   N315    1.046   .     S
H286   N315    1.046   .     S
H287   N316    1.046   .     S
H288   N316    1.046   .     S
H300   N317    1.045   .     S
H301   N317    1.045   .     S
H302   N318    1.045   .     S
H304   N318    1.045   .     S
H310   N313    1.046   .     S
N311   Zn327   2.009   .     S
N312   Zn328   2.009   .     S
O319   Zn327   2.003   .     S
O320   Zn328   2.003   .     S
O321   Zn327   2.003   .     S
O322   Zn328   2.003   .     S
O323   Zn327   1.995   .     S
O324   Zn328   1.995   .     S
O325   Zn327   1.994   .     S
O326   Zn328   1.994   .     S
C329   C330    1.422   .     S
C329   O404    1.283   .     A
C329   O401    1.283   .     A
C330   C361    1.397   .     A
C330   C358    1.397   .     A
C331   H388    1.082   .     S
C331   N394    1.366   .     A
C332   N393    1.366   .     A
C332   H389    1.082   .     S
C332   C579    1.416   .     S
C333   N394    1.366   .     A
C333   H390    1.082   .     S
C334   N393    1.366   .     A
C334   H391    1.082   .     S
C334   C577    1.416   .     S
C335   O405    1.280   .     A
C335   C341    1.426   .     S
C335   O408    1.284   .     A
C336   O407    1.279   .     A
C336   O406    1.284   .     A
C336   C339    1.426   .     S
C337   N395    1.439   .     S
C337   C348    1.406   .     A
C337   C339    1.397   .     A
C338   C349    1.406   .     A
C338   C341    1.397   .     A
C338   N396    1.439   .     S
C339   C342    1.396   .     A
C340   O402    1.283   .     A
C340   C362    1.422   .     S
C340   O403    1.283   .     A
C341   C343    1.396   .     A
C342   N397    1.437   .     S
C342   C344    1.404   .     A
C343   C345    1.404   .     A
C343   N398    1.437   .     S
C344   C350    1.422   .     A
C344   C346    1.419   .     A
C345   C352    1.422   .     A
C345   C347    1.419   .     A
C346   C348    1.419   .     A
C346   C1085   1.399   .     S
C347   C349    1.419   .     A
C347   C1084   1.399   1_554 S
C348   C357    1.416   .     A
C349   C351    1.416   .     A
C350   C353    1.532   .     S
C350   C1089   1.412   .     S
C351   N399    1.435   .     S
C351   C1088   1.412   1_554 S
C352   C355    1.532   .     S
C352   C1095   1.412   1_554 S
C353   H375    1.105   .     S
C353   C354    1.530   .     S
C353   H376    1.102   .     S
C354   H372    1.108   .     S
C354   H373    1.111   .     S
C354   H371    1.111   .     S
C355   H380    1.105   .     S
C355   H381    1.102   .     S
C355   C356    1.530   .     S
C356   H379    1.111   .     S
C356   H378    1.108   .     S
C356   H377    1.111   .     S
C357   N400    1.435   .     S
C357   C1090   1.412   .     S
C358   H363    1.084   .     S
C359   H374    1.084   .     S
C359   C362    1.397   .     A
C359   C443    1.373   .     S
C360   H385    1.084   .     S
C360   C362    1.397   .     A
C360   C440    1.372   .     S
C361   H387    1.084   .     S
H364   N395    1.046   .     S
H365   N396    1.046   .     S
H366   N396    1.046   .     S
H367   N397    1.046   .     S
H368   N397    1.046   .     S
H369   N398    1.046   .     S
H370   N398    1.046   .     S
H382   N399    1.045   .     S
H383   N399    1.045   .     S
H384   N400    1.045   .     S
H386   N400    1.045   .     S
H392   N395    1.046   .     S
N393   Zn409   2.009   .     S
N394   Zn410   2.009   .     S
O401   Zn409   2.003   .     S
O402   Zn410   2.003   .     S
O403   Zn409   2.003   .     S
O404   Zn410   2.003   .     S
O405   Zn409   1.995   .     S
O406   Zn410   1.995   .     S
O407   Zn409   1.994   .     S
O408   Zn410   1.994   .     S
C411   C412    1.422   .     S
C411   O486    1.283   .     A
C411   O483    1.283   .     A
C412   C443    1.397   .     A
C412   C440    1.397   .     A
C413   H470    1.082   .     S
C413   N476    1.366   .     A
C414   N475    1.366   .     A
C414   H471    1.082   .     S
C414   C661    1.416   .     S
C415   N476    1.366   .     A
C415   H472    1.082   .     S
C416   N475    1.366   .     A
C416   H473    1.082   .     S
C416   C659    1.416   .     S
C417   O487    1.280   .     A
C417   C423    1.426   .     S
C417   O490    1.284   .     A
C418   O489    1.279   .     A
C418   O488    1.284   .     A
C418   C421    1.426   .     S
C419   N477    1.439   .     S
C419   C430    1.406   .     A
C419   C421    1.397   .     A
C420   C431    1.406   .     A
C420   C423    1.397   .     A
C420   N478    1.439   .     S
C421   C424    1.396   .     A
C422   O484    1.283   .     A
C422   C444    1.422   .     S
C422   O485    1.283   .     A
C423   C425    1.396   .     A
C424   N479    1.437   .     S
C424   C426    1.404   .     A
C425   C427    1.404   .     A
C425   N480    1.437   .     S
C426   C432    1.422   .     A
C426   C428    1.419   .     A
C427   C434    1.422   .     A
C427   C429    1.419   .     A
C428   C430    1.419   .     A
C428   C1167   1.399   .     S
C429   C431    1.419   .     A
C429   C1166   1.399   1_554 S
C430   C439    1.416   .     A
C431   C433    1.416   .     A
C432   C435    1.532   .     S
C432   C1171   1.412   .     S
C433   N481    1.435   .     S
C433   C1170   1.412   1_554 S
C434   C437    1.532   .     S
C434   C1177   1.412   1_554 S
C435   H457    1.105   .     S
C435   C436    1.530   .     S
C435   H458    1.102   .     S
C436   H454    1.108   .     S
C436   H455    1.111   .     S
C436   H453    1.111   .     S
C437   H462    1.105   .     S
C437   H463    1.102   .     S
C437   C438    1.530   .     S
C438   H461    1.111   .     S
C438   H460    1.108   .     S
C438   H459    1.111   .     S
C439   N482    1.435   .     S
C439   C1172   1.412   .     S
C440   H445    1.084   .     S
C441   H456    1.084   .     S
C441   C444    1.397   .     A
C441   C279    1.373   1_655 S
C442   H467    1.084   .     S
C442   C444    1.397   .     A
C442   C276    1.372   1_655 S
C443   H469    1.084   .     S
H446   N477    1.046   .     S
H447   N478    1.046   .     S
H448   N478    1.046   .     S
H449   N479    1.046   .     S
H450   N479    1.046   .     S
H451   N480    1.046   .     S
H452   N480    1.046   .     S
H464   N481    1.045   .     S
H465   N481    1.045   .     S
H466   N482    1.045   .     S
H468   N482    1.045   .     S
H474   N477    1.046   .     S
N475   Zn491   2.009   .     S
N476   Zn492   2.009   .     S
O483   Zn491   2.003   .     S
O484   Zn492   2.003   .     S
O485   Zn491   2.003   .     S
O486   Zn492   2.003   .     S
O487   Zn491   1.995   .     S
O488   Zn492   1.995   .     S
O489   Zn491   1.994   .     S
O490   Zn492   1.994   .     S
C493   C494    1.422   .     S
C493   O568    1.283   .     A
C493   O565    1.283   .     A
C494   C525    1.397   .     A
C494   C522    1.397   .     A
C495   H552    1.082   .     S
C495   N558    1.366   .     A
C496   N557    1.366   .     A
C496   H553    1.082   .     S
C496   C5      1.416   1_565 S
C497   N558    1.366   .     A
C497   H554    1.082   .     S
C498   N557    1.366   .     A
C498   H555    1.082   .     S
C498   C3      1.416   1_565 S
C499   O569    1.280   .     A
C499   C505    1.426   .     S
C499   O572    1.284   .     A
C500   O571    1.279   .     A
C500   O570    1.284   .     A
C500   C503    1.426   .     S
C501   N559    1.439   .     S
C501   C512    1.406   .     A
C501   C503    1.397   .     A
C502   C513    1.406   .     A
C502   C505    1.397   .     A
C502   N560    1.439   .     S
C503   C506    1.396   .     A
C504   O566    1.283   .     A
C504   C526    1.422   .     S
C504   O567    1.283   .     A
C505   C507    1.396   .     A
C506   N561    1.437   .     S
C506   C508    1.404   .     A
C507   C509    1.404   .     A
C507   N562    1.437   .     S
C508   C514    1.422   .     A
C508   C510    1.419   .     A
C509   C516    1.422   .     A
C509   C511    1.419   .     A
C510   C512    1.419   .     A
C510   C1249   1.399   .     S
C511   C513    1.419   .     A
C511   C1248   1.399   1_554 S
C512   C521    1.416   .     A
C513   C515    1.416   .     A
C514   C517    1.532   .     S
C514   C1253   1.412   .     S
C515   N563    1.435   .     S
C515   C1252   1.412   1_554 S
C516   C519    1.532   .     S
C516   C1259   1.412   1_554 S
C517   H539    1.105   .     S
C517   C518    1.530   .     S
C517   H540    1.102   .     S
C518   H536    1.108   .     S
C518   H537    1.111   .     S
C518   H535    1.111   .     S
C519   H544    1.105   .     S
C519   H545    1.102   .     S
C519   C520    1.530   .     S
C520   H543    1.111   .     S
C520   H542    1.108   .     S
C520   H541    1.111   .     S
C521   N564    1.435   .     S
C521   C1254   1.412   .     S
C522   H527    1.084   .     S
C522   C688    1.372   1_455 S
C523   H538    1.084   .     S
C523   C526    1.397   .     A
C523   C607    1.373   .     S
C524   H549    1.084   .     S
C524   C526    1.397   .     A
C524   C604    1.372   .     S
C525   H551    1.084   .     S
C525   C687    1.373   1_455 S
H528   N559    1.046   .     S
H529   N560    1.046   .     S
H530   N560    1.046   .     S
H531   N561    1.046   .     S
H532   N561    1.046   .     S
H533   N562    1.046   .     S
H534   N562    1.046   .     S
H546   N563    1.045   .     S
H547   N563    1.045   .     S
H548   N564    1.045   .     S
H550   N564    1.045   .     S
H556   N559    1.046   .     S
N557   Zn573   2.009   .     S
N558   Zn574   2.009   .     S
O565   Zn573   2.003   .     S
O566   Zn574   2.003   .     S
O567   Zn573   2.003   .     S
O568   Zn574   2.003   .     S
O569   Zn573   1.995   .     S
O570   Zn574   1.995   .     S
O571   Zn573   1.994   .     S
O572   Zn574   1.994   .     S
C575   C576    1.422   .     S
C575   O650    1.283   .     A
C575   O647    1.283   .     A
C576   C607    1.397   .     A
C576   C604    1.397   .     A
C577   H634    1.082   .     S
C577   N640    1.366   .     A
C578   N639    1.366   .     A
C578   H635    1.082   .     S
C578   C87     1.416   1_565 S
C579   N640    1.366   .     A
C579   H636    1.082   .     S
C580   N639    1.366   .     A
C580   H637    1.082   .     S
C580   C85     1.416   1_565 S
C581   O651    1.280   .     A
C581   C587    1.426   .     S
C581   O654    1.284   .     A
C582   O653    1.279   .     A
C582   O652    1.284   .     A
C582   C585    1.426   .     S
C583   N641    1.439   .     S
C583   C594    1.406   .     A
C583   C585    1.397   .     A
C584   C595    1.406   .     A
C584   C587    1.397   .     A
C584   N642    1.439   .     S
C585   C588    1.396   .     A
C586   O648    1.283   .     A
C586   C608    1.422   .     S
C586   O649    1.283   .     A
C587   C589    1.396   .     A
C588   N643    1.437   .     S
C588   C590    1.404   .     A
C589   C591    1.404   .     A
C589   N644    1.437   .     S
C590   C596    1.422   .     A
C590   C592    1.419   .     A
C591   C598    1.422   .     A
C591   C593    1.419   .     A
C592   C594    1.419   .     A
C592   C1331   1.399   .     S
C593   C595    1.419   .     A
C593   C1330   1.399   1_554 S
C594   C603    1.416   .     A
C595   C597    1.416   .     A
C596   C599    1.532   .     S
C596   C1335   1.412   .     S
C597   N645    1.435   .     S
C597   C1334   1.412   1_554 S
C598   C601    1.532   .     S
C598   C1341   1.412   1_554 S
C599   H621    1.105   .     S
C599   C600    1.530   .     S
C599   H622    1.102   .     S
C600   H618    1.108   .     S
C600   H619    1.111   .     S
C600   H617    1.111   .     S
C601   H626    1.105   .     S
C601   H627    1.102   .     S
C601   C602    1.530   .     S
C602   H625    1.111   .     S
C602   H624    1.108   .     S
C602   H623    1.111   .     S
C603   N646    1.435   .     S
C603   C1336   1.412   .     S
C604   H609    1.084   .     S
C605   H620    1.084   .     S
C605   C608    1.397   .     A
C605   C689    1.373   .     S
C606   H631    1.084   .     S
C606   C608    1.397   .     A
C606   C686    1.372   .     S
C607   H633    1.084   .     S
H610   N641    1.046   .     S
H611   N642    1.046   .     S
H612   N642    1.046   .     S
H613   N643    1.046   .     S
H614   N643    1.046   .     S
H615   N644    1.046   .     S
H616   N644    1.046   .     S
H628   N645    1.045   .     S
H629   N645    1.045   .     S
H630   N646    1.045   .     S
H632   N646    1.045   .     S
H638   N641    1.046   .     S
N639   Zn655   2.009   .     S
N640   Zn656   2.009   .     S
O647   Zn655   2.003   .     S
O648   Zn656   2.003   .     S
O649   Zn655   2.003   .     S
O650   Zn656   2.003   .     S
O651   Zn655   1.995   .     S
O652   Zn656   1.995   .     S
O653   Zn655   1.994   .     S
O654   Zn656   1.994   .     S
C657   C658    1.422   .     S
C657   O732    1.283   .     A
C657   O729    1.283   .     A
C658   C689    1.397   .     A
C658   C686    1.397   .     A
C659   H716    1.082   .     S
C659   N722    1.366   .     A
C660   N721    1.366   .     A
C660   H717    1.082   .     S
C660   C169    1.416   1_565 S
C661   N722    1.366   .     A
C661   H718    1.082   .     S
C662   N721    1.366   .     A
C662   H719    1.082   .     S
C662   C167    1.416   1_565 S
C663   O733    1.280   .     A
C663   C669    1.426   .     S
C663   O736    1.284   .     A
C664   O735    1.279   .     A
C664   O734    1.284   .     A
C664   C667    1.426   .     S
C665   N723    1.439   .     S
C665   C676    1.406   .     A
C665   C667    1.397   .     A
C666   C677    1.406   .     A
C666   C669    1.397   .     A
C666   N724    1.439   .     S
C667   C670    1.396   .     A
C668   O730    1.283   .     A
C668   C690    1.422   .     S
C668   O731    1.283   .     A
C669   C671    1.396   .     A
C670   N725    1.437   .     S
C670   C672    1.404   .     A
C671   C673    1.404   .     A
C671   N726    1.437   .     S
C672   C678    1.422   .     A
C672   C674    1.419   .     A
C673   C680    1.422   .     A
C673   C675    1.419   .     A
C674   C676    1.419   .     A
C674   C1413   1.399   .     S
C675   C677    1.419   .     A
C675   C1412   1.399   1_554 S
C676   C685    1.416   .     A
C677   C679    1.416   .     A
C678   C681    1.532   .     S
C678   C1417   1.412   .     S
C679   N727    1.435   .     S
C679   C1416   1.412   1_554 S
C680   C683    1.532   .     S
C680   C1423   1.412   1_554 S
C681   H703    1.105   .     S
C681   C682    1.530   .     S
C681   H704    1.102   .     S
C682   H700    1.108   .     S
C682   H701    1.111   .     S
C682   H699    1.111   .     S
C683   H708    1.105   .     S
C683   H709    1.102   .     S
C683   C684    1.530   .     S
C684   H707    1.111   .     S
C684   H706    1.108   .     S
C684   H705    1.111   .     S
C685   N728    1.435   .     S
C685   C1418   1.412   .     S
C686   H691    1.084   .     S
C687   H702    1.084   .     S
C687   C690    1.397   .     A
C687   C525    1.373   1_655 S
C688   H713    1.084   .     S
C688   C690    1.397   .     A
C688   C522    1.372   1_655 S
C689   H715    1.084   .     S
H692   N723    1.046   .     S
H693   N724    1.046   .     S
H694   N724    1.046   .     S
H695   N725    1.046   .     S
H696   N725    1.046   .     S
H697   N726    1.046   .     S
H698   N726    1.046   .     S
H710   N727    1.045   .     S
H711   N727    1.045   .     S
H712   N728    1.045   .     S
H714   N728    1.045   .     S
H720   N723    1.046   .     S
N721   Zn737   2.009   .     S
N722   Zn738   2.009   .     S
O729   Zn737   2.003   .     S
O730   Zn738   2.003   .     S
O731   Zn737   2.003   .     S
O732   Zn738   2.003   .     S
O733   Zn737   1.995   .     S
O734   Zn738   1.995   .     S
O735   Zn737   1.994   .     S
O736   Zn738   1.994   .     S
C739   C740    1.422   .     S
C739   O814    1.283   .     A
C739   O811    1.283   .     A
C740   C771    1.397   .     A
C740   C768    1.397   .     A
C741   H798    1.082   .     S
C741   N804    1.366   .     A
C741   C1236   1.416   1_545 S
C742   N803    1.366   .     A
C742   H799    1.082   .     S
C742   C989    1.416   .     S
C743   N804    1.366   .     A
C743   H800    1.082   .     S
C743   C1234   1.416   1_545 S
C744   N803    1.366   .     A
C744   H801    1.082   .     S
C744   C987    1.416   .     S
C745   O815    1.280   .     A
C745   C751    1.426   .     S
C745   O818    1.284   .     A
C746   O817    1.279   .     A
C746   O816    1.284   .     A
C746   C749    1.426   .     S
C747   N805    1.439   .     S
C747   C758    1.406   .     A
C747   C749    1.397   .     A
C748   C759    1.406   .     A
C748   C751    1.397   .     A
C748   N806    1.439   .     S
C749   C752    1.396   .     A
C750   O812    1.283   .     A
C750   C772    1.422   .     S
C750   O813    1.283   .     A
C751   C753    1.396   .     A
C752   N807    1.437   .     S
C752   C754    1.404   .     A
C753   C755    1.404   .     A
C753   N808    1.437   .     S
C754   C760    1.422   .     A
C754   C756    1.419   .     A
C755   C762    1.422   .     A
C755   C757    1.419   .     A
C756   C758    1.419   .     A
C756   C19     1.399   1_556 S
C757   C759    1.419   .     A
C758   C767    1.416   .     A
C759   C761    1.416   .     A
C760   C763    1.532   .     S
C760   C23     1.412   1_556 S
C761   N809    1.435   .     S
C762   C765    1.532   .     S
C763   H785    1.105   .     S
C763   C764    1.530   .     S
C763   H786    1.102   .     S
C764   H782    1.108   .     S
C764   H783    1.111   .     S
C764   H781    1.111   .     S
C765   H790    1.105   .     S
C765   H791    1.102   .     S
C765   C766    1.530   .     S
C766   H789    1.111   .     S
C766   H788    1.108   .     S
C766   H787    1.111   .     S
C767   N810    1.435   .     S
C767   C24     1.412   1_556 S
C768   H773    1.084   .     S
C768   C934    1.372   1_455 S
C769   H784    1.084   .     S
C769   C772    1.397   .     A
C769   C853    1.373   .     S
C770   H795    1.084   .     S
C770   C772    1.397   .     A
C770   C850    1.372   .     S
C771   H797    1.084   .     S
C771   C933    1.373   1_455 S
H774   N805    1.046   .     S
H775   N806    1.046   .     S
H776   N806    1.046   .     S
H777   N807    1.046   .     S
H778   N807    1.046   .     S
H779   N808    1.046   .     S
H780   N808    1.046   .     S
H792   N809    1.045   .     S
H793   N809    1.045   .     S
H794   N810    1.045   .     S
H796   N810    1.045   .     S
H802   N805    1.046   .     S
N803   Zn819   2.009   .     S
N804   Zn820   2.009   .     S
O811   Zn819   2.003   .     S
O812   Zn820   2.003   .     S
O813   Zn819   2.003   .     S
O814   Zn820   2.003   .     S
O815   Zn819   1.995   .     S
O816   Zn820   1.995   .     S
O817   Zn819   1.994   .     S
O818   Zn820   1.994   .     S
C821   C822    1.422   .     S
C821   O896    1.283   .     A
C821   O893    1.283   .     A
C822   C853    1.397   .     A
C822   C850    1.397   .     A
C823   H880    1.082   .     S
C823   N886    1.366   .     A
C823   C1318   1.416   1_545 S
C824   N885    1.366   .     A
C824   H881    1.082   .     S
C824   C1071   1.416   .     S
C825   N886    1.366   .     A
C825   H882    1.082   .     S
C825   C1316   1.416   1_545 S
C826   N885    1.366   .     A
C826   H883    1.082   .     S
C826   C1069   1.416   .     S
C827   O897    1.280   .     A
C827   C833    1.426   .     S
C827   O900    1.284   .     A
C828   O899    1.279   .     A
C828   O898    1.284   .     A
C828   C831    1.426   .     S
C829   N887    1.439   .     S
C829   C840    1.406   .     A
C829   C831    1.397   .     A
C830   C841    1.406   .     A
C830   C833    1.397   .     A
C830   N888    1.439   .     S
C831   C834    1.396   .     A
C832   O894    1.283   .     A
C832   C854    1.422   .     S
C832   O895    1.283   .     A
C833   C835    1.396   .     A
C834   N889    1.437   .     S
C834   C836    1.404   .     A
C835   C837    1.404   .     A
C835   N890    1.437   .     S
C836   C842    1.422   .     A
C836   C838    1.419   .     A
C837   C844    1.422   .     A
C837   C839    1.419   .     A
C838   C840    1.419   .     A
C838   C101    1.399   1_556 S
C839   C841    1.419   .     A
C840   C849    1.416   .     A
C841   C843    1.416   .     A
C842   C845    1.532   .     S
C842   C105    1.412   1_556 S
C843   N891    1.435   .     S
C844   C847    1.532   .     S
C845   H867    1.105   .     S
C845   C846    1.530   .     S
C845   H868    1.102   .     S
C846   H864    1.108   .     S
C846   H865    1.111   .     S
C846   H863    1.111   .     S
C847   H872    1.105   .     S
C847   H873    1.102   .     S
C847   C848    1.530   .     S
C848   H871    1.111   .     S
C848   H870    1.108   .     S
C848   H869    1.111   .     S
C849   N892    1.435   .     S
C849   C106    1.412   1_556 S
C850   H855    1.084   .     S
C851   H866    1.084   .     S
C851   C854    1.397   .     A
C851   C935    1.373   .     S
C852   H877    1.084   .     S
C852   C854    1.397   .     A
C852   C932    1.372   .     S
C853   H879    1.084   .     S
H856   N887    1.046   .     S
H857   N888    1.046   .     S
H858   N888    1.046   .     S
H859   N889    1.046   .     S
H860   N889    1.046   .     S
H861   N890    1.046   .     S
H862   N890    1.046   .     S
H874   N891    1.045   .     S
H875   N891    1.045   .     S
H876   N892    1.045   .     S
H878   N892    1.045   .     S
H884   N887    1.046   .     S
N885   Zn901   2.009   .     S
N886   Zn902   2.009   .     S
O893   Zn901   2.003   .     S
O894   Zn902   2.003   .     S
O895   Zn901   2.003   .     S
O896   Zn902   2.003   .     S
O897   Zn901   1.995   .     S
O898   Zn902   1.995   .     S
O899   Zn901   1.994   .     S
O900   Zn902   1.994   .     S
C903   C904    1.422   .     S
C903   O978    1.283   .     A
C903   O975    1.283   .     A
C904   C935    1.397   .     A
C904   C932    1.397   .     A
C905   H962    1.082   .     S
C905   N968    1.366   .     A
C905   C1400   1.416   1_545 S
C906   N967    1.366   .     A
C906   H963    1.082   .     S
C906   C1153   1.416   .     S
C907   N968    1.366   .     A
C907   H964    1.082   .     S
C907   C1398   1.416   1_545 S
C908   N967    1.366   .     A
C908   H965    1.082   .     S
C908   C1151   1.416   .     S
C909   O979    1.280   .     A
C909   C915    1.426   .     S
C909   O982    1.284   .     A
C910   O981    1.279   .     A
C910   O980    1.284   .     A
C910   C913    1.426   .     S
C911   N969    1.439   .     S
C911   C922    1.406   .     A
C911   C913    1.397   .     A
C912   C923    1.406   .     A
C912   C915    1.397   .     A
C912   N970    1.439   .     S
C913   C916    1.396   .     A
C914   O976    1.283   .     A
C914   C936    1.422   .     S
C914   O977    1.283   .     A
C915   C917    1.396   .     A
C916   N971    1.437   .     S
C916   C918    1.404   .     A
C917   C919    1.404   .     A
C917   N972    1.437   .     S
C918   C924    1.422   .     A
C918   C920    1.419   .     A
C919   C926    1.422   .     A
C919   C921    1.419   .     A
C920   C922    1.419   .     A
C920   C183    1.399   1_556 S
C921   C923    1.419   .     A
C922   C931    1.416   .     A
C923   C925    1.416   .     A
C924   C927    1.532   .     S
C924   C187    1.412   1_556 S
C925   N973    1.435   .     S
C926   C929    1.532   .     S
C927   H949    1.105   .     S
C927   C928    1.530   .     S
C927   H950    1.102   .     S
C928   H946    1.108   .     S
C928   H947    1.111   .     S
C928   H945    1.111   .     S
C929   H954    1.105   .     S
C929   H955    1.102   .     S
C929   C930    1.530   .     S
C930   H953    1.111   .     S
C930   H952    1.108   .     S
C930   H951    1.111   .     S
C931   N974    1.435   .     S
C931   C188    1.412   1_556 S
C932   H937    1.084   .     S
C933   H948    1.084   .     S
C933   C936    1.397   .     A
C933   C771    1.373   1_655 S
C934   H959    1.084   .     S
C934   C936    1.397   .     A
C934   C768    1.372   1_655 S
C935   H961    1.084   .     S
H938   N969    1.046   .     S
H939   N970    1.046   .     S
H940   N970    1.046   .     S
H941   N971    1.046   .     S
H942   N971    1.046   .     S
H943   N972    1.046   .     S
H944   N972    1.046   .     S
H956   N973    1.045   .     S
H957   N973    1.045   .     S
H958   N974    1.045   .     S
H960   N974    1.045   .     S
H966   N969    1.046   .     S
N967   Zn983   2.009   .     S
N968   Zn984   2.009   .     S
O975   Zn983   2.003   .     S
O976   Zn984   2.003   .     S
O977   Zn983   2.003   .     S
O978   Zn984   2.003   .     S
O979   Zn983   1.995   .     S
O980   Zn984   1.995   .     S
O981   Zn983   1.994   .     S
O982   Zn984   1.994   .     S
C985   C986    1.422   .     S
C985   O1060   1.283   .     A
C985   O1057   1.283   .     A
C986   C1017   1.397   .     A
C986   C1014   1.397   .     A
C987   H1044   1.082   .     S
C987   N1050   1.366   .     A
C988   N1049   1.366   .     A
C988   H1045   1.082   .     S
C988   C1235   1.416   .     S
C989   N1050   1.366   .     A
C989   H1046   1.082   .     S
C990   N1049   1.366   .     A
C990   H1047   1.082   .     S
C990   C1233   1.416   .     S
C991   O1061   1.280   .     A
C991   C997    1.426   .     S
C991   O1064   1.284   .     A
C992   O1063   1.279   .     A
C992   O1062   1.284   .     A
C992   C995    1.426   .     S
C993   N1051   1.439   .     S
C993   C1004   1.406   .     A
C993   C995    1.397   .     A
C994   C1005   1.406   .     A
C994   C997    1.397   .     A
C994   N1052   1.439   .     S
C995   C998    1.396   .     A
C996   O1058   1.283   .     A
C996   C1018   1.422   .     S
C996   O1059   1.283   .     A
C997   C999    1.396   .     A
C998   N1053   1.437   .     S
C998   C1000   1.404   .     A
C999   C1001   1.404   .     A
C999   N1054   1.437   .     S
C1000  C1006   1.422   .     A
C1000  C1002   1.419   .     A
C1001  C1008   1.422   .     A
C1001  C1003   1.419   .     A
C1002  C1004   1.419   .     A
C1002  C265    1.399   1_556 S
C1003  C1005   1.419   .     A
C1004  C1013   1.416   .     A
C1005  C1007   1.416   .     A
C1006  C1009   1.532   .     S
C1006  C269    1.412   1_556 S
C1007  N1055   1.435   .     S
C1008  C1011   1.532   .     S
C1009  H1031   1.105   .     S
C1009  C1010   1.530   .     S
C1009  H1032   1.102   .     S
C1010  H1028   1.108   .     S
C1010  H1029   1.111   .     S
C1010  H1027   1.111   .     S
C1011  H1036   1.105   .     S
C1011  H1037   1.102   .     S
C1011  C1012   1.530   .     S
C1012  H1035   1.111   .     S
C1012  H1034   1.108   .     S
C1012  H1033   1.111   .     S
C1013  N1056   1.435   .     S
C1013  C270    1.412   1_556 S
C1014  H1019   1.084   .     S
C1014  C1180   1.372   1_455 S
C1015  H1030   1.084   .     S
C1015  C1018   1.397   .     A
C1015  C1099   1.373   .     S
C1016  H1041   1.084   .     S
C1016  C1018   1.397   .     A
C1016  C1096   1.372   .     S
C1017  H1043   1.084   .     S
C1017  C1179   1.373   1_455 S
H1020  N1051   1.046   .     S
H1021  N1052   1.046   .     S
H1022  N1052   1.046   .     S
H1023  N1053   1.046   .     S
H1024  N1053   1.046   .     S
H1025  N1054   1.046   .     S
H1026  N1054   1.046   .     S
H1038  N1055   1.045   .     S
H1039  N1055   1.045   .     S
H1040  N1056   1.045   .     S
H1042  N1056   1.045   .     S
H1048  N1051   1.046   .     S
N1049  Zn1065  2.009   .     S
N1050  Zn1066  2.009   .     S
O1057  Zn1065  2.003   .     S
O1058  Zn1066  2.003   .     S
O1059  Zn1065  2.003   .     S
O1060  Zn1066  2.003   .     S
O1061  Zn1065  1.995   .     S
O1062  Zn1066  1.995   .     S
O1063  Zn1065  1.994   .     S
O1064  Zn1066  1.994   .     S
C1067  C1068   1.422   .     S
C1067  O1142   1.283   .     A
C1067  O1139   1.283   .     A
C1068  C1099   1.397   .     A
C1068  C1096   1.397   .     A
C1069  H1126   1.082   .     S
C1069  N1132   1.366   .     A
C1070  N1131   1.366   .     A
C1070  H1127   1.082   .     S
C1070  C1317   1.416   .     S
C1071  N1132   1.366   .     A
C1071  H1128   1.082   .     S
C1072  N1131   1.366   .     A
C1072  H1129   1.082   .     S
C1072  C1315   1.416   .     S
C1073  O1143   1.280   .     A
C1073  C1079   1.426   .     S
C1073  O1146   1.284   .     A
C1074  O1145   1.279   .     A
C1074  O1144   1.284   .     A
C1074  C1077   1.426   .     S
C1075  N1133   1.439   .     S
C1075  C1086   1.406   .     A
C1075  C1077   1.397   .     A
C1076  C1087   1.406   .     A
C1076  C1079   1.397   .     A
C1076  N1134   1.439   .     S
C1077  C1080   1.396   .     A
C1078  O1140   1.283   .     A
C1078  C1100   1.422   .     S
C1078  O1141   1.283   .     A
C1079  C1081   1.396   .     A
C1080  N1135   1.437   .     S
C1080  C1082   1.404   .     A
C1081  C1083   1.404   .     A
C1081  N1136   1.437   .     S
C1082  C1088   1.422   .     A
C1082  C1084   1.419   .     A
C1083  C1090   1.422   .     A
C1083  C1085   1.419   .     A
C1084  C1086   1.419   .     A
C1084  C347    1.399   1_556 S
C1085  C1087   1.419   .     A
C1086  C1095   1.416   .     A
C1087  C1089   1.416   .     A
C1088  C1091   1.532   .     S
C1088  C351    1.412   1_556 S
C1089  N1137   1.435   .     S
C1090  C1093   1.532   .     S
C1091  H1113   1.105   .     S
C1091  C1092   1.530   .     S
C1091  H1114   1.102   .     S
C1092  H1110   1.108   .     S
C1092  H1111   1.111   .     S
C1092  H1109   1.111   .     S
C1093  H1118   1.105   .     S
C1093  H1119   1.102   .     S
C1093  C1094   1.530   .     S
C1094  H1117   1.111   .     S
C1094  H1116   1.108   .     S
C1094  H1115   1.111   .     S
C1095  N1138   1.435   .     S
C1095  C352    1.412   1_556 S
C1096  H1101   1.084   .     S
C1097  H1112   1.084   .     S
C1097  C1100   1.397   .     A
C1097  C1181   1.373   .     S
C1098  H1123   1.084   .     S
C1098  C1100   1.397   .     A
C1098  C1178   1.372   .     S
C1099  H1125   1.084   .     S
H1102  N1133   1.046   .     S
H1103  N1134   1.046   .     S
H1104  N1134   1.046   .     S
H1105  N1135   1.046   .     S
H1106  N1135   1.046   .     S
H1107  N1136   1.046   .     S
H1108  N1136   1.046   .     S
H1120  N1137   1.045   .     S
H1121  N1137   1.045   .     S
H1122  N1138   1.045   .     S
H1124  N1138   1.045   .     S
H1130  N1133   1.046   .     S
N1131  Zn1147  2.009   .     S
N1132  Zn1148  2.009   .     S
O1139  Zn1147  2.003   .     S
O1140  Zn1148  2.003   .     S
O1141  Zn1147  2.003   .     S
O1142  Zn1148  2.003   .     S
O1143  Zn1147  1.995   .     S
O1144  Zn1148  1.995   .     S
O1145  Zn1147  1.994   .     S
O1146  Zn1148  1.994   .     S
C1149  C1150   1.422   .     S
C1149  O1224   1.283   .     A
C1149  O1221   1.283   .     A
C1150  C1181   1.397   .     A
C1150  C1178   1.397   .     A
C1151  H1208   1.082   .     S
C1151  N1214   1.366   .     A
C1152  N1213   1.366   .     A
C1152  H1209   1.082   .     S
C1152  C1399   1.416   .     S
C1153  N1214   1.366   .     A
C1153  H1210   1.082   .     S
C1154  N1213   1.366   .     A
C1154  H1211   1.082   .     S
C1154  C1397   1.416   .     S
C1155  O1225   1.280   .     A
C1155  C1161   1.426   .     S
C1155  O1228   1.284   .     A
C1156  O1227   1.279   .     A
C1156  O1226   1.284   .     A
C1156  C1159   1.426   .     S
C1157  N1215   1.439   .     S
C1157  C1168   1.406   .     A
C1157  C1159   1.397   .     A
C1158  C1169   1.406   .     A
C1158  C1161   1.397   .     A
C1158  N1216   1.439   .     S
C1159  C1162   1.396   .     A
C1160  O1222   1.283   .     A
C1160  C1182   1.422   .     S
C1160  O1223   1.283   .     A
C1161  C1163   1.396   .     A
C1162  N1217   1.437   .     S
C1162  C1164   1.404   .     A
C1163  C1165   1.404   .     A
C1163  N1218   1.437   .     S
C1164  C1170   1.422   .     A
C1164  C1166   1.419   .     A
C1165  C1172   1.422   .     A
C1165  C1167   1.419   .     A
C1166  C1168   1.419   .     A
C1166  C429    1.399   1_556 S
C1167  C1169   1.419   .     A
C1168  C1177   1.416   .     A
C1169  C1171   1.416   .     A
C1170  C1173   1.532   .     S
C1170  C433    1.412   1_556 S
C1171  N1219   1.435   .     S
C1172  C1175   1.532   .     S
C1173  H1195   1.105   .     S
C1173  C1174   1.530   .     S
C1173  H1196   1.102   .     S
C1174  H1192   1.108   .     S
C1174  H1193   1.111   .     S
C1174  H1191   1.111   .     S
C1175  H1200   1.105   .     S
C1175  H1201   1.102   .     S
C1175  C1176   1.530   .     S
C1176  H1199   1.111   .     S
C1176  H1198   1.108   .     S
C1176  H1197   1.111   .     S
C1177  N1220   1.435   .     S
C1177  C434    1.412   1_556 S
C1178  H1183   1.084   .     S
C1179  H1194   1.084   .     S
C1179  C1182   1.397   .     A
C1179  C1017   1.373   1_655 S
C1180  H1205   1.084   .     S
C1180  C1182   1.397   .     A
C1180  C1014   1.372   1_655 S
C1181  H1207   1.084   .     S
H1184  N1215   1.046   .     S
H1185  N1216   1.046   .     S
H1186  N1216   1.046   .     S
H1187  N1217   1.046   .     S
H1188  N1217   1.046   .     S
H1189  N1218   1.046   .     S
H1190  N1218   1.046   .     S
H1202  N1219   1.045   .     S
H1203  N1219   1.045   .     S
H1204  N1220   1.045   .     S
H1206  N1220   1.045   .     S
H1212  N1215   1.046   .     S
N1213  Zn1229  2.009   .     S
N1214  Zn1230  2.009   .     S
O1221  Zn1229  2.003   .     S
O1222  Zn1230  2.003   .     S
O1223  Zn1229  2.003   .     S
O1224  Zn1230  2.003   .     S
O1225  Zn1229  1.995   .     S
O1226  Zn1230  1.995   .     S
O1227  Zn1229  1.994   .     S
O1228  Zn1230  1.994   .     S
C1231  C1232   1.422   .     S
C1231  O1306   1.283   .     A
C1231  O1303   1.283   .     A
C1232  C1263   1.397   .     A
C1232  C1260   1.397   .     A
C1233  H1290   1.082   .     S
C1233  N1296   1.366   .     A
C1234  N1295   1.366   .     A
C1234  H1291   1.082   .     S
C1234  C743    1.416   1_565 S
C1235  N1296   1.366   .     A
C1235  H1292   1.082   .     S
C1236  N1295   1.366   .     A
C1236  H1293   1.082   .     S
C1236  C741    1.416   1_565 S
C1237  O1307   1.280   .     A
C1237  C1243   1.426   .     S
C1237  O1310   1.284   .     A
C1238  O1309   1.279   .     A
C1238  O1308   1.284   .     A
C1238  C1241   1.426   .     S
C1239  N1297   1.439   .     S
C1239  C1250   1.406   .     A
C1239  C1241   1.397   .     A
C1240  C1251   1.406   .     A
C1240  C1243   1.397   .     A
C1240  N1298   1.439   .     S
C1241  C1244   1.396   .     A
C1242  O1304   1.283   .     A
C1242  C1264   1.422   .     S
C1242  O1305   1.283   .     A
C1243  C1245   1.396   .     A
C1244  N1299   1.437   .     S
C1244  C1246   1.404   .     A
C1245  C1247   1.404   .     A
C1245  N1300   1.437   .     S
C1246  C1252   1.422   .     A
C1246  C1248   1.419   .     A
C1247  C1254   1.422   .     A
C1247  C1249   1.419   .     A
C1248  C1250   1.419   .     A
C1248  C511    1.399   1_556 S
C1249  C1251   1.419   .     A
C1250  C1259   1.416   .     A
C1251  C1253   1.416   .     A
C1252  C1255   1.532   .     S
C1252  C515    1.412   1_556 S
C1253  N1301   1.435   .     S
C1254  C1257   1.532   .     S
C1255  H1277   1.105   .     S
C1255  C1256   1.530   .     S
C1255  H1278   1.102   .     S
C1256  H1274   1.108   .     S
C1256  H1275   1.111   .     S
C1256  H1273   1.111   .     S
C1257  H1282   1.105   .     S
C1257  H1283   1.102   .     S
C1257  C1258   1.530   .     S
C1258  H1281   1.111   .     S
C1258  H1280   1.108   .     S
C1258  H1279   1.111   .     S
C1259  N1302   1.435   .     S
C1259  C516    1.412   1_556 S
C1260  H1265   1.084   .     S
C1260  C1426   1.372   1_455 S
C1261  H1276   1.084   .     S
C1261  C1264   1.397   .     A
C1261  C1345   1.373   .     S
C1262  H1287   1.084   .     S
C1262  C1264   1.397   .     A
C1262  C1342   1.372   .     S
C1263  H1289   1.084   .     S
C1263  C1425   1.373   1_455 S
H1266  N1297   1.046   .     S
H1267  N1298   1.046   .     S
H1268  N1298   1.046   .     S
H1269  N1299   1.046   .     S
H1270  N1299   1.046   .     S
H1271  N1300   1.046   .     S
H1272  N1300   1.046   .     S
H1284  N1301   1.045   .     S
H1285  N1301   1.045   .     S
H1286  N1302   1.045   .     S
H1288  N1302   1.045   .     S
H1294  N1297   1.046   .     S
N1295  Zn1311  2.009   .     S
N1296  Zn1312  2.009   .     S
O1303  Zn1311  2.003   .     S
O1304  Zn1312  2.003   .     S
O1305  Zn1311  2.003   .     S
O1306  Zn1312  2.003   .     S
O1307  Zn1311  1.995   .     S
O1308  Zn1312  1.995   .     S
O1309  Zn1311  1.994   .     S
O1310  Zn1312  1.994   .     S
C1313  C1314   1.422   .     S
C1313  O1388   1.283   .     A
C1313  O1385   1.283   .     A
C1314  C1345   1.397   .     A
C1314  C1342   1.397   .     A
C1315  H1372   1.082   .     S
C1315  N1378   1.366   .     A
C1316  N1377   1.366   .     A
C1316  H1373   1.082   .     S
C1316  C825    1.416   1_565 S
C1317  N1378   1.366   .     A
C1317  H1374   1.082   .     S
C1318  N1377   1.366   .     A
C1318  H1375   1.082   .     S
C1318  C823    1.416   1_565 S
C1319  O1389   1.280   .     A
C1319  C1325   1.426   .     S
C1319  O1392   1.284   .     A
C1320  O1391   1.279   .     A
C1320  O1390   1.284   .     A
C1320  C1323   1.426   .     S
C1321  N1379   1.439   .     S
C1321  C1332   1.406   .     A
C1321  C1323   1.397   .     A
C1322  C1333   1.406   .     A
C1322  C1325   1.397   .     A
C1322  N1380   1.439   .     S
C1323  C1326   1.396   .     A
C1324  O1386   1.283   .     A
C1324  C1346   1.422   .     S
C1324  O1387   1.283   .     A
C1325  C1327   1.396   .     A
C1326  N1381   1.437   .     S
C1326  C1328   1.404   .     A
C1327  C1329   1.404   .     A
C1327  N1382   1.437   .     S
C1328  C1334   1.422   .     A
C1328  C1330   1.419   .     A
C1329  C1336   1.422   .     A
C1329  C1331   1.419   .     A
C1330  C1332   1.419   .     A
C1330  C593    1.399   1_556 S
C1331  C1333   1.419   .     A
C1332  C1341   1.416   .     A
C1333  C1335   1.416   .     A
C1334  C1337   1.532   .     S
C1334  C597    1.412   1_556 S
C1335  N1383   1.435   .     S
C1336  C1339   1.532   .     S
C1337  H1359   1.105   .     S
C1337  C1338   1.530   .     S
C1337  H1360   1.102   .     S
C1338  H1356   1.108   .     S
C1338  H1357   1.111   .     S
C1338  H1355   1.111   .     S
C1339  H1364   1.105   .     S
C1339  H1365   1.102   .     S
C1339  C1340   1.530   .     S
C1340  H1363   1.111   .     S
C1340  H1362   1.108   .     S
C1340  H1361   1.111   .     S
C1341  N1384   1.435   .     S
C1341  C598    1.412   1_556 S
C1342  H1347   1.084   .     S
C1343  H1358   1.084   .     S
C1343  C1346   1.397   .     A
C1343  C1427   1.373   .     S
C1344  H1369   1.084   .     S
C1344  C1346   1.397   .     A
C1344  C1424   1.372   .     S
C1345  H1371   1.084   .     S
H1348  N1379   1.046   .     S
H1349  N1380   1.046   .     S
H1350  N1380   1.046   .     S
H1351  N1381   1.046   .     S
H1352  N1381   1.046   .     S
H1353  N1382   1.046   .     S
H1354  N1382   1.046   .     S
H1366  N1383   1.045   .     S
H1367  N1383   1.045   .     S
H1368  N1384   1.045   .     S
H1370  N1384   1.045   .     S
H1376  N1379   1.046   .     S
N1377  Zn1393  2.009   .     S
N1378  Zn1394  2.009   .     S
O1385  Zn1393  2.003   .     S
O1386  Zn1394  2.003   .     S
O1387  Zn1393  2.003   .     S
O1388  Zn1394  2.003   .     S
O1389  Zn1393  1.995   .     S
O1390  Zn1394  1.995   .     S
O1391  Zn1393  1.994   .     S
O1392  Zn1394  1.994   .     S
C1395  C1396   1.422   .     S
C1395  O1470   1.283   .     A
C1395  O1467   1.283   .     A
C1396  C1427   1.397   .     A
C1396  C1424   1.397   .     A
C1397  H1454   1.082   .     S
C1397  N1460   1.366   .     A
C1398  N1459   1.366   .     A
C1398  H1455   1.082   .     S
C1398  C907    1.416   1_565 S
C1399  N1460   1.366   .     A
C1399  H1456   1.082   .     S
C1400  N1459   1.366   .     A
C1400  H1457   1.082   .     S
C1400  C905    1.416   1_565 S
C1401  O1471   1.280   .     A
C1401  C1407   1.426   .     S
C1401  O1474   1.284   .     A
C1402  O1473   1.279   .     A
C1402  O1472   1.284   .     A
C1402  C1405   1.426   .     S
C1403  N1461   1.439   .     S
C1403  C1414   1.406   .     A
C1403  C1405   1.397   .     A
C1404  C1415   1.406   .     A
C1404  C1407   1.397   .     A
C1404  N1462   1.439   .     S
C1405  C1408   1.396   .     A
C1406  O1468   1.283   .     A
C1406  C1428   1.422   .     S
C1406  O1469   1.283   .     A
C1407  C1409   1.396   .     A
C1408  N1463   1.437   .     S
C1408  C1410   1.404   .     A
C1409  C1411   1.404   .     A
C1409  N1464   1.437   .     S
C1410  C1416   1.422   .     A
C1410  C1412   1.419   .     A
C1411  C1418   1.422   .     A
C1411  C1413   1.419   .     A
C1412  C1414   1.419   .     A
C1412  C675    1.399   1_556 S
C1413  C1415   1.419   .     A
C1414  C1423   1.416   .     A
C1415  C1417   1.416   .     A
C1416  C1419   1.532   .     S
C1416  C679    1.412   1_556 S
C1417  N1465   1.435   .     S
C1418  C1421   1.532   .     S
C1419  H1441   1.105   .     S
C1419  C1420   1.530   .     S
C1419  H1442   1.102   .     S
C1420  H1438   1.108   .     S
C1420  H1439   1.111   .     S
C1420  H1437   1.111   .     S
C1421  H1446   1.105   .     S
C1421  H1447   1.102   .     S
C1421  C1422   1.530   .     S
C1422  H1445   1.111   .     S
C1422  H1444   1.108   .     S
C1422  H1443   1.111   .     S
C1423  N1466   1.435   .     S
C1423  C680    1.412   1_556 S
C1424  H1429   1.084   .     S
C1425  H1440   1.084   .     S
C1425  C1428   1.397   .     A
C1425  C1263   1.373   1_655 S
C1426  H1451   1.084   .     S
C1426  C1428   1.397   .     A
C1426  C1260   1.372   1_655 S
C1427  H1453   1.084   .     S
H1430  N1461   1.046   .     S
H1431  N1462   1.046   .     S
H1432  N1462   1.046   .     S
H1433  N1463   1.046   .     S
H1434  N1463   1.046   .     S
H1435  N1464   1.046   .     S
H1436  N1464   1.046   .     S
H1448  N1465   1.045   .     S
H1449  N1465   1.045   .     S
H1450  N1466   1.045   .     S
H1452  N1466   1.045   .     S
H1458  N1461   1.046   .     S
N1459  Zn1475  2.009   .     S
N1460  Zn1476  2.009   .     S
O1467  Zn1475  2.003   .     S
O1468  Zn1476  2.003   .     S
O1469  Zn1475  2.003   .     S
O1470  Zn1476  2.003   .     S
O1471  Zn1475  1.995   .     S
O1472  Zn1476  1.995   .     S
O1473  Zn1475  1.994   .     S
O1474  Zn1476  1.994   .     S
