data_str_m3_o1_o10_pcu_sym.200
_audit_creation_date              2020-01-03
_audit_creation_method            'Materials Studio'
_symmetry_space_group_name_H-M    'P1'
_symmetry_Int_Tables_number       1
_symmetry_cell_setting            triclinic
loop_
_symmetry_equiv_pos_as_xyz
  x,y,z
_cell_length_a                    25.9221
_cell_length_b                    32.5388
_cell_length_c                    29.9370
_cell_angle_alpha                 88.7501
_cell_angle_beta                  98.3474
_cell_angle_gamma                 93.2991
loop_
_atom_site_label
_atom_site_type_symbol
_atom_site_fract_x
_atom_site_fract_y
_atom_site_fract_z
_atom_site_U_iso_or_equiv
_atom_site_adp_type
_atom_site_occupancy
C1     C     0.16379   0.08668   0.16680   0.00000  Uiso   1.00
C2     C     0.16399   0.24657   0.16589   0.00000  Uiso   1.00
C3     C     0.06723   0.16391   0.15511   0.00000  Uiso   1.00
C4     C     0.26600   0.16496   0.17857   0.00000  Uiso   1.00
C5     C     0.01225   0.15688   0.15018   0.00000  Uiso   1.00
C6     C     0.32107   0.16364   0.18524   0.00000  Uiso   1.00
C7     C     0.14134   0.02186   0.12614   0.00000  Uiso   1.00
C8     C     0.15383   0.31050   0.20545   0.00000  Uiso   1.00
C9     C     0.15006   0.31342   0.12406   0.00000  Uiso   1.00
C10    C     0.16292   0.01941   0.20742   0.00000  Uiso   1.00
C11    C     0.15704   0.29065   0.16475   0.00000  Uiso   1.00
C12    C     0.15697   0.04228   0.16695   0.00000  Uiso   1.00
C13    C     0.19930   0.19371   0.02756   0.00000  Uiso   1.00
C14    C     0.13161   0.14159   0.30515   0.00000  Uiso   1.00
C15    C     0.19733   0.19531   0.31250   0.00000  Uiso   1.00
C16    C     0.12874   0.14489   0.01957   0.00000  Uiso   1.00
H17    H     0.32543   0.14588   0.11818   0.00000  Uiso   1.00
H18    H     0.00823   0.17069   0.21865   0.00000  Uiso   1.00
N19    N     0.16665   0.16666   0.28573   0.00000  Uiso   1.00
N20    N     0.16668   0.16668   0.04760   0.00000  Uiso   1.00
O21    O     0.16666   0.10558   0.20487   0.00000  Uiso   1.00
O22    O     0.16667   0.22775   0.12846   0.00000  Uiso   1.00
O23    O     0.16666   0.10559   0.12843   0.00000  Uiso   1.00
O24    O     0.16667   0.22774   0.20490   0.00000  Uiso   1.00
O25    O     0.09058   0.16666   0.19595   0.00000  Uiso   1.00
O26    O     0.24275   0.16667   0.13739   0.00000  Uiso   1.00
O27    O     0.09058   0.16667   0.11950   0.00000  Uiso   1.00
O28    O     0.24275   0.16666   0.21383   0.00000  Uiso   1.00
Zn29   Zn    0.16667   0.16666   0.21771   0.00000  Uiso   1.00
Zn30   Zn    0.16667   0.16667   0.11563   0.00000  Uiso   1.00
O31    O     0.11660   0.04211   0.08859   0.00000  Uiso   1.00
C32    C     0.06208   0.04008   0.09001   0.00000  Uiso   1.00
H33    H     0.04756   0.07091   0.08115   0.00000  Uiso   1.00
H34    H     0.05065   0.03227   0.12394   0.00000  Uiso   1.00
C35    C     0.03426   0.00943   0.05559   0.00000  Uiso   1.00
H36    H     0.04475   0.31101   0.06577   0.00000  Uiso   1.00
H37    H     0.32469   0.01132   0.05353   0.00000  Uiso   1.00
H38    H     0.04543   0.01620   0.02175   0.00000  Uiso   1.00
O39    O     0.13883   0.28932   0.24237   0.00000  Uiso   1.00
C40    C     0.08429   0.27961   0.23328   0.00000  Uiso   1.00
H41    H     0.07044   0.27081   0.19750   0.00000  Uiso   1.00
H42    H     0.06282   0.30639   0.24096   0.00000  Uiso   1.00
C43    C     0.06961   0.24337   0.26243   0.00000  Uiso   1.00
H44    H     0.07461   0.25182   0.29834   0.00000  Uiso   1.00
H45    H     0.02825   0.23342   0.25173   0.00000  Uiso   1.00
H46    H     0.09406   0.21739   0.25867   0.00000  Uiso   1.00
O47    O     0.14353   0.29403   0.08295   0.00000  Uiso   1.00
C48    C     0.17947   0.31172   0.05580   0.00000  Uiso   1.00
H49    H     0.21797   0.29878   0.06554   0.00000  Uiso   1.00
H50    H     0.18604   0.01231   0.05810   0.00000  Uiso   1.00
C51    C     0.15915   0.30192   0.00731   0.00000  Uiso   1.00
H52    H     0.12281   0.31805   0.32945   0.00000  Uiso   1.00
H53    H     0.18871   0.31173   0.31907   0.00000  Uiso   1.00
H54    H     0.15101   0.26837   0.00430   0.00000  Uiso   1.00
O55    O     0.17130   0.03815   0.24876   0.00000  Uiso   1.00
C56    C     0.22543   0.04106   0.26366   0.00000  Uiso   1.00
H57    H     0.24689   0.05916   0.23945   0.00000  Uiso   1.00
H58    H     0.24087   0.01001   0.26802   0.00000  Uiso   1.00
C59    C     0.23532   0.06240   0.30886   0.00000  Uiso   1.00
H60    H     0.27528   0.05657   0.32563   0.00000  Uiso   1.00
H61    H     0.23050   0.09589   0.30368   0.00000  Uiso   1.00
H62    H     0.20723   0.05052   0.33110   0.00000  Uiso   1.00
O63    O     0.22403   0.22589   0.05317   0.00000  Uiso   1.00
C64    C     0.27761   0.21946   0.06448   0.00000  Uiso   1.00
H65    H     0.29875   0.22656   0.03591   0.00000  Uiso   1.00
H66    H     0.28423   0.18725   0.07399   0.00000  Uiso   1.00
C67    C     0.30149   0.24736   0.10320   0.00000  Uiso   1.00
H68    H     0.27988   0.24292   0.13246   0.00000  Uiso   1.00
H69    H     0.00965   0.24053   0.11384   0.00000  Uiso   1.00
H70    H     0.30014   0.28002   0.09225   0.00000  Uiso   1.00
O71    O     0.09221   0.12138   0.27596   0.00000  Uiso   1.00
C72    C     0.08131   0.08048   0.28995   0.00000  Uiso   1.00
H73    H     0.06071   0.07907   0.31962   0.00000  Uiso   1.00
H74    H     0.11721   0.06347   0.29868   0.00000  Uiso   1.00
C75    C     0.04468   0.05898   0.25225   0.00000  Uiso   1.00
H76    H     0.01130   0.07835   0.24054   0.00000  Uiso   1.00
H77    H     0.06553   0.05349   0.22327   0.00000  Uiso   1.00
H78    H     0.02884   0.02934   0.26503   0.00000  Uiso   1.00
O79    O     0.21183   0.23243   0.29288   0.00000  Uiso   1.00
C80    C     0.26310   0.23359   0.28195   0.00000  Uiso   1.00
H81    H     0.26078   0.23416   0.24475   0.00000  Uiso   1.00
H82    H     0.28578   0.20677   0.29463   0.00000  Uiso   1.00
C83    C     0.29276   0.27374   0.29871   0.00000  Uiso   1.00
H84    H     0.27155   0.29004   0.32192   0.00000  Uiso   1.00
H85    H     0.33142   0.26753   0.31773   0.00000  Uiso   1.00
H86    H     0.29943   0.29427   0.26975   0.00000  Uiso   1.00
O87    O     0.08392   0.13169   0.03655   0.00000  Uiso   1.00
C88    C     0.04351   0.15858   0.02116   0.00000  Uiso   1.00
H89    H     0.04851   0.17615   0.32288   0.00000  Uiso   1.00
H90    H     0.04111   0.18168   0.04726   0.00000  Uiso   1.00
C91    C     0.32519   0.13371   0.01230   0.00000  Uiso   1.00
H92    H     0.32074   0.11172   0.04043   0.00000  Uiso   1.00
H93    H     0.29206   0.15382   0.00875   0.00000  Uiso   1.00
H94    H     0.32311   0.11725   0.31340   0.00000  Uiso   1.00
C95    C     0.49713   0.08668   0.16680   0.00000  Uiso   1.00
C96    C     0.49733   0.24657   0.16589   0.00000  Uiso   1.00
C97    C     0.40056   0.16391   0.15511   0.00000  Uiso   1.00
C98    C     0.59933   0.16496   0.17857   0.00000  Uiso   1.00
C99    C     0.34558   0.15688   0.15018   0.00000  Uiso   1.00
C100   C     0.65440   0.16364   0.18524   0.00000  Uiso   1.00
C101   C     0.47467   0.02186   0.12614   0.00000  Uiso   1.00
C102   C     0.48716   0.31050   0.20545   0.00000  Uiso   1.00
C103   C     0.48340   0.31342   0.12406   0.00000  Uiso   1.00
C104   C     0.49625   0.01941   0.20742   0.00000  Uiso   1.00
C105   C     0.49038   0.29065   0.16475   0.00000  Uiso   1.00
C106   C     0.49031   0.04228   0.16695   0.00000  Uiso   1.00
C107   C     0.53263   0.19371   0.02756   0.00000  Uiso   1.00
C108   C     0.46494   0.14159   0.30515   0.00000  Uiso   1.00
C109   C     0.53066   0.19531   0.31250   0.00000  Uiso   1.00
C110   C     0.46208   0.14489   0.01957   0.00000  Uiso   1.00
H111   H     0.65876   0.14588   0.11818   0.00000  Uiso   1.00
H112   H     0.34156   0.17069   0.21865   0.00000  Uiso   1.00
N113   N     0.49999   0.16666   0.28573   0.00000  Uiso   1.00
N114   N     0.50001   0.16668   0.04760   0.00000  Uiso   1.00
O115   O     0.50000   0.10558   0.20487   0.00000  Uiso   1.00
O116   O     0.50000   0.22775   0.12846   0.00000  Uiso   1.00
O117   O     0.50000   0.10559   0.12843   0.00000  Uiso   1.00
O118   O     0.50000   0.22774   0.20490   0.00000  Uiso   1.00
O119   O     0.42392   0.16666   0.19595   0.00000  Uiso   1.00
O120   O     0.57608   0.16667   0.13739   0.00000  Uiso   1.00
O121   O     0.42392   0.16667   0.11950   0.00000  Uiso   1.00
O122   O     0.57608   0.16666   0.21383   0.00000  Uiso   1.00
Zn123  Zn    0.50000   0.16666   0.21771   0.00000  Uiso   1.00
Zn124  Zn    0.50000   0.16667   0.11563   0.00000  Uiso   1.00
O125   O     0.44993   0.04211   0.08859   0.00000  Uiso   1.00
C126   C     0.39542   0.04008   0.09001   0.00000  Uiso   1.00
H127   H     0.38089   0.07091   0.08115   0.00000  Uiso   1.00
H128   H     0.38398   0.03227   0.12394   0.00000  Uiso   1.00
C129   C     0.36760   0.00943   0.05559   0.00000  Uiso   1.00
H130   H     0.37808   0.31101   0.06577   0.00000  Uiso   1.00
H131   H     0.65802   0.01132   0.05353   0.00000  Uiso   1.00
H132   H     0.37876   0.01620   0.02175   0.00000  Uiso   1.00
O133   O     0.47216   0.28932   0.24237   0.00000  Uiso   1.00
C134   C     0.41762   0.27961   0.23328   0.00000  Uiso   1.00
H135   H     0.40377   0.27081   0.19750   0.00000  Uiso   1.00
H136   H     0.39615   0.30639   0.24096   0.00000  Uiso   1.00
C137   C     0.40295   0.24337   0.26243   0.00000  Uiso   1.00
H138   H     0.40794   0.25182   0.29834   0.00000  Uiso   1.00
H139   H     0.36158   0.23342   0.25173   0.00000  Uiso   1.00
H140   H     0.42739   0.21739   0.25867   0.00000  Uiso   1.00
O141   O     0.47687   0.29403   0.08295   0.00000  Uiso   1.00
C142   C     0.51281   0.31172   0.05580   0.00000  Uiso   1.00
H143   H     0.55130   0.29878   0.06554   0.00000  Uiso   1.00
H144   H     0.51937   0.01231   0.05810   0.00000  Uiso   1.00
C145   C     0.49248   0.30192   0.00731   0.00000  Uiso   1.00
H146   H     0.45614   0.31805   0.32945   0.00000  Uiso   1.00
H147   H     0.52205   0.31173   0.31907   0.00000  Uiso   1.00
H148   H     0.48435   0.26837   0.00430   0.00000  Uiso   1.00
O149   O     0.50463   0.03815   0.24876   0.00000  Uiso   1.00
C150   C     0.55876   0.04106   0.26366   0.00000  Uiso   1.00
H151   H     0.58023   0.05916   0.23945   0.00000  Uiso   1.00
H152   H     0.57421   0.01001   0.26802   0.00000  Uiso   1.00
C153   C     0.56866   0.06240   0.30886   0.00000  Uiso   1.00
H154   H     0.60862   0.05657   0.32563   0.00000  Uiso   1.00
H155   H     0.56383   0.09589   0.30368   0.00000  Uiso   1.00
H156   H     0.54057   0.05052   0.33110   0.00000  Uiso   1.00
O157   O     0.55736   0.22589   0.05317   0.00000  Uiso   1.00
C158   C     0.61094   0.21946   0.06448   0.00000  Uiso   1.00
H159   H     0.63208   0.22656   0.03591   0.00000  Uiso   1.00
H160   H     0.61756   0.18725   0.07399   0.00000  Uiso   1.00
C161   C     0.63482   0.24736   0.10320   0.00000  Uiso   1.00
H162   H     0.61321   0.24292   0.13246   0.00000  Uiso   1.00
H163   H     0.34298   0.24053   0.11384   0.00000  Uiso   1.00
H164   H     0.63347   0.28002   0.09225   0.00000  Uiso   1.00
O165   O     0.42554   0.12138   0.27596   0.00000  Uiso   1.00
C166   C     0.41465   0.08048   0.28995   0.00000  Uiso   1.00
H167   H     0.39404   0.07907   0.31962   0.00000  Uiso   1.00
H168   H     0.45055   0.06347   0.29868   0.00000  Uiso   1.00
C169   C     0.37801   0.05898   0.25225   0.00000  Uiso   1.00
H170   H     0.34464   0.07835   0.24054   0.00000  Uiso   1.00
H171   H     0.39886   0.05349   0.22327   0.00000  Uiso   1.00
H172   H     0.36217   0.02934   0.26503   0.00000  Uiso   1.00
O173   O     0.54516   0.23243   0.29288   0.00000  Uiso   1.00
C174   C     0.59644   0.23359   0.28195   0.00000  Uiso   1.00
H175   H     0.59411   0.23416   0.24475   0.00000  Uiso   1.00
H176   H     0.61911   0.20677   0.29463   0.00000  Uiso   1.00
C177   C     0.62609   0.27374   0.29871   0.00000  Uiso   1.00
H178   H     0.60489   0.29004   0.32192   0.00000  Uiso   1.00
H179   H     0.66475   0.26753   0.31773   0.00000  Uiso   1.00
H180   H     0.63276   0.29427   0.26975   0.00000  Uiso   1.00
O181   O     0.41725   0.13169   0.03655   0.00000  Uiso   1.00
C182   C     0.37685   0.15858   0.02116   0.00000  Uiso   1.00
H183   H     0.38184   0.17615   0.32288   0.00000  Uiso   1.00
H184   H     0.37444   0.18168   0.04726   0.00000  Uiso   1.00
C185   C     0.65853   0.13371   0.01230   0.00000  Uiso   1.00
H186   H     0.65407   0.11172   0.04043   0.00000  Uiso   1.00
H187   H     0.62539   0.15382   0.00875   0.00000  Uiso   1.00
H188   H     0.65644   0.11725   0.31340   0.00000  Uiso   1.00
C189   C     0.83046   0.08668   0.16680   0.00000  Uiso   1.00
C190   C     0.83066   0.24657   0.16589   0.00000  Uiso   1.00
C191   C     0.73389   0.16391   0.15511   0.00000  Uiso   1.00
C192   C     0.93266   0.16496   0.17857   0.00000  Uiso   1.00
C193   C     0.67892   0.15688   0.15018   0.00000  Uiso   1.00
C194   C     0.98774   0.16364   0.18524   0.00000  Uiso   1.00
C195   C     0.80801   0.02186   0.12614   0.00000  Uiso   1.00
C196   C     0.82049   0.31050   0.20545   0.00000  Uiso   1.00
C197   C     0.81673   0.31342   0.12406   0.00000  Uiso   1.00
C198   C     0.82958   0.01941   0.20742   0.00000  Uiso   1.00
C199   C     0.82371   0.29065   0.16475   0.00000  Uiso   1.00
C200   C     0.82364   0.04228   0.16695   0.00000  Uiso   1.00
C201   C     0.86596   0.19371   0.02756   0.00000  Uiso   1.00
C202   C     0.79828   0.14159   0.30515   0.00000  Uiso   1.00
C203   C     0.86399   0.19531   0.31250   0.00000  Uiso   1.00
C204   C     0.79541   0.14489   0.01957   0.00000  Uiso   1.00
H205   H     0.99209   0.14588   0.11818   0.00000  Uiso   1.00
H206   H     0.67489   0.17069   0.21865   0.00000  Uiso   1.00
N207   N     0.83332   0.16666   0.28573   0.00000  Uiso   1.00
N208   N     0.83335   0.16668   0.04760   0.00000  Uiso   1.00
O209   O     0.83333   0.10558   0.20487   0.00000  Uiso   1.00
O210   O     0.83334   0.22775   0.12846   0.00000  Uiso   1.00
O211   O     0.83333   0.10559   0.12843   0.00000  Uiso   1.00
O212   O     0.83334   0.22774   0.20490   0.00000  Uiso   1.00
O213   O     0.75725   0.16666   0.19595   0.00000  Uiso   1.00
O214   O     0.90942   0.16667   0.13739   0.00000  Uiso   1.00
O215   O     0.75725   0.16667   0.11950   0.00000  Uiso   1.00
O216   O     0.90942   0.16666   0.21383   0.00000  Uiso   1.00
Zn217  Zn    0.83333   0.16666   0.21771   0.00000  Uiso   1.00
Zn218  Zn    0.83333   0.16667   0.11563   0.00000  Uiso   1.00
O219   O     0.78327   0.04211   0.08859   0.00000  Uiso   1.00
C220   C     0.72875   0.04008   0.09001   0.00000  Uiso   1.00
H221   H     0.71423   0.07091   0.08115   0.00000  Uiso   1.00
H222   H     0.71731   0.03227   0.12394   0.00000  Uiso   1.00
C223   C     0.70093   0.00943   0.05559   0.00000  Uiso   1.00
H224   H     0.71141   0.31101   0.06577   0.00000  Uiso   1.00
H225   H     0.99136   0.01132   0.05353   0.00000  Uiso   1.00
H226   H     0.71209   0.01620   0.02175   0.00000  Uiso   1.00
O227   O     0.80550   0.28932   0.24237   0.00000  Uiso   1.00
C228   C     0.75096   0.27961   0.23328   0.00000  Uiso   1.00
H229   H     0.73710   0.27081   0.19750   0.00000  Uiso   1.00
H230   H     0.72949   0.30639   0.24096   0.00000  Uiso   1.00
C231   C     0.73628   0.24337   0.26243   0.00000  Uiso   1.00
H232   H     0.74128   0.25182   0.29834   0.00000  Uiso   1.00
H233   H     0.69491   0.23342   0.25173   0.00000  Uiso   1.00
H234   H     0.76072   0.21739   0.25867   0.00000  Uiso   1.00
O235   O     0.81020   0.29403   0.08295   0.00000  Uiso   1.00
C236   C     0.84614   0.31172   0.05580   0.00000  Uiso   1.00
H237   H     0.88463   0.29878   0.06554   0.00000  Uiso   1.00
H238   H     0.85270   0.01231   0.05810   0.00000  Uiso   1.00
C239   C     0.82581   0.30192   0.00731   0.00000  Uiso   1.00
H240   H     0.78948   0.31805   0.32945   0.00000  Uiso   1.00
H241   H     0.85538   0.31173   0.31907   0.00000  Uiso   1.00
H242   H     0.81768   0.26837   0.00430   0.00000  Uiso   1.00
O243   O     0.83797   0.03815   0.24876   0.00000  Uiso   1.00
C244   C     0.89210   0.04106   0.26366   0.00000  Uiso   1.00
H245   H     0.91356   0.05916   0.23945   0.00000  Uiso   1.00
H246   H     0.90754   0.01001   0.26802   0.00000  Uiso   1.00
C247   C     0.90199   0.06240   0.30886   0.00000  Uiso   1.00
H248   H     0.94195   0.05657   0.32563   0.00000  Uiso   1.00
H249   H     0.89716   0.09589   0.30368   0.00000  Uiso   1.00
H250   H     0.87390   0.05052   0.33110   0.00000  Uiso   1.00
O251   O     0.89069   0.22589   0.05317   0.00000  Uiso   1.00
C252   C     0.94428   0.21946   0.06448   0.00000  Uiso   1.00
H253   H     0.96542   0.22656   0.03591   0.00000  Uiso   1.00
H254   H     0.95089   0.18725   0.07399   0.00000  Uiso   1.00
C255   C     0.96816   0.24736   0.10320   0.00000  Uiso   1.00
H256   H     0.94655   0.24292   0.13246   0.00000  Uiso   1.00
H257   H     0.67631   0.24053   0.11384   0.00000  Uiso   1.00
H258   H     0.96680   0.28002   0.09225   0.00000  Uiso   1.00
O259   O     0.75888   0.12138   0.27596   0.00000  Uiso   1.00
C260   C     0.74798   0.08048   0.28995   0.00000  Uiso   1.00
H261   H     0.72738   0.07907   0.31962   0.00000  Uiso   1.00
H262   H     0.78388   0.06347   0.29868   0.00000  Uiso   1.00
C263   C     0.71135   0.05898   0.25225   0.00000  Uiso   1.00
H264   H     0.67797   0.07835   0.24054   0.00000  Uiso   1.00
H265   H     0.73220   0.05349   0.22327   0.00000  Uiso   1.00
H266   H     0.69551   0.02934   0.26503   0.00000  Uiso   1.00
O267   O     0.87849   0.23243   0.29288   0.00000  Uiso   1.00
C268   C     0.92977   0.23359   0.28195   0.00000  Uiso   1.00
H269   H     0.92745   0.23416   0.24475   0.00000  Uiso   1.00
H270   H     0.95244   0.20677   0.29463   0.00000  Uiso   1.00
C271   C     0.95943   0.27374   0.29871   0.00000  Uiso   1.00
H272   H     0.93822   0.29004   0.32192   0.00000  Uiso   1.00
H273   H     0.99808   0.26753   0.31773   0.00000  Uiso   1.00
H274   H     0.96609   0.29427   0.26975   0.00000  Uiso   1.00
O275   O     0.75058   0.13169   0.03655   0.00000  Uiso   1.00
C276   C     0.71018   0.15858   0.02116   0.00000  Uiso   1.00
H277   H     0.71517   0.17615   0.32288   0.00000  Uiso   1.00
H278   H     0.70778   0.18168   0.04726   0.00000  Uiso   1.00
C279   C     0.99186   0.13371   0.01230   0.00000  Uiso   1.00
H280   H     0.98741   0.11172   0.04043   0.00000  Uiso   1.00
H281   H     0.95873   0.15382   0.00875   0.00000  Uiso   1.00
H282   H     0.98977   0.11725   0.31340   0.00000  Uiso   1.00
C283   C     0.16379   0.42001   0.16680   0.00000  Uiso   1.00
C284   C     0.16399   0.57991   0.16589   0.00000  Uiso   1.00
C285   C     0.06723   0.49724   0.15511   0.00000  Uiso   1.00
C286   C     0.26600   0.49829   0.17857   0.00000  Uiso   1.00
C287   C     0.01225   0.49022   0.15018   0.00000  Uiso   1.00
C288   C     0.32107   0.49697   0.18524   0.00000  Uiso   1.00
C289   C     0.14134   0.35519   0.12614   0.00000  Uiso   1.00
C290   C     0.15383   0.64383   0.20545   0.00000  Uiso   1.00
C291   C     0.15006   0.64676   0.12406   0.00000  Uiso   1.00
C292   C     0.16292   0.35274   0.20742   0.00000  Uiso   1.00
C293   C     0.15704   0.62399   0.16475   0.00000  Uiso   1.00
C294   C     0.15697   0.37561   0.16695   0.00000  Uiso   1.00
C295   C     0.19930   0.52704   0.02756   0.00000  Uiso   1.00
C296   C     0.13161   0.47492   0.30515   0.00000  Uiso   1.00
C297   C     0.19733   0.52864   0.31250   0.00000  Uiso   1.00
C298   C     0.12874   0.47823   0.01957   0.00000  Uiso   1.00
H299   H     0.32543   0.47921   0.11818   0.00000  Uiso   1.00
H300   H     0.00823   0.50403   0.21865   0.00000  Uiso   1.00
N301   N     0.16665   0.49999   0.28573   0.00000  Uiso   1.00
N302   N     0.16668   0.50001   0.04760   0.00000  Uiso   1.00
O303   O     0.16666   0.43892   0.20487   0.00000  Uiso   1.00
O304   O     0.16667   0.56108   0.12846   0.00000  Uiso   1.00
O305   O     0.16666   0.43893   0.12843   0.00000  Uiso   1.00
O306   O     0.16667   0.56107   0.20490   0.00000  Uiso   1.00
O307   O     0.09058   0.50000   0.19595   0.00000  Uiso   1.00
O308   O     0.24275   0.50000   0.13739   0.00000  Uiso   1.00
O309   O     0.09058   0.50000   0.11950   0.00000  Uiso   1.00
O310   O     0.24275   0.50000   0.21383   0.00000  Uiso   1.00
Zn311  Zn    0.16667   0.49999   0.21771   0.00000  Uiso   1.00
Zn312  Zn    0.16667   0.50001   0.11563   0.00000  Uiso   1.00
O313   O     0.11660   0.37545   0.08859   0.00000  Uiso   1.00
C314   C     0.06208   0.37341   0.09001   0.00000  Uiso   1.00
H315   H     0.04756   0.40424   0.08115   0.00000  Uiso   1.00
H316   H     0.05065   0.36560   0.12394   0.00000  Uiso   1.00
C317   C     0.03426   0.34277   0.05559   0.00000  Uiso   1.00
H318   H     0.04475   0.64434   0.06577   0.00000  Uiso   1.00
H319   H     0.32469   0.34465   0.05353   0.00000  Uiso   1.00
H320   H     0.04543   0.34953   0.02175   0.00000  Uiso   1.00
O321   O     0.13883   0.62266   0.24237   0.00000  Uiso   1.00
C322   C     0.08429   0.61294   0.23328   0.00000  Uiso   1.00
H323   H     0.07044   0.60414   0.19750   0.00000  Uiso   1.00
H324   H     0.06282   0.63972   0.24096   0.00000  Uiso   1.00
C325   C     0.06961   0.57670   0.26243   0.00000  Uiso   1.00
H326   H     0.07461   0.58516   0.29834   0.00000  Uiso   1.00
H327   H     0.02825   0.56675   0.25173   0.00000  Uiso   1.00
H328   H     0.09406   0.55072   0.25867   0.00000  Uiso   1.00
O329   O     0.14353   0.62737   0.08295   0.00000  Uiso   1.00
C330   C     0.17947   0.64506   0.05580   0.00000  Uiso   1.00
H331   H     0.21797   0.63211   0.06554   0.00000  Uiso   1.00
H332   H     0.18604   0.34564   0.05810   0.00000  Uiso   1.00
C333   C     0.15915   0.63525   0.00731   0.00000  Uiso   1.00
H334   H     0.12281   0.65138   0.32945   0.00000  Uiso   1.00
H335   H     0.18871   0.64507   0.31907   0.00000  Uiso   1.00
H336   H     0.15101   0.60170   0.00430   0.00000  Uiso   1.00
O337   O     0.17130   0.37148   0.24876   0.00000  Uiso   1.00
C338   C     0.22543   0.37440   0.26366   0.00000  Uiso   1.00
H339   H     0.24689   0.39250   0.23945   0.00000  Uiso   1.00
H340   H     0.24087   0.34334   0.26802   0.00000  Uiso   1.00
C341   C     0.23532   0.39573   0.30886   0.00000  Uiso   1.00
H342   H     0.27528   0.38990   0.32563   0.00000  Uiso   1.00
H343   H     0.23050   0.42922   0.30368   0.00000  Uiso   1.00
H344   H     0.20723   0.38385   0.33110   0.00000  Uiso   1.00
O345   O     0.22403   0.55922   0.05317   0.00000  Uiso   1.00
C346   C     0.27761   0.55280   0.06448   0.00000  Uiso   1.00
H347   H     0.29875   0.55989   0.03591   0.00000  Uiso   1.00
H348   H     0.28423   0.52059   0.07399   0.00000  Uiso   1.00
C349   C     0.30149   0.58070   0.10320   0.00000  Uiso   1.00
H350   H     0.27988   0.57626   0.13246   0.00000  Uiso   1.00
H351   H     0.00965   0.57386   0.11384   0.00000  Uiso   1.00
H352   H     0.30014   0.61336   0.09225   0.00000  Uiso   1.00
O353   O     0.09221   0.45472   0.27596   0.00000  Uiso   1.00
C354   C     0.08131   0.41382   0.28995   0.00000  Uiso   1.00
H355   H     0.06071   0.41240   0.31962   0.00000  Uiso   1.00
H356   H     0.11721   0.39680   0.29868   0.00000  Uiso   1.00
C357   C     0.04468   0.39232   0.25225   0.00000  Uiso   1.00
H358   H     0.01130   0.41169   0.24054   0.00000  Uiso   1.00
H359   H     0.06553   0.38682   0.22327   0.00000  Uiso   1.00
H360   H     0.02884   0.36268   0.26503   0.00000  Uiso   1.00
O361   O     0.21183   0.56577   0.29288   0.00000  Uiso   1.00
C362   C     0.26310   0.56692   0.28195   0.00000  Uiso   1.00
H363   H     0.26078   0.56749   0.24475   0.00000  Uiso   1.00
H364   H     0.28578   0.54010   0.29463   0.00000  Uiso   1.00
C365   C     0.29276   0.60707   0.29871   0.00000  Uiso   1.00
H366   H     0.27155   0.62338   0.32192   0.00000  Uiso   1.00
H367   H     0.33142   0.60087   0.31773   0.00000  Uiso   1.00
H368   H     0.29943   0.62760   0.26975   0.00000  Uiso   1.00
O369   O     0.08392   0.46502   0.03655   0.00000  Uiso   1.00
C370   C     0.04351   0.49191   0.02116   0.00000  Uiso   1.00
H371   H     0.04851   0.50949   0.32288   0.00000  Uiso   1.00
H372   H     0.04111   0.51501   0.04726   0.00000  Uiso   1.00
C373   C     0.32519   0.46705   0.01230   0.00000  Uiso   1.00
H374   H     0.32074   0.44505   0.04043   0.00000  Uiso   1.00
H375   H     0.29206   0.48715   0.00875   0.00000  Uiso   1.00
H376   H     0.32311   0.45058   0.31340   0.00000  Uiso   1.00
C377   C     0.49713   0.42001   0.16680   0.00000  Uiso   1.00
C378   C     0.49733   0.57991   0.16589   0.00000  Uiso   1.00
C379   C     0.40056   0.49724   0.15511   0.00000  Uiso   1.00
C380   C     0.59933   0.49829   0.17857   0.00000  Uiso   1.00
C381   C     0.34558   0.49022   0.15018   0.00000  Uiso   1.00
C382   C     0.65440   0.49697   0.18524   0.00000  Uiso   1.00
C383   C     0.47467   0.35519   0.12614   0.00000  Uiso   1.00
C384   C     0.48716   0.64383   0.20545   0.00000  Uiso   1.00
C385   C     0.48340   0.64676   0.12406   0.00000  Uiso   1.00
C386   C     0.49625   0.35274   0.20742   0.00000  Uiso   1.00
C387   C     0.49038   0.62399   0.16475   0.00000  Uiso   1.00
C388   C     0.49031   0.37561   0.16695   0.00000  Uiso   1.00
C389   C     0.53263   0.52704   0.02756   0.00000  Uiso   1.00
C390   C     0.46494   0.47492   0.30515   0.00000  Uiso   1.00
C391   C     0.53066   0.52864   0.31250   0.00000  Uiso   1.00
C392   C     0.46208   0.47823   0.01957   0.00000  Uiso   1.00
H393   H     0.65876   0.47921   0.11818   0.00000  Uiso   1.00
H394   H     0.34156   0.50403   0.21865   0.00000  Uiso   1.00
N395   N     0.49999   0.49999   0.28573   0.00000  Uiso   1.00
N396   N     0.50001   0.50001   0.04760   0.00000  Uiso   1.00
O397   O     0.50000   0.43892   0.20487   0.00000  Uiso   1.00
O398   O     0.50000   0.56108   0.12846   0.00000  Uiso   1.00
O399   O     0.50000   0.43893   0.12843   0.00000  Uiso   1.00
O400   O     0.50000   0.56107   0.20490   0.00000  Uiso   1.00
O401   O     0.42392   0.50000   0.19595   0.00000  Uiso   1.00
O402   O     0.57608   0.50000   0.13739   0.00000  Uiso   1.00
O403   O     0.42392   0.50000   0.11950   0.00000  Uiso   1.00
O404   O     0.57608   0.50000   0.21383   0.00000  Uiso   1.00
Zn405  Zn    0.50000   0.49999   0.21771   0.00000  Uiso   1.00
Zn406  Zn    0.50000   0.50001   0.11563   0.00000  Uiso   1.00
O407   O     0.44993   0.37545   0.08859   0.00000  Uiso   1.00
C408   C     0.39542   0.37341   0.09001   0.00000  Uiso   1.00
H409   H     0.38089   0.40424   0.08115   0.00000  Uiso   1.00
H410   H     0.38398   0.36560   0.12394   0.00000  Uiso   1.00
C411   C     0.36760   0.34277   0.05559   0.00000  Uiso   1.00
H412   H     0.37808   0.64434   0.06577   0.00000  Uiso   1.00
H413   H     0.65802   0.34465   0.05353   0.00000  Uiso   1.00
H414   H     0.37876   0.34953   0.02175   0.00000  Uiso   1.00
O415   O     0.47216   0.62266   0.24237   0.00000  Uiso   1.00
C416   C     0.41762   0.61294   0.23328   0.00000  Uiso   1.00
H417   H     0.40377   0.60414   0.19750   0.00000  Uiso   1.00
H418   H     0.39615   0.63972   0.24096   0.00000  Uiso   1.00
C419   C     0.40295   0.57670   0.26243   0.00000  Uiso   1.00
H420   H     0.40794   0.58516   0.29834   0.00000  Uiso   1.00
H421   H     0.36158   0.56675   0.25173   0.00000  Uiso   1.00
H422   H     0.42739   0.55072   0.25867   0.00000  Uiso   1.00
O423   O     0.47687   0.62737   0.08295   0.00000  Uiso   1.00
C424   C     0.51281   0.64506   0.05580   0.00000  Uiso   1.00
H425   H     0.55130   0.63211   0.06554   0.00000  Uiso   1.00
H426   H     0.51937   0.34564   0.05810   0.00000  Uiso   1.00
C427   C     0.49248   0.63525   0.00731   0.00000  Uiso   1.00
H428   H     0.45614   0.65138   0.32945   0.00000  Uiso   1.00
H429   H     0.52205   0.64507   0.31907   0.00000  Uiso   1.00
H430   H     0.48435   0.60170   0.00430   0.00000  Uiso   1.00
O431   O     0.50463   0.37148   0.24876   0.00000  Uiso   1.00
C432   C     0.55876   0.37440   0.26366   0.00000  Uiso   1.00
H433   H     0.58023   0.39250   0.23945   0.00000  Uiso   1.00
H434   H     0.57421   0.34334   0.26802   0.00000  Uiso   1.00
C435   C     0.56866   0.39573   0.30886   0.00000  Uiso   1.00
H436   H     0.60862   0.38990   0.32563   0.00000  Uiso   1.00
H437   H     0.56383   0.42922   0.30368   0.00000  Uiso   1.00
H438   H     0.54057   0.38385   0.33110   0.00000  Uiso   1.00
O439   O     0.55736   0.55922   0.05317   0.00000  Uiso   1.00
C440   C     0.61094   0.55280   0.06448   0.00000  Uiso   1.00
H441   H     0.63208   0.55989   0.03591   0.00000  Uiso   1.00
H442   H     0.61756   0.52059   0.07399   0.00000  Uiso   1.00
C443   C     0.63482   0.58070   0.10320   0.00000  Uiso   1.00
H444   H     0.61321   0.57626   0.13246   0.00000  Uiso   1.00
H445   H     0.34298   0.57386   0.11384   0.00000  Uiso   1.00
H446   H     0.63347   0.61336   0.09225   0.00000  Uiso   1.00
O447   O     0.42554   0.45472   0.27596   0.00000  Uiso   1.00
C448   C     0.41465   0.41382   0.28995   0.00000  Uiso   1.00
H449   H     0.39404   0.41240   0.31962   0.00000  Uiso   1.00
H450   H     0.45055   0.39680   0.29868   0.00000  Uiso   1.00
C451   C     0.37801   0.39232   0.25225   0.00000  Uiso   1.00
H452   H     0.34464   0.41169   0.24054   0.00000  Uiso   1.00
H453   H     0.39886   0.38682   0.22327   0.00000  Uiso   1.00
H454   H     0.36217   0.36268   0.26503   0.00000  Uiso   1.00
O455   O     0.54516   0.56577   0.29288   0.00000  Uiso   1.00
C456   C     0.59644   0.56692   0.28195   0.00000  Uiso   1.00
H457   H     0.59411   0.56749   0.24475   0.00000  Uiso   1.00
H458   H     0.61911   0.54010   0.29463   0.00000  Uiso   1.00
C459   C     0.62609   0.60707   0.29871   0.00000  Uiso   1.00
H460   H     0.60489   0.62338   0.32192   0.00000  Uiso   1.00
H461   H     0.66475   0.60087   0.31773   0.00000  Uiso   1.00
H462   H     0.63276   0.62760   0.26975   0.00000  Uiso   1.00
O463   O     0.41725   0.46502   0.03655   0.00000  Uiso   1.00
C464   C     0.37685   0.49191   0.02116   0.00000  Uiso   1.00
H465   H     0.38184   0.50949   0.32288   0.00000  Uiso   1.00
H466   H     0.37444   0.51501   0.04726   0.00000  Uiso   1.00
C467   C     0.65853   0.46705   0.01230   0.00000  Uiso   1.00
H468   H     0.65407   0.44505   0.04043   0.00000  Uiso   1.00
H469   H     0.62539   0.48715   0.00875   0.00000  Uiso   1.00
H470   H     0.65644   0.45058   0.31340   0.00000  Uiso   1.00
C471   C     0.83046   0.42001   0.16680   0.00000  Uiso   1.00
C472   C     0.83066   0.57991   0.16589   0.00000  Uiso   1.00
C473   C     0.73389   0.49724   0.15511   0.00000  Uiso   1.00
C474   C     0.93266   0.49829   0.17857   0.00000  Uiso   1.00
C475   C     0.67892   0.49022   0.15018   0.00000  Uiso   1.00
C476   C     0.98774   0.49697   0.18524   0.00000  Uiso   1.00
C477   C     0.80801   0.35519   0.12614   0.00000  Uiso   1.00
C478   C     0.82049   0.64383   0.20545   0.00000  Uiso   1.00
C479   C     0.81673   0.64676   0.12406   0.00000  Uiso   1.00
C480   C     0.82958   0.35274   0.20742   0.00000  Uiso   1.00
C481   C     0.82371   0.62399   0.16475   0.00000  Uiso   1.00
C482   C     0.82364   0.37561   0.16695   0.00000  Uiso   1.00
C483   C     0.86596   0.52704   0.02756   0.00000  Uiso   1.00
C484   C     0.79828   0.47492   0.30515   0.00000  Uiso   1.00
C485   C     0.86399   0.52864   0.31250   0.00000  Uiso   1.00
C486   C     0.79541   0.47823   0.01957   0.00000  Uiso   1.00
H487   H     0.99209   0.47921   0.11818   0.00000  Uiso   1.00
H488   H     0.67489   0.50403   0.21865   0.00000  Uiso   1.00
N489   N     0.83332   0.49999   0.28573   0.00000  Uiso   1.00
N490   N     0.83335   0.50001   0.04760   0.00000  Uiso   1.00
O491   O     0.83333   0.43892   0.20487   0.00000  Uiso   1.00
O492   O     0.83334   0.56108   0.12846   0.00000  Uiso   1.00
O493   O     0.83333   0.43893   0.12843   0.00000  Uiso   1.00
O494   O     0.83334   0.56107   0.20490   0.00000  Uiso   1.00
O495   O     0.75725   0.50000   0.19595   0.00000  Uiso   1.00
O496   O     0.90942   0.50000   0.13739   0.00000  Uiso   1.00
O497   O     0.75725   0.50000   0.11950   0.00000  Uiso   1.00
O498   O     0.90942   0.50000   0.21383   0.00000  Uiso   1.00
Zn499  Zn    0.83333   0.49999   0.21771   0.00000  Uiso   1.00
Zn500  Zn    0.83333   0.50001   0.11563   0.00000  Uiso   1.00
O501   O     0.78327   0.37545   0.08859   0.00000  Uiso   1.00
C502   C     0.72875   0.37341   0.09001   0.00000  Uiso   1.00
H503   H     0.71423   0.40424   0.08115   0.00000  Uiso   1.00
H504   H     0.71731   0.36560   0.12394   0.00000  Uiso   1.00
C505   C     0.70093   0.34277   0.05559   0.00000  Uiso   1.00
H506   H     0.71141   0.64434   0.06577   0.00000  Uiso   1.00
H507   H     0.99136   0.34465   0.05353   0.00000  Uiso   1.00
H508   H     0.71209   0.34953   0.02175   0.00000  Uiso   1.00
O509   O     0.80550   0.62266   0.24237   0.00000  Uiso   1.00
C510   C     0.75096   0.61294   0.23328   0.00000  Uiso   1.00
H511   H     0.73710   0.60414   0.19750   0.00000  Uiso   1.00
H512   H     0.72949   0.63972   0.24096   0.00000  Uiso   1.00
C513   C     0.73628   0.57670   0.26243   0.00000  Uiso   1.00
H514   H     0.74128   0.58516   0.29834   0.00000  Uiso   1.00
H515   H     0.69491   0.56675   0.25173   0.00000  Uiso   1.00
H516   H     0.76072   0.55072   0.25867   0.00000  Uiso   1.00
O517   O     0.81020   0.62737   0.08295   0.00000  Uiso   1.00
C518   C     0.84614   0.64506   0.05580   0.00000  Uiso   1.00
H519   H     0.88463   0.63211   0.06554   0.00000  Uiso   1.00
H520   H     0.85270   0.34564   0.05810   0.00000  Uiso   1.00
C521   C     0.82581   0.63525   0.00731   0.00000  Uiso   1.00
H522   H     0.78948   0.65138   0.32945   0.00000  Uiso   1.00
H523   H     0.85538   0.64507   0.31907   0.00000  Uiso   1.00
H524   H     0.81768   0.60170   0.00430   0.00000  Uiso   1.00
O525   O     0.83797   0.37148   0.24876   0.00000  Uiso   1.00
C526   C     0.89210   0.37440   0.26366   0.00000  Uiso   1.00
H527   H     0.91356   0.39250   0.23945   0.00000  Uiso   1.00
H528   H     0.90754   0.34334   0.26802   0.00000  Uiso   1.00
C529   C     0.90199   0.39573   0.30886   0.00000  Uiso   1.00
H530   H     0.94195   0.38990   0.32563   0.00000  Uiso   1.00
H531   H     0.89716   0.42922   0.30368   0.00000  Uiso   1.00
H532   H     0.87390   0.38385   0.33110   0.00000  Uiso   1.00
O533   O     0.89069   0.55922   0.05317   0.00000  Uiso   1.00
C534   C     0.94428   0.55280   0.06448   0.00000  Uiso   1.00
H535   H     0.96542   0.55989   0.03591   0.00000  Uiso   1.00
H536   H     0.95089   0.52059   0.07399   0.00000  Uiso   1.00
C537   C     0.96816   0.58070   0.10320   0.00000  Uiso   1.00
H538   H     0.94655   0.57626   0.13246   0.00000  Uiso   1.00
H539   H     0.67631   0.57386   0.11384   0.00000  Uiso   1.00
H540   H     0.96680   0.61336   0.09225   0.00000  Uiso   1.00
O541   O     0.75888   0.45472   0.27596   0.00000  Uiso   1.00
C542   C     0.74798   0.41382   0.28995   0.00000  Uiso   1.00
H543   H     0.72738   0.41240   0.31962   0.00000  Uiso   1.00
H544   H     0.78388   0.39680   0.29868   0.00000  Uiso   1.00
C545   C     0.71135   0.39232   0.25225   0.00000  Uiso   1.00
H546   H     0.67797   0.41169   0.24054   0.00000  Uiso   1.00
H547   H     0.73220   0.38682   0.22327   0.00000  Uiso   1.00
H548   H     0.69551   0.36268   0.26503   0.00000  Uiso   1.00
O549   O     0.87849   0.56577   0.29288   0.00000  Uiso   1.00
C550   C     0.92977   0.56692   0.28195   0.00000  Uiso   1.00
H551   H     0.92745   0.56749   0.24475   0.00000  Uiso   1.00
H552   H     0.95244   0.54010   0.29463   0.00000  Uiso   1.00
C553   C     0.95943   0.60707   0.29871   0.00000  Uiso   1.00
H554   H     0.93822   0.62338   0.32192   0.00000  Uiso   1.00
H555   H     0.99808   0.60087   0.31773   0.00000  Uiso   1.00
H556   H     0.96609   0.62760   0.26975   0.00000  Uiso   1.00
O557   O     0.75058   0.46502   0.03655   0.00000  Uiso   1.00
C558   C     0.71018   0.49191   0.02116   0.00000  Uiso   1.00
H559   H     0.71517   0.50949   0.32288   0.00000  Uiso   1.00
H560   H     0.70778   0.51501   0.04726   0.00000  Uiso   1.00
C561   C     0.99186   0.46705   0.01230   0.00000  Uiso   1.00
H562   H     0.98741   0.44505   0.04043   0.00000  Uiso   1.00
H563   H     0.95873   0.48715   0.00875   0.00000  Uiso   1.00
H564   H     0.98977   0.45058   0.31340   0.00000  Uiso   1.00
C565   C     0.16379   0.75335   0.16680   0.00000  Uiso   1.00
C566   C     0.16399   0.91324   0.16589   0.00000  Uiso   1.00
C567   C     0.06723   0.83057   0.15511   0.00000  Uiso   1.00
C568   C     0.26600   0.83163   0.17857   0.00000  Uiso   1.00
C569   C     0.01225   0.82355   0.15018   0.00000  Uiso   1.00
C570   C     0.32107   0.83031   0.18524   0.00000  Uiso   1.00
C571   C     0.14134   0.68853   0.12614   0.00000  Uiso   1.00
C572   C     0.15383   0.97717   0.20545   0.00000  Uiso   1.00
C573   C     0.15006   0.98009   0.12406   0.00000  Uiso   1.00
C574   C     0.16292   0.68608   0.20742   0.00000  Uiso   1.00
C575   C     0.15704   0.95732   0.16475   0.00000  Uiso   1.00
C576   C     0.15697   0.70895   0.16695   0.00000  Uiso   1.00
C577   C     0.19930   0.86038   0.02756   0.00000  Uiso   1.00
C578   C     0.13161   0.80825   0.30515   0.00000  Uiso   1.00
C579   C     0.19733   0.86198   0.31250   0.00000  Uiso   1.00
C580   C     0.12874   0.81156   0.01957   0.00000  Uiso   1.00
H581   H     0.32543   0.81255   0.11818   0.00000  Uiso   1.00
H582   H     0.00823   0.83736   0.21865   0.00000  Uiso   1.00
N583   N     0.16665   0.83332   0.28573   0.00000  Uiso   1.00
N584   N     0.16668   0.83334   0.04760   0.00000  Uiso   1.00
O585   O     0.16666   0.77225   0.20487   0.00000  Uiso   1.00
O586   O     0.16667   0.89442   0.12846   0.00000  Uiso   1.00
O587   O     0.16666   0.77226   0.12843   0.00000  Uiso   1.00
O588   O     0.16667   0.89441   0.20490   0.00000  Uiso   1.00
O589   O     0.09058   0.83333   0.19595   0.00000  Uiso   1.00
O590   O     0.24275   0.83334   0.13739   0.00000  Uiso   1.00
O591   O     0.09058   0.83334   0.11950   0.00000  Uiso   1.00
O592   O     0.24275   0.83333   0.21383   0.00000  Uiso   1.00
Zn593  Zn    0.16667   0.83333   0.21771   0.00000  Uiso   1.00
Zn594  Zn    0.16667   0.83334   0.11563   0.00000  Uiso   1.00
O595   O     0.11660   0.70878   0.08859   0.00000  Uiso   1.00
C596   C     0.06208   0.70675   0.09001   0.00000  Uiso   1.00
H597   H     0.04756   0.73757   0.08115   0.00000  Uiso   1.00
H598   H     0.05065   0.69894   0.12394   0.00000  Uiso   1.00
C599   C     0.03426   0.67610   0.05559   0.00000  Uiso   1.00
H600   H     0.04475   0.97767   0.06577   0.00000  Uiso   1.00
H601   H     0.32469   0.67798   0.05353   0.00000  Uiso   1.00
H602   H     0.04543   0.68287   0.02175   0.00000  Uiso   1.00
O603   O     0.13883   0.95599   0.24237   0.00000  Uiso   1.00
C604   C     0.08429   0.94628   0.23328   0.00000  Uiso   1.00
H605   H     0.07044   0.93747   0.19750   0.00000  Uiso   1.00
H606   H     0.06282   0.97305   0.24096   0.00000  Uiso   1.00
C607   C     0.06961   0.91003   0.26243   0.00000  Uiso   1.00
H608   H     0.07461   0.91849   0.29834   0.00000  Uiso   1.00
H609   H     0.02825   0.90009   0.25173   0.00000  Uiso   1.00
H610   H     0.09406   0.88406   0.25867   0.00000  Uiso   1.00
O611   O     0.14353   0.96070   0.08295   0.00000  Uiso   1.00
C612   C     0.17947   0.97839   0.05580   0.00000  Uiso   1.00
H613   H     0.21797   0.96544   0.06554   0.00000  Uiso   1.00
H614   H     0.18604   0.67897   0.05810   0.00000  Uiso   1.00
C615   C     0.15915   0.96859   0.00731   0.00000  Uiso   1.00
H616   H     0.12281   0.98471   0.32945   0.00000  Uiso   1.00
H617   H     0.18871   0.97840   0.31907   0.00000  Uiso   1.00
H618   H     0.15101   0.93503   0.00430   0.00000  Uiso   1.00
O619   O     0.17130   0.70482   0.24876   0.00000  Uiso   1.00
C620   C     0.22543   0.70773   0.26366   0.00000  Uiso   1.00
H621   H     0.24689   0.72583   0.23945   0.00000  Uiso   1.00
H622   H     0.24087   0.67668   0.26802   0.00000  Uiso   1.00
C623   C     0.23532   0.72906   0.30886   0.00000  Uiso   1.00
H624   H     0.27528   0.72324   0.32563   0.00000  Uiso   1.00
H625   H     0.23050   0.76256   0.30368   0.00000  Uiso   1.00
H626   H     0.20723   0.71718   0.33110   0.00000  Uiso   1.00
O627   O     0.22403   0.89256   0.05317   0.00000  Uiso   1.00
C628   C     0.27761   0.88613   0.06448   0.00000  Uiso   1.00
H629   H     0.29875   0.89322   0.03591   0.00000  Uiso   1.00
H630   H     0.28423   0.85392   0.07399   0.00000  Uiso   1.00
C631   C     0.30149   0.91403   0.10320   0.00000  Uiso   1.00
H632   H     0.27988   0.90959   0.13246   0.00000  Uiso   1.00
H633   H     0.00965   0.90720   0.11384   0.00000  Uiso   1.00
H634   H     0.30014   0.94669   0.09225   0.00000  Uiso   1.00
O635   O     0.09221   0.78805   0.27596   0.00000  Uiso   1.00
C636   C     0.08131   0.74715   0.28995   0.00000  Uiso   1.00
H637   H     0.06071   0.74574   0.31962   0.00000  Uiso   1.00
H638   H     0.11721   0.73013   0.29868   0.00000  Uiso   1.00
C639   C     0.04468   0.72565   0.25225   0.00000  Uiso   1.00
H640   H     0.01130   0.74502   0.24054   0.00000  Uiso   1.00
H641   H     0.06553   0.72016   0.22327   0.00000  Uiso   1.00
H642   H     0.02884   0.69601   0.26503   0.00000  Uiso   1.00
O643   O     0.21183   0.89910   0.29288   0.00000  Uiso   1.00
C644   C     0.26310   0.90026   0.28195   0.00000  Uiso   1.00
H645   H     0.26078   0.90083   0.24475   0.00000  Uiso   1.00
H646   H     0.28578   0.87344   0.29463   0.00000  Uiso   1.00
C647   C     0.29276   0.94041   0.29871   0.00000  Uiso   1.00
H648   H     0.27155   0.95671   0.32192   0.00000  Uiso   1.00
H649   H     0.33142   0.93420   0.31773   0.00000  Uiso   1.00
H650   H     0.29943   0.96093   0.26975   0.00000  Uiso   1.00
O651   O     0.08392   0.79836   0.03655   0.00000  Uiso   1.00
C652   C     0.04351   0.82525   0.02116   0.00000  Uiso   1.00
H653   H     0.04851   0.84282   0.32288   0.00000  Uiso   1.00
H654   H     0.04111   0.84835   0.04726   0.00000  Uiso   1.00
C655   C     0.32519   0.80038   0.01230   0.00000  Uiso   1.00
H656   H     0.32074   0.77838   0.04043   0.00000  Uiso   1.00
H657   H     0.29206   0.82049   0.00875   0.00000  Uiso   1.00
H658   H     0.32311   0.78392   0.31340   0.00000  Uiso   1.00
C659   C     0.49713   0.75335   0.16680   0.00000  Uiso   1.00
C660   C     0.49733   0.91324   0.16589   0.00000  Uiso   1.00
C661   C     0.40056   0.83057   0.15511   0.00000  Uiso   1.00
C662   C     0.59933   0.83163   0.17857   0.00000  Uiso   1.00
C663   C     0.34558   0.82355   0.15018   0.00000  Uiso   1.00
C664   C     0.65440   0.83031   0.18524   0.00000  Uiso   1.00
C665   C     0.47467   0.68853   0.12614   0.00000  Uiso   1.00
C666   C     0.48716   0.97717   0.20545   0.00000  Uiso   1.00
C667   C     0.48340   0.98009   0.12406   0.00000  Uiso   1.00
C668   C     0.49625   0.68608   0.20742   0.00000  Uiso   1.00
C669   C     0.49038   0.95732   0.16475   0.00000  Uiso   1.00
C670   C     0.49031   0.70895   0.16695   0.00000  Uiso   1.00
C671   C     0.53263   0.86038   0.02756   0.00000  Uiso   1.00
C672   C     0.46494   0.80825   0.30515   0.00000  Uiso   1.00
C673   C     0.53066   0.86198   0.31250   0.00000  Uiso   1.00
C674   C     0.46208   0.81156   0.01957   0.00000  Uiso   1.00
H675   H     0.65876   0.81255   0.11818   0.00000  Uiso   1.00
H676   H     0.34156   0.83736   0.21865   0.00000  Uiso   1.00
N677   N     0.49999   0.83332   0.28573   0.00000  Uiso   1.00
N678   N     0.50001   0.83334   0.04760   0.00000  Uiso   1.00
O679   O     0.50000   0.77225   0.20487   0.00000  Uiso   1.00
O680   O     0.50000   0.89442   0.12846   0.00000  Uiso   1.00
O681   O     0.50000   0.77226   0.12843   0.00000  Uiso   1.00
O682   O     0.50000   0.89441   0.20490   0.00000  Uiso   1.00
O683   O     0.42392   0.83333   0.19595   0.00000  Uiso   1.00
O684   O     0.57608   0.83334   0.13739   0.00000  Uiso   1.00
O685   O     0.42392   0.83334   0.11950   0.00000  Uiso   1.00
O686   O     0.57608   0.83333   0.21383   0.00000  Uiso   1.00
Zn687  Zn    0.50000   0.83333   0.21771   0.00000  Uiso   1.00
Zn688  Zn    0.50000   0.83334   0.11563   0.00000  Uiso   1.00
O689   O     0.44993   0.70878   0.08859   0.00000  Uiso   1.00
C690   C     0.39542   0.70675   0.09001   0.00000  Uiso   1.00
H691   H     0.38089   0.73757   0.08115   0.00000  Uiso   1.00
H692   H     0.38398   0.69894   0.12394   0.00000  Uiso   1.00
C693   C     0.36760   0.67610   0.05559   0.00000  Uiso   1.00
H694   H     0.37808   0.97767   0.06577   0.00000  Uiso   1.00
H695   H     0.65802   0.67798   0.05353   0.00000  Uiso   1.00
H696   H     0.37876   0.68287   0.02175   0.00000  Uiso   1.00
O697   O     0.47216   0.95599   0.24237   0.00000  Uiso   1.00
C698   C     0.41762   0.94628   0.23328   0.00000  Uiso   1.00
H699   H     0.40377   0.93747   0.19750   0.00000  Uiso   1.00
H700   H     0.39615   0.97305   0.24096   0.00000  Uiso   1.00
C701   C     0.40295   0.91003   0.26243   0.00000  Uiso   1.00
H702   H     0.40794   0.91849   0.29834   0.00000  Uiso   1.00
H703   H     0.36158   0.90009   0.25173   0.00000  Uiso   1.00
H704   H     0.42739   0.88406   0.25867   0.00000  Uiso   1.00
O705   O     0.47687   0.96070   0.08295   0.00000  Uiso   1.00
C706   C     0.51281   0.97839   0.05580   0.00000  Uiso   1.00
H707   H     0.55130   0.96544   0.06554   0.00000  Uiso   1.00
H708   H     0.51937   0.67897   0.05810   0.00000  Uiso   1.00
C709   C     0.49248   0.96859   0.00731   0.00000  Uiso   1.00
H710   H     0.45614   0.98471   0.32945   0.00000  Uiso   1.00
H711   H     0.52205   0.97840   0.31907   0.00000  Uiso   1.00
H712   H     0.48435   0.93503   0.00430   0.00000  Uiso   1.00
O713   O     0.50463   0.70482   0.24876   0.00000  Uiso   1.00
C714   C     0.55876   0.70773   0.26366   0.00000  Uiso   1.00
H715   H     0.58023   0.72583   0.23945   0.00000  Uiso   1.00
H716   H     0.57421   0.67668   0.26802   0.00000  Uiso   1.00
C717   C     0.56866   0.72906   0.30886   0.00000  Uiso   1.00
H718   H     0.60862   0.72324   0.32563   0.00000  Uiso   1.00
H719   H     0.56383   0.76256   0.30368   0.00000  Uiso   1.00
H720   H     0.54057   0.71718   0.33110   0.00000  Uiso   1.00
O721   O     0.55736   0.89256   0.05317   0.00000  Uiso   1.00
C722   C     0.61094   0.88613   0.06448   0.00000  Uiso   1.00
H723   H     0.63208   0.89322   0.03591   0.00000  Uiso   1.00
H724   H     0.61756   0.85392   0.07399   0.00000  Uiso   1.00
C725   C     0.63482   0.91403   0.10320   0.00000  Uiso   1.00
H726   H     0.61321   0.90959   0.13246   0.00000  Uiso   1.00
H727   H     0.34298   0.90720   0.11384   0.00000  Uiso   1.00
H728   H     0.63347   0.94669   0.09225   0.00000  Uiso   1.00
O729   O     0.42554   0.78805   0.27596   0.00000  Uiso   1.00
C730   C     0.41465   0.74715   0.28995   0.00000  Uiso   1.00
H731   H     0.39404   0.74574   0.31962   0.00000  Uiso   1.00
H732   H     0.45055   0.73013   0.29868   0.00000  Uiso   1.00
C733   C     0.37801   0.72565   0.25225   0.00000  Uiso   1.00
H734   H     0.34464   0.74502   0.24054   0.00000  Uiso   1.00
H735   H     0.39886   0.72016   0.22327   0.00000  Uiso   1.00
H736   H     0.36217   0.69601   0.26503   0.00000  Uiso   1.00
O737   O     0.54516   0.89910   0.29288   0.00000  Uiso   1.00
C738   C     0.59644   0.90026   0.28195   0.00000  Uiso   1.00
H739   H     0.59411   0.90083   0.24475   0.00000  Uiso   1.00
H740   H     0.61911   0.87344   0.29463   0.00000  Uiso   1.00
C741   C     0.62609   0.94041   0.29871   0.00000  Uiso   1.00
H742   H     0.60489   0.95671   0.32192   0.00000  Uiso   1.00
H743   H     0.66475   0.93420   0.31773   0.00000  Uiso   1.00
H744   H     0.63276   0.96093   0.26975   0.00000  Uiso   1.00
O745   O     0.41725   0.79836   0.03655   0.00000  Uiso   1.00
C746   C     0.37685   0.82525   0.02116   0.00000  Uiso   1.00
H747   H     0.38184   0.84282   0.32288   0.00000  Uiso   1.00
H748   H     0.37444   0.84835   0.04726   0.00000  Uiso   1.00
C749   C     0.65853   0.80038   0.01230   0.00000  Uiso   1.00
H750   H     0.65407   0.77838   0.04043   0.00000  Uiso   1.00
H751   H     0.62539   0.82049   0.00875   0.00000  Uiso   1.00
H752   H     0.65644   0.78392   0.31340   0.00000  Uiso   1.00
C753   C     0.83046   0.75335   0.16680   0.00000  Uiso   1.00
C754   C     0.83066   0.91324   0.16589   0.00000  Uiso   1.00
C755   C     0.73389   0.83057   0.15511   0.00000  Uiso   1.00
C756   C     0.93266   0.83163   0.17857   0.00000  Uiso   1.00
C757   C     0.67892   0.82355   0.15018   0.00000  Uiso   1.00
C758   C     0.98774   0.83031   0.18524   0.00000  Uiso   1.00
C759   C     0.80801   0.68853   0.12614   0.00000  Uiso   1.00
C760   C     0.82049   0.97717   0.20545   0.00000  Uiso   1.00
C761   C     0.81673   0.98009   0.12406   0.00000  Uiso   1.00
C762   C     0.82958   0.68608   0.20742   0.00000  Uiso   1.00
C763   C     0.82371   0.95732   0.16475   0.00000  Uiso   1.00
C764   C     0.82364   0.70895   0.16695   0.00000  Uiso   1.00
C765   C     0.86596   0.86038   0.02756   0.00000  Uiso   1.00
C766   C     0.79828   0.80825   0.30515   0.00000  Uiso   1.00
C767   C     0.86399   0.86198   0.31250   0.00000  Uiso   1.00
C768   C     0.79541   0.81156   0.01957   0.00000  Uiso   1.00
H769   H     0.99209   0.81255   0.11818   0.00000  Uiso   1.00
H770   H     0.67489   0.83736   0.21865   0.00000  Uiso   1.00
N771   N     0.83332   0.83332   0.28573   0.00000  Uiso   1.00
N772   N     0.83335   0.83334   0.04760   0.00000  Uiso   1.00
O773   O     0.83333   0.77225   0.20487   0.00000  Uiso   1.00
O774   O     0.83334   0.89442   0.12846   0.00000  Uiso   1.00
O775   O     0.83333   0.77226   0.12843   0.00000  Uiso   1.00
O776   O     0.83334   0.89441   0.20490   0.00000  Uiso   1.00
O777   O     0.75725   0.83333   0.19595   0.00000  Uiso   1.00
O778   O     0.90942   0.83334   0.13739   0.00000  Uiso   1.00
O779   O     0.75725   0.83334   0.11950   0.00000  Uiso   1.00
O780   O     0.90942   0.83333   0.21383   0.00000  Uiso   1.00
Zn781  Zn    0.83333   0.83333   0.21771   0.00000  Uiso   1.00
Zn782  Zn    0.83333   0.83334   0.11563   0.00000  Uiso   1.00
O783   O     0.78327   0.70878   0.08859   0.00000  Uiso   1.00
C784   C     0.72875   0.70675   0.09001   0.00000  Uiso   1.00
H785   H     0.71423   0.73757   0.08115   0.00000  Uiso   1.00
H786   H     0.71731   0.69894   0.12394   0.00000  Uiso   1.00
C787   C     0.70093   0.67610   0.05559   0.00000  Uiso   1.00
H788   H     0.71141   0.97767   0.06577   0.00000  Uiso   1.00
H789   H     0.99136   0.67798   0.05353   0.00000  Uiso   1.00
H790   H     0.71209   0.68287   0.02175   0.00000  Uiso   1.00
O791   O     0.80550   0.95599   0.24237   0.00000  Uiso   1.00
C792   C     0.75096   0.94628   0.23328   0.00000  Uiso   1.00
H793   H     0.73710   0.93747   0.19750   0.00000  Uiso   1.00
H794   H     0.72949   0.97305   0.24096   0.00000  Uiso   1.00
C795   C     0.73628   0.91003   0.26243   0.00000  Uiso   1.00
H796   H     0.74128   0.91849   0.29834   0.00000  Uiso   1.00
H797   H     0.69491   0.90009   0.25173   0.00000  Uiso   1.00
H798   H     0.76072   0.88406   0.25867   0.00000  Uiso   1.00
O799   O     0.81020   0.96070   0.08295   0.00000  Uiso   1.00
C800   C     0.84614   0.97839   0.05580   0.00000  Uiso   1.00
H801   H     0.88463   0.96544   0.06554   0.00000  Uiso   1.00
H802   H     0.85270   0.67897   0.05810   0.00000  Uiso   1.00
C803   C     0.82581   0.96859   0.00731   0.00000  Uiso   1.00
H804   H     0.78948   0.98471   0.32945   0.00000  Uiso   1.00
H805   H     0.85538   0.97840   0.31907   0.00000  Uiso   1.00
H806   H     0.81768   0.93503   0.00430   0.00000  Uiso   1.00
O807   O     0.83797   0.70482   0.24876   0.00000  Uiso   1.00
C808   C     0.89210   0.70773   0.26366   0.00000  Uiso   1.00
H809   H     0.91356   0.72583   0.23945   0.00000  Uiso   1.00
H810   H     0.90754   0.67668   0.26802   0.00000  Uiso   1.00
C811   C     0.90199   0.72906   0.30886   0.00000  Uiso   1.00
H812   H     0.94195   0.72324   0.32563   0.00000  Uiso   1.00
H813   H     0.89716   0.76256   0.30368   0.00000  Uiso   1.00
H814   H     0.87390   0.71718   0.33110   0.00000  Uiso   1.00
O815   O     0.89069   0.89256   0.05317   0.00000  Uiso   1.00
C816   C     0.94428   0.88613   0.06448   0.00000  Uiso   1.00
H817   H     0.96542   0.89322   0.03591   0.00000  Uiso   1.00
H818   H     0.95089   0.85392   0.07399   0.00000  Uiso   1.00
C819   C     0.96816   0.91403   0.10320   0.00000  Uiso   1.00
H820   H     0.94655   0.90959   0.13246   0.00000  Uiso   1.00
H821   H     0.67631   0.90720   0.11384   0.00000  Uiso   1.00
H822   H     0.96680   0.94669   0.09225   0.00000  Uiso   1.00
O823   O     0.75888   0.78805   0.27596   0.00000  Uiso   1.00
C824   C     0.74798   0.74715   0.28995   0.00000  Uiso   1.00
H825   H     0.72738   0.74574   0.31962   0.00000  Uiso   1.00
H826   H     0.78388   0.73013   0.29868   0.00000  Uiso   1.00
C827   C     0.71135   0.72565   0.25225   0.00000  Uiso   1.00
H828   H     0.67797   0.74502   0.24054   0.00000  Uiso   1.00
H829   H     0.73220   0.72016   0.22327   0.00000  Uiso   1.00
H830   H     0.69551   0.69601   0.26503   0.00000  Uiso   1.00
O831   O     0.87849   0.89910   0.29288   0.00000  Uiso   1.00
C832   C     0.92977   0.90026   0.28195   0.00000  Uiso   1.00
H833   H     0.92745   0.90083   0.24475   0.00000  Uiso   1.00
H834   H     0.95244   0.87344   0.29463   0.00000  Uiso   1.00
C835   C     0.95943   0.94041   0.29871   0.00000  Uiso   1.00
H836   H     0.93822   0.95671   0.32192   0.00000  Uiso   1.00
H837   H     0.99808   0.93420   0.31773   0.00000  Uiso   1.00
H838   H     0.96609   0.96093   0.26975   0.00000  Uiso   1.00
O839   O     0.75058   0.79836   0.03655   0.00000  Uiso   1.00
C840   C     0.71018   0.82525   0.02116   0.00000  Uiso   1.00
H841   H     0.71517   0.84282   0.32288   0.00000  Uiso   1.00
H842   H     0.70778   0.84835   0.04726   0.00000  Uiso   1.00
C843   C     0.99186   0.80038   0.01230   0.00000  Uiso   1.00
H844   H     0.98741   0.77838   0.04043   0.00000  Uiso   1.00
H845   H     0.95873   0.82049   0.00875   0.00000  Uiso   1.00
H846   H     0.98977   0.78392   0.31340   0.00000  Uiso   1.00
C847   C     0.16379   0.08668   0.50013   0.00000  Uiso   1.00
C848   C     0.16399   0.24657   0.49923   0.00000  Uiso   1.00
C849   C     0.06723   0.16391   0.48845   0.00000  Uiso   1.00
C850   C     0.26600   0.16496   0.51190   0.00000  Uiso   1.00
C851   C     0.01225   0.15688   0.48351   0.00000  Uiso   1.00
C852   C     0.32107   0.16364   0.51857   0.00000  Uiso   1.00
C853   C     0.14134   0.02186   0.45947   0.00000  Uiso   1.00
C854   C     0.15383   0.31050   0.53879   0.00000  Uiso   1.00
C855   C     0.15006   0.31342   0.45739   0.00000  Uiso   1.00
C856   C     0.16292   0.01941   0.54075   0.00000  Uiso   1.00
C857   C     0.15704   0.29065   0.49808   0.00000  Uiso   1.00
C858   C     0.15697   0.04228   0.50028   0.00000  Uiso   1.00
C859   C     0.19930   0.19371   0.36089   0.00000  Uiso   1.00
C860   C     0.13161   0.14159   0.63848   0.00000  Uiso   1.00
C861   C     0.19733   0.19531   0.64584   0.00000  Uiso   1.00
C862   C     0.12874   0.14489   0.35290   0.00000  Uiso   1.00
H863   H     0.32543   0.14588   0.45152   0.00000  Uiso   1.00
H864   H     0.00823   0.17069   0.55199   0.00000  Uiso   1.00
N865   N     0.16665   0.16666   0.61907   0.00000  Uiso   1.00
N866   N     0.16668   0.16668   0.38093   0.00000  Uiso   1.00
O867   O     0.16666   0.10558   0.53821   0.00000  Uiso   1.00
O868   O     0.16667   0.22775   0.46179   0.00000  Uiso   1.00
O869   O     0.16666   0.10559   0.46176   0.00000  Uiso   1.00
O870   O     0.16667   0.22774   0.53824   0.00000  Uiso   1.00
O871   O     0.09058   0.16666   0.52928   0.00000  Uiso   1.00
O872   O     0.24275   0.16667   0.47072   0.00000  Uiso   1.00
O873   O     0.09058   0.16667   0.45284   0.00000  Uiso   1.00
O874   O     0.24275   0.16666   0.54716   0.00000  Uiso   1.00
Zn875  Zn    0.16667   0.16666   0.55104   0.00000  Uiso   1.00
Zn876  Zn    0.16667   0.16667   0.44896   0.00000  Uiso   1.00
O877   O     0.11660   0.04211   0.42192   0.00000  Uiso   1.00
C878   C     0.06208   0.04008   0.42335   0.00000  Uiso   1.00
H879   H     0.04756   0.07091   0.41448   0.00000  Uiso   1.00
H880   H     0.05065   0.03227   0.45727   0.00000  Uiso   1.00
C881   C     0.03426   0.00943   0.38892   0.00000  Uiso   1.00
H882   H     0.04475   0.31101   0.39910   0.00000  Uiso   1.00
H883   H     0.32469   0.01132   0.38686   0.00000  Uiso   1.00
H884   H     0.04543   0.01620   0.35508   0.00000  Uiso   1.00
O885   O     0.13883   0.28932   0.57570   0.00000  Uiso   1.00
C886   C     0.08429   0.27961   0.56661   0.00000  Uiso   1.00
H887   H     0.07044   0.27081   0.53083   0.00000  Uiso   1.00
H888   H     0.06282   0.30639   0.57430   0.00000  Uiso   1.00
C889   C     0.06961   0.24337   0.59576   0.00000  Uiso   1.00
H890   H     0.07461   0.25182   0.63167   0.00000  Uiso   1.00
H891   H     0.02825   0.23342   0.58506   0.00000  Uiso   1.00
H892   H     0.09406   0.21739   0.59201   0.00000  Uiso   1.00
O893   O     0.14353   0.29403   0.41628   0.00000  Uiso   1.00
C894   C     0.17947   0.31172   0.38914   0.00000  Uiso   1.00
H895   H     0.21797   0.29878   0.39887   0.00000  Uiso   1.00
H896   H     0.18604   0.01231   0.39143   0.00000  Uiso   1.00
C897   C     0.15915   0.30192   0.34065   0.00000  Uiso   1.00
H898   H     0.12281   0.31805   0.66278   0.00000  Uiso   1.00
H899   H     0.18871   0.31173   0.65240   0.00000  Uiso   1.00
H900   H     0.15101   0.26837   0.33763   0.00000  Uiso   1.00
O901   O     0.17130   0.03815   0.58210   0.00000  Uiso   1.00
C902   C     0.22543   0.04106   0.59699   0.00000  Uiso   1.00
H903   H     0.24689   0.05916   0.57278   0.00000  Uiso   1.00
H904   H     0.24087   0.01001   0.60136   0.00000  Uiso   1.00
C905   C     0.23532   0.06240   0.64219   0.00000  Uiso   1.00
H906   H     0.27528   0.05657   0.65896   0.00000  Uiso   1.00
H907   H     0.23050   0.09589   0.63702   0.00000  Uiso   1.00
H908   H     0.20723   0.05052   0.66444   0.00000  Uiso   1.00
O909   O     0.22403   0.22589   0.38650   0.00000  Uiso   1.00
C910   C     0.27761   0.21946   0.39782   0.00000  Uiso   1.00
H911   H     0.29875   0.22656   0.36925   0.00000  Uiso   1.00
H912   H     0.28423   0.18725   0.40732   0.00000  Uiso   1.00
C913   C     0.30149   0.24736   0.43653   0.00000  Uiso   1.00
H914   H     0.27988   0.24292   0.46579   0.00000  Uiso   1.00
H915   H     0.00965   0.24053   0.44717   0.00000  Uiso   1.00
H916   H     0.30014   0.28002   0.42558   0.00000  Uiso   1.00
O917   O     0.09221   0.12138   0.60930   0.00000  Uiso   1.00
C918   C     0.08131   0.08048   0.62328   0.00000  Uiso   1.00
H919   H     0.06071   0.07907   0.65295   0.00000  Uiso   1.00
H920   H     0.11721   0.06347   0.63202   0.00000  Uiso   1.00
C921   C     0.04468   0.05898   0.58558   0.00000  Uiso   1.00
H922   H     0.01130   0.07835   0.57387   0.00000  Uiso   1.00
H923   H     0.06553   0.05349   0.55660   0.00000  Uiso   1.00
H924   H     0.02884   0.02934   0.59836   0.00000  Uiso   1.00
O925   O     0.21183   0.23243   0.62622   0.00000  Uiso   1.00
C926   C     0.26310   0.23359   0.61529   0.00000  Uiso   1.00
H927   H     0.26078   0.23416   0.57808   0.00000  Uiso   1.00
H928   H     0.28578   0.20677   0.62796   0.00000  Uiso   1.00
C929   C     0.29276   0.27374   0.63204   0.00000  Uiso   1.00
H930   H     0.27155   0.29004   0.65525   0.00000  Uiso   1.00
H931   H     0.33142   0.26753   0.65107   0.00000  Uiso   1.00
H932   H     0.29943   0.29427   0.60308   0.00000  Uiso   1.00
O933   O     0.08392   0.13169   0.36989   0.00000  Uiso   1.00
C934   C     0.04351   0.15858   0.35450   0.00000  Uiso   1.00
H935   H     0.04851   0.17615   0.65621   0.00000  Uiso   1.00
H936   H     0.04111   0.18168   0.38060   0.00000  Uiso   1.00
C937   C     0.32519   0.13371   0.34563   0.00000  Uiso   1.00
H938   H     0.32074   0.11172   0.37377   0.00000  Uiso   1.00
H939   H     0.29206   0.15382   0.34209   0.00000  Uiso   1.00
H940   H     0.32311   0.11725   0.64673   0.00000  Uiso   1.00
C941   C     0.49713   0.08668   0.50013   0.00000  Uiso   1.00
C942   C     0.49733   0.24657   0.49923   0.00000  Uiso   1.00
C943   C     0.40056   0.16391   0.48845   0.00000  Uiso   1.00
C944   C     0.59933   0.16496   0.51190   0.00000  Uiso   1.00
C945   C     0.34558   0.15688   0.48351   0.00000  Uiso   1.00
C946   C     0.65440   0.16364   0.51857   0.00000  Uiso   1.00
C947   C     0.47467   0.02186   0.45947   0.00000  Uiso   1.00
C948   C     0.48716   0.31050   0.53879   0.00000  Uiso   1.00
C949   C     0.48340   0.31342   0.45739   0.00000  Uiso   1.00
C950   C     0.49625   0.01941   0.54075   0.00000  Uiso   1.00
C951   C     0.49038   0.29065   0.49808   0.00000  Uiso   1.00
C952   C     0.49031   0.04228   0.50028   0.00000  Uiso   1.00
C953   C     0.53263   0.19371   0.36089   0.00000  Uiso   1.00
C954   C     0.46494   0.14159   0.63848   0.00000  Uiso   1.00
C955   C     0.53066   0.19531   0.64584   0.00000  Uiso   1.00
C956   C     0.46208   0.14489   0.35290   0.00000  Uiso   1.00
H957   H     0.65876   0.14588   0.45152   0.00000  Uiso   1.00
H958   H     0.34156   0.17069   0.55199   0.00000  Uiso   1.00
N959   N     0.49999   0.16666   0.61907   0.00000  Uiso   1.00
N960   N     0.50001   0.16668   0.38093   0.00000  Uiso   1.00
O961   O     0.50000   0.10558   0.53821   0.00000  Uiso   1.00
O962   O     0.50000   0.22775   0.46179   0.00000  Uiso   1.00
O963   O     0.50000   0.10559   0.46176   0.00000  Uiso   1.00
O964   O     0.50000   0.22774   0.53824   0.00000  Uiso   1.00
O965   O     0.42392   0.16666   0.52928   0.00000  Uiso   1.00
O966   O     0.57608   0.16667   0.47072   0.00000  Uiso   1.00
O967   O     0.42392   0.16667   0.45284   0.00000  Uiso   1.00
O968   O     0.57608   0.16666   0.54716   0.00000  Uiso   1.00
Zn969  Zn    0.50000   0.16666   0.55104   0.00000  Uiso   1.00
Zn970  Zn    0.50000   0.16667   0.44896   0.00000  Uiso   1.00
O971   O     0.44993   0.04211   0.42192   0.00000  Uiso   1.00
C972   C     0.39542   0.04008   0.42335   0.00000  Uiso   1.00
H973   H     0.38089   0.07091   0.41448   0.00000  Uiso   1.00
H974   H     0.38398   0.03227   0.45727   0.00000  Uiso   1.00
C975   C     0.36760   0.00943   0.38892   0.00000  Uiso   1.00
H976   H     0.37808   0.31101   0.39910   0.00000  Uiso   1.00
H977   H     0.65802   0.01132   0.38686   0.00000  Uiso   1.00
H978   H     0.37876   0.01620   0.35508   0.00000  Uiso   1.00
O979   O     0.47216   0.28932   0.57570   0.00000  Uiso   1.00
C980   C     0.41762   0.27961   0.56661   0.00000  Uiso   1.00
H981   H     0.40377   0.27081   0.53083   0.00000  Uiso   1.00
H982   H     0.39615   0.30639   0.57430   0.00000  Uiso   1.00
C983   C     0.40295   0.24337   0.59576   0.00000  Uiso   1.00
H984   H     0.40794   0.25182   0.63167   0.00000  Uiso   1.00
H985   H     0.36158   0.23342   0.58506   0.00000  Uiso   1.00
H986   H     0.42739   0.21739   0.59201   0.00000  Uiso   1.00
O987   O     0.47687   0.29403   0.41628   0.00000  Uiso   1.00
C988   C     0.51281   0.31172   0.38914   0.00000  Uiso   1.00
H989   H     0.55130   0.29878   0.39887   0.00000  Uiso   1.00
H990   H     0.51937   0.01231   0.39143   0.00000  Uiso   1.00
C991   C     0.49248   0.30192   0.34065   0.00000  Uiso   1.00
H992   H     0.45614   0.31805   0.66278   0.00000  Uiso   1.00
H993   H     0.52205   0.31173   0.65240   0.00000  Uiso   1.00
H994   H     0.48435   0.26837   0.33763   0.00000  Uiso   1.00
O995   O     0.50463   0.03815   0.58210   0.00000  Uiso   1.00
C996   C     0.55876   0.04106   0.59699   0.00000  Uiso   1.00
H997   H     0.58023   0.05916   0.57278   0.00000  Uiso   1.00
H998   H     0.57421   0.01001   0.60136   0.00000  Uiso   1.00
C999   C     0.56866   0.06240   0.64219   0.00000  Uiso   1.00
H1000  H     0.60862   0.05657   0.65896   0.00000  Uiso   1.00
H1001  H     0.56383   0.09589   0.63702   0.00000  Uiso   1.00
H1002  H     0.54057   0.05052   0.66444   0.00000  Uiso   1.00
O1003  O     0.55736   0.22589   0.38650   0.00000  Uiso   1.00
C1004  C     0.61094   0.21946   0.39782   0.00000  Uiso   1.00
H1005  H     0.63208   0.22656   0.36925   0.00000  Uiso   1.00
H1006  H     0.61756   0.18725   0.40732   0.00000  Uiso   1.00
C1007  C     0.63482   0.24736   0.43653   0.00000  Uiso   1.00
H1008  H     0.61321   0.24292   0.46579   0.00000  Uiso   1.00
H1009  H     0.34298   0.24053   0.44717   0.00000  Uiso   1.00
H1010  H     0.63347   0.28002   0.42558   0.00000  Uiso   1.00
O1011  O     0.42554   0.12138   0.60930   0.00000  Uiso   1.00
C1012  C     0.41465   0.08048   0.62328   0.00000  Uiso   1.00
H1013  H     0.39404   0.07907   0.65295   0.00000  Uiso   1.00
H1014  H     0.45055   0.06347   0.63202   0.00000  Uiso   1.00
C1015  C     0.37801   0.05898   0.58558   0.00000  Uiso   1.00
H1016  H     0.34464   0.07835   0.57387   0.00000  Uiso   1.00
H1017  H     0.39886   0.05349   0.55660   0.00000  Uiso   1.00
H1018  H     0.36217   0.02934   0.59836   0.00000  Uiso   1.00
O1019  O     0.54516   0.23243   0.62622   0.00000  Uiso   1.00
C1020  C     0.59644   0.23359   0.61529   0.00000  Uiso   1.00
H1021  H     0.59411   0.23416   0.57808   0.00000  Uiso   1.00
H1022  H     0.61911   0.20677   0.62796   0.00000  Uiso   1.00
C1023  C     0.62609   0.27374   0.63204   0.00000  Uiso   1.00
H1024  H     0.60489   0.29004   0.65525   0.00000  Uiso   1.00
H1025  H     0.66475   0.26753   0.65107   0.00000  Uiso   1.00
H1026  H     0.63276   0.29427   0.60308   0.00000  Uiso   1.00
O1027  O     0.41725   0.13169   0.36989   0.00000  Uiso   1.00
C1028  C     0.37685   0.15858   0.35450   0.00000  Uiso   1.00
H1029  H     0.38184   0.17615   0.65621   0.00000  Uiso   1.00
H1030  H     0.37444   0.18168   0.38060   0.00000  Uiso   1.00
C1031  C     0.65853   0.13371   0.34563   0.00000  Uiso   1.00
H1032  H     0.65407   0.11172   0.37377   0.00000  Uiso   1.00
H1033  H     0.62539   0.15382   0.34209   0.00000  Uiso   1.00
H1034  H     0.65644   0.11725   0.64673   0.00000  Uiso   1.00
C1035  C     0.83046   0.08668   0.50013   0.00000  Uiso   1.00
C1036  C     0.83066   0.24657   0.49923   0.00000  Uiso   1.00
C1037  C     0.73389   0.16391   0.48845   0.00000  Uiso   1.00
C1038  C     0.93266   0.16496   0.51190   0.00000  Uiso   1.00
C1039  C     0.67892   0.15688   0.48351   0.00000  Uiso   1.00
C1040  C     0.98774   0.16364   0.51857   0.00000  Uiso   1.00
C1041  C     0.80801   0.02186   0.45947   0.00000  Uiso   1.00
C1042  C     0.82049   0.31050   0.53879   0.00000  Uiso   1.00
C1043  C     0.81673   0.31342   0.45739   0.00000  Uiso   1.00
C1044  C     0.82958   0.01941   0.54075   0.00000  Uiso   1.00
C1045  C     0.82371   0.29065   0.49808   0.00000  Uiso   1.00
C1046  C     0.82364   0.04228   0.50028   0.00000  Uiso   1.00
C1047  C     0.86596   0.19371   0.36089   0.00000  Uiso   1.00
C1048  C     0.79828   0.14159   0.63848   0.00000  Uiso   1.00
C1049  C     0.86399   0.19531   0.64584   0.00000  Uiso   1.00
C1050  C     0.79541   0.14489   0.35290   0.00000  Uiso   1.00
H1051  H     0.99209   0.14588   0.45152   0.00000  Uiso   1.00
H1052  H     0.67489   0.17069   0.55199   0.00000  Uiso   1.00
N1053  N     0.83332   0.16666   0.61907   0.00000  Uiso   1.00
N1054  N     0.83335   0.16668   0.38093   0.00000  Uiso   1.00
O1055  O     0.83333   0.10558   0.53821   0.00000  Uiso   1.00
O1056  O     0.83334   0.22775   0.46179   0.00000  Uiso   1.00
O1057  O     0.83333   0.10559   0.46176   0.00000  Uiso   1.00
O1058  O     0.83334   0.22774   0.53824   0.00000  Uiso   1.00
O1059  O     0.75725   0.16666   0.52928   0.00000  Uiso   1.00
O1060  O     0.90942   0.16667   0.47072   0.00000  Uiso   1.00
O1061  O     0.75725   0.16667   0.45284   0.00000  Uiso   1.00
O1062  O     0.90942   0.16666   0.54716   0.00000  Uiso   1.00
Zn1063 Zn    0.83333   0.16666   0.55104   0.00000  Uiso   1.00
Zn1064 Zn    0.83333   0.16667   0.44896   0.00000  Uiso   1.00
O1065  O     0.78327   0.04211   0.42192   0.00000  Uiso   1.00
C1066  C     0.72875   0.04008   0.42335   0.00000  Uiso   1.00
H1067  H     0.71423   0.07091   0.41448   0.00000  Uiso   1.00
H1068  H     0.71731   0.03227   0.45727   0.00000  Uiso   1.00
C1069  C     0.70093   0.00943   0.38892   0.00000  Uiso   1.00
H1070  H     0.71141   0.31101   0.39910   0.00000  Uiso   1.00
H1071  H     0.99136   0.01132   0.38686   0.00000  Uiso   1.00
H1072  H     0.71209   0.01620   0.35508   0.00000  Uiso   1.00
O1073  O     0.80550   0.28932   0.57570   0.00000  Uiso   1.00
C1074  C     0.75096   0.27961   0.56661   0.00000  Uiso   1.00
H1075  H     0.73710   0.27081   0.53083   0.00000  Uiso   1.00
H1076  H     0.72949   0.30639   0.57430   0.00000  Uiso   1.00
C1077  C     0.73628   0.24337   0.59576   0.00000  Uiso   1.00
H1078  H     0.74128   0.25182   0.63167   0.00000  Uiso   1.00
H1079  H     0.69491   0.23342   0.58506   0.00000  Uiso   1.00
H1080  H     0.76072   0.21739   0.59201   0.00000  Uiso   1.00
O1081  O     0.81020   0.29403   0.41628   0.00000  Uiso   1.00
C1082  C     0.84614   0.31172   0.38914   0.00000  Uiso   1.00
H1083  H     0.88463   0.29878   0.39887   0.00000  Uiso   1.00
H1084  H     0.85270   0.01231   0.39143   0.00000  Uiso   1.00
C1085  C     0.82581   0.30192   0.34065   0.00000  Uiso   1.00
H1086  H     0.78948   0.31805   0.66278   0.00000  Uiso   1.00
H1087  H     0.85538   0.31173   0.65240   0.00000  Uiso   1.00
H1088  H     0.81768   0.26837   0.33763   0.00000  Uiso   1.00
O1089  O     0.83797   0.03815   0.58210   0.00000  Uiso   1.00
C1090  C     0.89210   0.04106   0.59699   0.00000  Uiso   1.00
H1091  H     0.91356   0.05916   0.57278   0.00000  Uiso   1.00
H1092  H     0.90754   0.01001   0.60136   0.00000  Uiso   1.00
C1093  C     0.90199   0.06240   0.64219   0.00000  Uiso   1.00
H1094  H     0.94195   0.05657   0.65896   0.00000  Uiso   1.00
H1095  H     0.89716   0.09589   0.63702   0.00000  Uiso   1.00
H1096  H     0.87390   0.05052   0.66444   0.00000  Uiso   1.00
O1097  O     0.89069   0.22589   0.38650   0.00000  Uiso   1.00
C1098  C     0.94428   0.21946   0.39782   0.00000  Uiso   1.00
H1099  H     0.96542   0.22656   0.36925   0.00000  Uiso   1.00
H1100  H     0.95089   0.18725   0.40732   0.00000  Uiso   1.00
C1101  C     0.96816   0.24736   0.43653   0.00000  Uiso   1.00
H1102  H     0.94655   0.24292   0.46579   0.00000  Uiso   1.00
H1103  H     0.67631   0.24053   0.44717   0.00000  Uiso   1.00
H1104  H     0.96680   0.28002   0.42558   0.00000  Uiso   1.00
O1105  O     0.75888   0.12138   0.60930   0.00000  Uiso   1.00
C1106  C     0.74798   0.08048   0.62328   0.00000  Uiso   1.00
H1107  H     0.72738   0.07907   0.65295   0.00000  Uiso   1.00
H1108  H     0.78388   0.06347   0.63202   0.00000  Uiso   1.00
C1109  C     0.71135   0.05898   0.58558   0.00000  Uiso   1.00
H1110  H     0.67797   0.07835   0.57387   0.00000  Uiso   1.00
H1111  H     0.73220   0.05349   0.55660   0.00000  Uiso   1.00
H1112  H     0.69551   0.02934   0.59836   0.00000  Uiso   1.00
O1113  O     0.87849   0.23243   0.62622   0.00000  Uiso   1.00
C1114  C     0.92977   0.23359   0.61529   0.00000  Uiso   1.00
H1115  H     0.92745   0.23416   0.57808   0.00000  Uiso   1.00
H1116  H     0.95244   0.20677   0.62796   0.00000  Uiso   1.00
C1117  C     0.95943   0.27374   0.63204   0.00000  Uiso   1.00
H1118  H     0.93822   0.29004   0.65525   0.00000  Uiso   1.00
H1119  H     0.99808   0.26753   0.65107   0.00000  Uiso   1.00
H1120  H     0.96609   0.29427   0.60308   0.00000  Uiso   1.00
O1121  O     0.75058   0.13169   0.36989   0.00000  Uiso   1.00
C1122  C     0.71018   0.15858   0.35450   0.00000  Uiso   1.00
H1123  H     0.71517   0.17615   0.65621   0.00000  Uiso   1.00
H1124  H     0.70778   0.18168   0.38060   0.00000  Uiso   1.00
C1125  C     0.99186   0.13371   0.34563   0.00000  Uiso   1.00
H1126  H     0.98741   0.11172   0.37377   0.00000  Uiso   1.00
H1127  H     0.95873   0.15382   0.34209   0.00000  Uiso   1.00
H1128  H     0.98977   0.11725   0.64673   0.00000  Uiso   1.00
C1129  C     0.16379   0.42001   0.50013   0.00000  Uiso   1.00
C1130  C     0.16399   0.57991   0.49923   0.00000  Uiso   1.00
C1131  C     0.06723   0.49724   0.48845   0.00000  Uiso   1.00
C1132  C     0.26600   0.49829   0.51190   0.00000  Uiso   1.00
C1133  C     0.01225   0.49022   0.48351   0.00000  Uiso   1.00
C1134  C     0.32107   0.49697   0.51857   0.00000  Uiso   1.00
C1135  C     0.14134   0.35519   0.45947   0.00000  Uiso   1.00
C1136  C     0.15383   0.64383   0.53879   0.00000  Uiso   1.00
C1137  C     0.15006   0.64676   0.45739   0.00000  Uiso   1.00
C1138  C     0.16292   0.35274   0.54075   0.00000  Uiso   1.00
C1139  C     0.15704   0.62399   0.49808   0.00000  Uiso   1.00
C1140  C     0.15697   0.37561   0.50028   0.00000  Uiso   1.00
C1141  C     0.19930   0.52704   0.36089   0.00000  Uiso   1.00
C1142  C     0.13161   0.47492   0.63848   0.00000  Uiso   1.00
C1143  C     0.19733   0.52864   0.64584   0.00000  Uiso   1.00
C1144  C     0.12874   0.47823   0.35290   0.00000  Uiso   1.00
H1145  H     0.32543   0.47921   0.45152   0.00000  Uiso   1.00
H1146  H     0.00823   0.50403   0.55199   0.00000  Uiso   1.00
N1147  N     0.16665   0.49999   0.61907   0.00000  Uiso   1.00
N1148  N     0.16668   0.50001   0.38093   0.00000  Uiso   1.00
O1149  O     0.16666   0.43892   0.53821   0.00000  Uiso   1.00
O1150  O     0.16667   0.56108   0.46179   0.00000  Uiso   1.00
O1151  O     0.16666   0.43893   0.46176   0.00000  Uiso   1.00
O1152  O     0.16667   0.56107   0.53824   0.00000  Uiso   1.00
O1153  O     0.09058   0.50000   0.52928   0.00000  Uiso   1.00
O1154  O     0.24275   0.50000   0.47072   0.00000  Uiso   1.00
O1155  O     0.09058   0.50000   0.45284   0.00000  Uiso   1.00
O1156  O     0.24275   0.50000   0.54716   0.00000  Uiso   1.00
Zn1157 Zn    0.16667   0.49999   0.55104   0.00000  Uiso   1.00
Zn1158 Zn    0.16667   0.50001   0.44896   0.00000  Uiso   1.00
O1159  O     0.11660   0.37545   0.42192   0.00000  Uiso   1.00
C1160  C     0.06208   0.37341   0.42335   0.00000  Uiso   1.00
H1161  H     0.04756   0.40424   0.41448   0.00000  Uiso   1.00
H1162  H     0.05065   0.36560   0.45727   0.00000  Uiso   1.00
C1163  C     0.03426   0.34277   0.38892   0.00000  Uiso   1.00
H1164  H     0.04475   0.64434   0.39910   0.00000  Uiso   1.00
H1165  H     0.32469   0.34465   0.38686   0.00000  Uiso   1.00
H1166  H     0.04543   0.34953   0.35508   0.00000  Uiso   1.00
O1167  O     0.13883   0.62266   0.57570   0.00000  Uiso   1.00
C1168  C     0.08429   0.61294   0.56661   0.00000  Uiso   1.00
H1169  H     0.07044   0.60414   0.53083   0.00000  Uiso   1.00
H1170  H     0.06282   0.63972   0.57430   0.00000  Uiso   1.00
C1171  C     0.06961   0.57670   0.59576   0.00000  Uiso   1.00
H1172  H     0.07461   0.58516   0.63167   0.00000  Uiso   1.00
H1173  H     0.02825   0.56675   0.58506   0.00000  Uiso   1.00
H1174  H     0.09406   0.55072   0.59201   0.00000  Uiso   1.00
O1175  O     0.14353   0.62737   0.41628   0.00000  Uiso   1.00
C1176  C     0.17947   0.64506   0.38914   0.00000  Uiso   1.00
H1177  H     0.21797   0.63211   0.39887   0.00000  Uiso   1.00
H1178  H     0.18604   0.34564   0.39143   0.00000  Uiso   1.00
C1179  C     0.15915   0.63525   0.34065   0.00000  Uiso   1.00
H1180  H     0.12281   0.65138   0.66278   0.00000  Uiso   1.00
H1181  H     0.18871   0.64507   0.65240   0.00000  Uiso   1.00
H1182  H     0.15101   0.60170   0.33763   0.00000  Uiso   1.00
O1183  O     0.17130   0.37148   0.58210   0.00000  Uiso   1.00
C1184  C     0.22543   0.37440   0.59699   0.00000  Uiso   1.00
H1185  H     0.24689   0.39250   0.57278   0.00000  Uiso   1.00
H1186  H     0.24087   0.34334   0.60136   0.00000  Uiso   1.00
C1187  C     0.23532   0.39573   0.64219   0.00000  Uiso   1.00
H1188  H     0.27528   0.38990   0.65896   0.00000  Uiso   1.00
H1189  H     0.23050   0.42922   0.63702   0.00000  Uiso   1.00
H1190  H     0.20723   0.38385   0.66444   0.00000  Uiso   1.00
O1191  O     0.22403   0.55922   0.38650   0.00000  Uiso   1.00
C1192  C     0.27761   0.55280   0.39782   0.00000  Uiso   1.00
H1193  H     0.29875   0.55989   0.36925   0.00000  Uiso   1.00
H1194  H     0.28423   0.52059   0.40732   0.00000  Uiso   1.00
C1195  C     0.30149   0.58070   0.43653   0.00000  Uiso   1.00
H1196  H     0.27988   0.57626   0.46579   0.00000  Uiso   1.00
H1197  H     0.00965   0.57386   0.44717   0.00000  Uiso   1.00
H1198  H     0.30014   0.61336   0.42558   0.00000  Uiso   1.00
O1199  O     0.09221   0.45472   0.60930   0.00000  Uiso   1.00
C1200  C     0.08131   0.41382   0.62328   0.00000  Uiso   1.00
H1201  H     0.06071   0.41240   0.65295   0.00000  Uiso   1.00
H1202  H     0.11721   0.39680   0.63202   0.00000  Uiso   1.00
C1203  C     0.04468   0.39232   0.58558   0.00000  Uiso   1.00
H1204  H     0.01130   0.41169   0.57387   0.00000  Uiso   1.00
H1205  H     0.06553   0.38682   0.55660   0.00000  Uiso   1.00
H1206  H     0.02884   0.36268   0.59836   0.00000  Uiso   1.00
O1207  O     0.21183   0.56577   0.62622   0.00000  Uiso   1.00
C1208  C     0.26310   0.56692   0.61529   0.00000  Uiso   1.00
H1209  H     0.26078   0.56749   0.57808   0.00000  Uiso   1.00
H1210  H     0.28578   0.54010   0.62796   0.00000  Uiso   1.00
C1211  C     0.29276   0.60707   0.63204   0.00000  Uiso   1.00
H1212  H     0.27155   0.62338   0.65525   0.00000  Uiso   1.00
H1213  H     0.33142   0.60087   0.65107   0.00000  Uiso   1.00
H1214  H     0.29943   0.62760   0.60308   0.00000  Uiso   1.00
O1215  O     0.08392   0.46502   0.36989   0.00000  Uiso   1.00
C1216  C     0.04351   0.49191   0.35450   0.00000  Uiso   1.00
H1217  H     0.04851   0.50949   0.65621   0.00000  Uiso   1.00
H1218  H     0.04111   0.51501   0.38060   0.00000  Uiso   1.00
C1219  C     0.32519   0.46705   0.34563   0.00000  Uiso   1.00
H1220  H     0.32074   0.44505   0.37377   0.00000  Uiso   1.00
H1221  H     0.29206   0.48715   0.34209   0.00000  Uiso   1.00
H1222  H     0.32311   0.45058   0.64673   0.00000  Uiso   1.00
C1223  C     0.49713   0.42001   0.50013   0.00000  Uiso   1.00
C1224  C     0.49733   0.57991   0.49923   0.00000  Uiso   1.00
C1225  C     0.40056   0.49724   0.48845   0.00000  Uiso   1.00
C1226  C     0.59933   0.49829   0.51190   0.00000  Uiso   1.00
C1227  C     0.34558   0.49022   0.48351   0.00000  Uiso   1.00
C1228  C     0.65440   0.49697   0.51857   0.00000  Uiso   1.00
C1229  C     0.47467   0.35519   0.45947   0.00000  Uiso   1.00
C1230  C     0.48716   0.64383   0.53879   0.00000  Uiso   1.00
C1231  C     0.48340   0.64676   0.45739   0.00000  Uiso   1.00
C1232  C     0.49625   0.35274   0.54075   0.00000  Uiso   1.00
C1233  C     0.49038   0.62399   0.49808   0.00000  Uiso   1.00
C1234  C     0.49031   0.37561   0.50028   0.00000  Uiso   1.00
C1235  C     0.53263   0.52704   0.36089   0.00000  Uiso   1.00
C1236  C     0.46494   0.47492   0.63848   0.00000  Uiso   1.00
C1237  C     0.53066   0.52864   0.64584   0.00000  Uiso   1.00
C1238  C     0.46208   0.47823   0.35290   0.00000  Uiso   1.00
H1239  H     0.65876   0.47921   0.45152   0.00000  Uiso   1.00
H1240  H     0.34156   0.50403   0.55199   0.00000  Uiso   1.00
N1241  N     0.49999   0.49999   0.61907   0.00000  Uiso   1.00
N1242  N     0.50001   0.50001   0.38093   0.00000  Uiso   1.00
O1243  O     0.50000   0.43892   0.53821   0.00000  Uiso   1.00
O1244  O     0.50000   0.56108   0.46179   0.00000  Uiso   1.00
O1245  O     0.50000   0.43893   0.46176   0.00000  Uiso   1.00
O1246  O     0.50000   0.56107   0.53824   0.00000  Uiso   1.00
O1247  O     0.42392   0.50000   0.52928   0.00000  Uiso   1.00
O1248  O     0.57608   0.50000   0.47072   0.00000  Uiso   1.00
O1249  O     0.42392   0.50000   0.45284   0.00000  Uiso   1.00
O1250  O     0.57608   0.50000   0.54716   0.00000  Uiso   1.00
Zn1251 Zn    0.50000   0.49999   0.55104   0.00000  Uiso   1.00
Zn1252 Zn    0.50000   0.50001   0.44896   0.00000  Uiso   1.00
O1253  O     0.44993   0.37545   0.42192   0.00000  Uiso   1.00
C1254  C     0.39542   0.37341   0.42335   0.00000  Uiso   1.00
H1255  H     0.38089   0.40424   0.41448   0.00000  Uiso   1.00
H1256  H     0.38398   0.36560   0.45727   0.00000  Uiso   1.00
C1257  C     0.36760   0.34277   0.38892   0.00000  Uiso   1.00
H1258  H     0.37808   0.64434   0.39910   0.00000  Uiso   1.00
H1259  H     0.65802   0.34465   0.38686   0.00000  Uiso   1.00
H1260  H     0.37876   0.34953   0.35508   0.00000  Uiso   1.00
O1261  O     0.47216   0.62266   0.57570   0.00000  Uiso   1.00
C1262  C     0.41762   0.61294   0.56661   0.00000  Uiso   1.00
H1263  H     0.40377   0.60414   0.53083   0.00000  Uiso   1.00
H1264  H     0.39615   0.63972   0.57430   0.00000  Uiso   1.00
C1265  C     0.40295   0.57670   0.59576   0.00000  Uiso   1.00
H1266  H     0.40794   0.58516   0.63167   0.00000  Uiso   1.00
H1267  H     0.36158   0.56675   0.58506   0.00000  Uiso   1.00
H1268  H     0.42739   0.55072   0.59201   0.00000  Uiso   1.00
O1269  O     0.47687   0.62737   0.41628   0.00000  Uiso   1.00
C1270  C     0.51281   0.64506   0.38914   0.00000  Uiso   1.00
H1271  H     0.55130   0.63211   0.39887   0.00000  Uiso   1.00
H1272  H     0.51937   0.34564   0.39143   0.00000  Uiso   1.00
C1273  C     0.49248   0.63525   0.34065   0.00000  Uiso   1.00
H1274  H     0.45614   0.65138   0.66278   0.00000  Uiso   1.00
H1275  H     0.52205   0.64507   0.65240   0.00000  Uiso   1.00
H1276  H     0.48435   0.60170   0.33763   0.00000  Uiso   1.00
O1277  O     0.50463   0.37148   0.58210   0.00000  Uiso   1.00
C1278  C     0.55876   0.37440   0.59699   0.00000  Uiso   1.00
H1279  H     0.58023   0.39250   0.57278   0.00000  Uiso   1.00
H1280  H     0.57421   0.34334   0.60136   0.00000  Uiso   1.00
C1281  C     0.56866   0.39573   0.64219   0.00000  Uiso   1.00
H1282  H     0.60862   0.38990   0.65896   0.00000  Uiso   1.00
H1283  H     0.56383   0.42922   0.63702   0.00000  Uiso   1.00
H1284  H     0.54057   0.38385   0.66444   0.00000  Uiso   1.00
O1285  O     0.55736   0.55922   0.38650   0.00000  Uiso   1.00
C1286  C     0.61094   0.55280   0.39782   0.00000  Uiso   1.00
H1287  H     0.63208   0.55989   0.36925   0.00000  Uiso   1.00
H1288  H     0.61756   0.52059   0.40732   0.00000  Uiso   1.00
C1289  C     0.63482   0.58070   0.43653   0.00000  Uiso   1.00
H1290  H     0.61321   0.57626   0.46579   0.00000  Uiso   1.00
H1291  H     0.34298   0.57386   0.44717   0.00000  Uiso   1.00
H1292  H     0.63347   0.61336   0.42558   0.00000  Uiso   1.00
O1293  O     0.42554   0.45472   0.60930   0.00000  Uiso   1.00
C1294  C     0.41465   0.41382   0.62328   0.00000  Uiso   1.00
H1295  H     0.39404   0.41240   0.65295   0.00000  Uiso   1.00
H1296  H     0.45055   0.39680   0.63202   0.00000  Uiso   1.00
C1297  C     0.37801   0.39232   0.58558   0.00000  Uiso   1.00
H1298  H     0.34464   0.41169   0.57387   0.00000  Uiso   1.00
H1299  H     0.39886   0.38682   0.55660   0.00000  Uiso   1.00
H1300  H     0.36217   0.36268   0.59836   0.00000  Uiso   1.00
O1301  O     0.54516   0.56577   0.62622   0.00000  Uiso   1.00
C1302  C     0.59644   0.56692   0.61529   0.00000  Uiso   1.00
H1303  H     0.59411   0.56749   0.57808   0.00000  Uiso   1.00
H1304  H     0.61911   0.54010   0.62796   0.00000  Uiso   1.00
C1305  C     0.62609   0.60707   0.63204   0.00000  Uiso   1.00
H1306  H     0.60489   0.62338   0.65525   0.00000  Uiso   1.00
H1307  H     0.66475   0.60087   0.65107   0.00000  Uiso   1.00
H1308  H     0.63276   0.62760   0.60308   0.00000  Uiso   1.00
O1309  O     0.41725   0.46502   0.36989   0.00000  Uiso   1.00
C1310  C     0.37685   0.49191   0.35450   0.00000  Uiso   1.00
H1311  H     0.38184   0.50949   0.65621   0.00000  Uiso   1.00
H1312  H     0.37444   0.51501   0.38060   0.00000  Uiso   1.00
C1313  C     0.65853   0.46705   0.34563   0.00000  Uiso   1.00
H1314  H     0.65407   0.44505   0.37377   0.00000  Uiso   1.00
H1315  H     0.62539   0.48715   0.34209   0.00000  Uiso   1.00
H1316  H     0.65644   0.45058   0.64673   0.00000  Uiso   1.00
C1317  C     0.83046   0.42001   0.50013   0.00000  Uiso   1.00
C1318  C     0.83066   0.57991   0.49923   0.00000  Uiso   1.00
C1319  C     0.73389   0.49724   0.48845   0.00000  Uiso   1.00
C1320  C     0.93266   0.49829   0.51190   0.00000  Uiso   1.00
C1321  C     0.67892   0.49022   0.48351   0.00000  Uiso   1.00
C1322  C     0.98774   0.49697   0.51857   0.00000  Uiso   1.00
C1323  C     0.80801   0.35519   0.45947   0.00000  Uiso   1.00
C1324  C     0.82049   0.64383   0.53879   0.00000  Uiso   1.00
C1325  C     0.81673   0.64676   0.45739   0.00000  Uiso   1.00
C1326  C     0.82958   0.35274   0.54075   0.00000  Uiso   1.00
C1327  C     0.82371   0.62399   0.49808   0.00000  Uiso   1.00
C1328  C     0.82364   0.37561   0.50028   0.00000  Uiso   1.00
C1329  C     0.86596   0.52704   0.36089   0.00000  Uiso   1.00
C1330  C     0.79828   0.47492   0.63848   0.00000  Uiso   1.00
C1331  C     0.86399   0.52864   0.64584   0.00000  Uiso   1.00
C1332  C     0.79541   0.47823   0.35290   0.00000  Uiso   1.00
H1333  H     0.99209   0.47921   0.45152   0.00000  Uiso   1.00
H1334  H     0.67489   0.50403   0.55199   0.00000  Uiso   1.00
N1335  N     0.83332   0.49999   0.61907   0.00000  Uiso   1.00
N1336  N     0.83335   0.50001   0.38093   0.00000  Uiso   1.00
O1337  O     0.83333   0.43892   0.53821   0.00000  Uiso   1.00
O1338  O     0.83334   0.56108   0.46179   0.00000  Uiso   1.00
O1339  O     0.83333   0.43893   0.46176   0.00000  Uiso   1.00
O1340  O     0.83334   0.56107   0.53824   0.00000  Uiso   1.00
O1341  O     0.75725   0.50000   0.52928   0.00000  Uiso   1.00
O1342  O     0.90942   0.50000   0.47072   0.00000  Uiso   1.00
O1343  O     0.75725   0.50000   0.45284   0.00000  Uiso   1.00
O1344  O     0.90942   0.50000   0.54716   0.00000  Uiso   1.00
Zn1345 Zn    0.83333   0.49999   0.55104   0.00000  Uiso   1.00
Zn1346 Zn    0.83333   0.50001   0.44896   0.00000  Uiso   1.00
O1347  O     0.78327   0.37545   0.42192   0.00000  Uiso   1.00
C1348  C     0.72875   0.37341   0.42335   0.00000  Uiso   1.00
H1349  H     0.71423   0.40424   0.41448   0.00000  Uiso   1.00
H1350  H     0.71731   0.36560   0.45727   0.00000  Uiso   1.00
C1351  C     0.70093   0.34277   0.38892   0.00000  Uiso   1.00
H1352  H     0.71141   0.64434   0.39910   0.00000  Uiso   1.00
H1353  H     0.99136   0.34465   0.38686   0.00000  Uiso   1.00
H1354  H     0.71209   0.34953   0.35508   0.00000  Uiso   1.00
O1355  O     0.80550   0.62266   0.57570   0.00000  Uiso   1.00
C1356  C     0.75096   0.61294   0.56661   0.00000  Uiso   1.00
H1357  H     0.73710   0.60414   0.53083   0.00000  Uiso   1.00
H1358  H     0.72949   0.63972   0.57430   0.00000  Uiso   1.00
C1359  C     0.73628   0.57670   0.59576   0.00000  Uiso   1.00
H1360  H     0.74128   0.58516   0.63167   0.00000  Uiso   1.00
H1361  H     0.69491   0.56675   0.58506   0.00000  Uiso   1.00
H1362  H     0.76072   0.55072   0.59201   0.00000  Uiso   1.00
O1363  O     0.81020   0.62737   0.41628   0.00000  Uiso   1.00
C1364  C     0.84614   0.64506   0.38914   0.00000  Uiso   1.00
H1365  H     0.88463   0.63211   0.39887   0.00000  Uiso   1.00
H1366  H     0.85270   0.34564   0.39143   0.00000  Uiso   1.00
C1367  C     0.82581   0.63525   0.34065   0.00000  Uiso   1.00
H1368  H     0.78948   0.65138   0.66278   0.00000  Uiso   1.00
H1369  H     0.85538   0.64507   0.65240   0.00000  Uiso   1.00
H1370  H     0.81768   0.60170   0.33763   0.00000  Uiso   1.00
O1371  O     0.83797   0.37148   0.58210   0.00000  Uiso   1.00
C1372  C     0.89210   0.37440   0.59699   0.00000  Uiso   1.00
H1373  H     0.91356   0.39250   0.57278   0.00000  Uiso   1.00
H1374  H     0.90754   0.34334   0.60136   0.00000  Uiso   1.00
C1375  C     0.90199   0.39573   0.64219   0.00000  Uiso   1.00
H1376  H     0.94195   0.38990   0.65896   0.00000  Uiso   1.00
H1377  H     0.89716   0.42922   0.63702   0.00000  Uiso   1.00
H1378  H     0.87390   0.38385   0.66444   0.00000  Uiso   1.00
O1379  O     0.89069   0.55922   0.38650   0.00000  Uiso   1.00
C1380  C     0.94428   0.55280   0.39782   0.00000  Uiso   1.00
H1381  H     0.96542   0.55989   0.36925   0.00000  Uiso   1.00
H1382  H     0.95089   0.52059   0.40732   0.00000  Uiso   1.00
C1383  C     0.96816   0.58070   0.43653   0.00000  Uiso   1.00
H1384  H     0.94655   0.57626   0.46579   0.00000  Uiso   1.00
H1385  H     0.67631   0.57386   0.44717   0.00000  Uiso   1.00
H1386  H     0.96680   0.61336   0.42558   0.00000  Uiso   1.00
O1387  O     0.75888   0.45472   0.60930   0.00000  Uiso   1.00
C1388  C     0.74798   0.41382   0.62328   0.00000  Uiso   1.00
H1389  H     0.72738   0.41240   0.65295   0.00000  Uiso   1.00
H1390  H     0.78388   0.39680   0.63202   0.00000  Uiso   1.00
C1391  C     0.71135   0.39232   0.58558   0.00000  Uiso   1.00
H1392  H     0.67797   0.41169   0.57387   0.00000  Uiso   1.00
H1393  H     0.73220   0.38682   0.55660   0.00000  Uiso   1.00
H1394  H     0.69551   0.36268   0.59836   0.00000  Uiso   1.00
O1395  O     0.87849   0.56577   0.62622   0.00000  Uiso   1.00
C1396  C     0.92977   0.56692   0.61529   0.00000  Uiso   1.00
H1397  H     0.92745   0.56749   0.57808   0.00000  Uiso   1.00
H1398  H     0.95244   0.54010   0.62796   0.00000  Uiso   1.00
C1399  C     0.95943   0.60707   0.63204   0.00000  Uiso   1.00
H1400  H     0.93822   0.62338   0.65525   0.00000  Uiso   1.00
H1401  H     0.99808   0.60087   0.65107   0.00000  Uiso   1.00
H1402  H     0.96609   0.62760   0.60308   0.00000  Uiso   1.00
O1403  O     0.75058   0.46502   0.36989   0.00000  Uiso   1.00
C1404  C     0.71018   0.49191   0.35450   0.00000  Uiso   1.00
H1405  H     0.71517   0.50949   0.65621   0.00000  Uiso   1.00
H1406  H     0.70778   0.51501   0.38060   0.00000  Uiso   1.00
C1407  C     0.99186   0.46705   0.34563   0.00000  Uiso   1.00
H1408  H     0.98741   0.44505   0.37377   0.00000  Uiso   1.00
H1409  H     0.95873   0.48715   0.34209   0.00000  Uiso   1.00
H1410  H     0.98977   0.45058   0.64673   0.00000  Uiso   1.00
C1411  C     0.16379   0.75335   0.50013   0.00000  Uiso   1.00
C1412  C     0.16399   0.91324   0.49923   0.00000  Uiso   1.00
C1413  C     0.06723   0.83057   0.48845   0.00000  Uiso   1.00
C1414  C     0.26600   0.83163   0.51190   0.00000  Uiso   1.00
C1415  C     0.01225   0.82355   0.48351   0.00000  Uiso   1.00
C1416  C     0.32107   0.83031   0.51857   0.00000  Uiso   1.00
C1417  C     0.14134   0.68853   0.45947   0.00000  Uiso   1.00
C1418  C     0.15383   0.97717   0.53879   0.00000  Uiso   1.00
C1419  C     0.15006   0.98009   0.45739   0.00000  Uiso   1.00
C1420  C     0.16292   0.68608   0.54075   0.00000  Uiso   1.00
C1421  C     0.15704   0.95732   0.49808   0.00000  Uiso   1.00
C1422  C     0.15697   0.70895   0.50028   0.00000  Uiso   1.00
C1423  C     0.19930   0.86038   0.36089   0.00000  Uiso   1.00
C1424  C     0.13161   0.80825   0.63848   0.00000  Uiso   1.00
C1425  C     0.19733   0.86198   0.64584   0.00000  Uiso   1.00
C1426  C     0.12874   0.81156   0.35290   0.00000  Uiso   1.00
H1427  H     0.32543   0.81255   0.45152   0.00000  Uiso   1.00
H1428  H     0.00823   0.83736   0.55199   0.00000  Uiso   1.00
N1429  N     0.16665   0.83332   0.61907   0.00000  Uiso   1.00
N1430  N     0.16668   0.83334   0.38093   0.00000  Uiso   1.00
O1431  O     0.16666   0.77225   0.53821   0.00000  Uiso   1.00
O1432  O     0.16667   0.89442   0.46179   0.00000  Uiso   1.00
O1433  O     0.16666   0.77226   0.46176   0.00000  Uiso   1.00
O1434  O     0.16667   0.89441   0.53824   0.00000  Uiso   1.00
O1435  O     0.09058   0.83333   0.52928   0.00000  Uiso   1.00
O1436  O     0.24275   0.83334   0.47072   0.00000  Uiso   1.00
O1437  O     0.09058   0.83334   0.45284   0.00000  Uiso   1.00
O1438  O     0.24275   0.83333   0.54716   0.00000  Uiso   1.00
Zn1439 Zn    0.16667   0.83333   0.55104   0.00000  Uiso   1.00
Zn1440 Zn    0.16667   0.83334   0.44896   0.00000  Uiso   1.00
O1441  O     0.11660   0.70878   0.42192   0.00000  Uiso   1.00
C1442  C     0.06208   0.70675   0.42335   0.00000  Uiso   1.00
H1443  H     0.04756   0.73757   0.41448   0.00000  Uiso   1.00
H1444  H     0.05065   0.69894   0.45727   0.00000  Uiso   1.00
C1445  C     0.03426   0.67610   0.38892   0.00000  Uiso   1.00
H1446  H     0.04475   0.97767   0.39910   0.00000  Uiso   1.00
H1447  H     0.32469   0.67798   0.38686   0.00000  Uiso   1.00
H1448  H     0.04543   0.68287   0.35508   0.00000  Uiso   1.00
O1449  O     0.13883   0.95599   0.57570   0.00000  Uiso   1.00
C1450  C     0.08429   0.94628   0.56661   0.00000  Uiso   1.00
H1451  H     0.07044   0.93747   0.53083   0.00000  Uiso   1.00
H1452  H     0.06282   0.97305   0.57430   0.00000  Uiso   1.00
C1453  C     0.06961   0.91003   0.59576   0.00000  Uiso   1.00
H1454  H     0.07461   0.91849   0.63167   0.00000  Uiso   1.00
H1455  H     0.02825   0.90009   0.58506   0.00000  Uiso   1.00
H1456  H     0.09406   0.88406   0.59201   0.00000  Uiso   1.00
O1457  O     0.14353   0.96070   0.41628   0.00000  Uiso   1.00
C1458  C     0.17947   0.97839   0.38914   0.00000  Uiso   1.00
H1459  H     0.21797   0.96544   0.39887   0.00000  Uiso   1.00
H1460  H     0.18604   0.67897   0.39143   0.00000  Uiso   1.00
C1461  C     0.15915   0.96859   0.34065   0.00000  Uiso   1.00
H1462  H     0.12281   0.98471   0.66278   0.00000  Uiso   1.00
H1463  H     0.18871   0.97840   0.65240   0.00000  Uiso   1.00
H1464  H     0.15101   0.93503   0.33763   0.00000  Uiso   1.00
O1465  O     0.17130   0.70482   0.58210   0.00000  Uiso   1.00
C1466  C     0.22543   0.70773   0.59699   0.00000  Uiso   1.00
H1467  H     0.24689   0.72583   0.57278   0.00000  Uiso   1.00
H1468  H     0.24087   0.67668   0.60136   0.00000  Uiso   1.00
C1469  C     0.23532   0.72906   0.64219   0.00000  Uiso   1.00
H1470  H     0.27528   0.72324   0.65896   0.00000  Uiso   1.00
H1471  H     0.23050   0.76256   0.63702   0.00000  Uiso   1.00
H1472  H     0.20723   0.71718   0.66444   0.00000  Uiso   1.00
O1473  O     0.22403   0.89256   0.38650   0.00000  Uiso   1.00
C1474  C     0.27761   0.88613   0.39782   0.00000  Uiso   1.00
H1475  H     0.29875   0.89322   0.36925   0.00000  Uiso   1.00
H1476  H     0.28423   0.85392   0.40732   0.00000  Uiso   1.00
C1477  C     0.30149   0.91403   0.43653   0.00000  Uiso   1.00
H1478  H     0.27988   0.90959   0.46579   0.00000  Uiso   1.00
H1479  H     0.00965   0.90720   0.44717   0.00000  Uiso   1.00
H1480  H     0.30014   0.94669   0.42558   0.00000  Uiso   1.00
O1481  O     0.09221   0.78805   0.60930   0.00000  Uiso   1.00
C1482  C     0.08131   0.74715   0.62328   0.00000  Uiso   1.00
H1483  H     0.06071   0.74574   0.65295   0.00000  Uiso   1.00
H1484  H     0.11721   0.73013   0.63202   0.00000  Uiso   1.00
C1485  C     0.04468   0.72565   0.58558   0.00000  Uiso   1.00
H1486  H     0.01130   0.74502   0.57387   0.00000  Uiso   1.00
H1487  H     0.06553   0.72016   0.55660   0.00000  Uiso   1.00
H1488  H     0.02884   0.69601   0.59836   0.00000  Uiso   1.00
O1489  O     0.21183   0.89910   0.62622   0.00000  Uiso   1.00
C1490  C     0.26310   0.90026   0.61529   0.00000  Uiso   1.00
H1491  H     0.26078   0.90083   0.57808   0.00000  Uiso   1.00
H1492  H     0.28578   0.87344   0.62796   0.00000  Uiso   1.00
C1493  C     0.29276   0.94041   0.63204   0.00000  Uiso   1.00
H1494  H     0.27155   0.95671   0.65525   0.00000  Uiso   1.00
H1495  H     0.33142   0.93420   0.65107   0.00000  Uiso   1.00
H1496  H     0.29943   0.96093   0.60308   0.00000  Uiso   1.00
O1497  O     0.08392   0.79836   0.36989   0.00000  Uiso   1.00
C1498  C     0.04351   0.82525   0.35450   0.00000  Uiso   1.00
H1499  H     0.04851   0.84282   0.65621   0.00000  Uiso   1.00
H1500  H     0.04111   0.84835   0.38060   0.00000  Uiso   1.00
C1501  C     0.32519   0.80038   0.34563   0.00000  Uiso   1.00
H1502  H     0.32074   0.77838   0.37377   0.00000  Uiso   1.00
H1503  H     0.29206   0.82049   0.34209   0.00000  Uiso   1.00
H1504  H     0.32311   0.78392   0.64673   0.00000  Uiso   1.00
C1505  C     0.49713   0.75335   0.50013   0.00000  Uiso   1.00
C1506  C     0.49733   0.91324   0.49923   0.00000  Uiso   1.00
C1507  C     0.40056   0.83057   0.48845   0.00000  Uiso   1.00
C1508  C     0.59933   0.83163   0.51190   0.00000  Uiso   1.00
C1509  C     0.34558   0.82355   0.48351   0.00000  Uiso   1.00
C1510  C     0.65440   0.83031   0.51857   0.00000  Uiso   1.00
C1511  C     0.47467   0.68853   0.45947   0.00000  Uiso   1.00
C1512  C     0.48716   0.97717   0.53879   0.00000  Uiso   1.00
C1513  C     0.48340   0.98009   0.45739   0.00000  Uiso   1.00
C1514  C     0.49625   0.68608   0.54075   0.00000  Uiso   1.00
C1515  C     0.49038   0.95732   0.49808   0.00000  Uiso   1.00
C1516  C     0.49031   0.70895   0.50028   0.00000  Uiso   1.00
C1517  C     0.53263   0.86038   0.36089   0.00000  Uiso   1.00
C1518  C     0.46494   0.80825   0.63848   0.00000  Uiso   1.00
C1519  C     0.53066   0.86198   0.64584   0.00000  Uiso   1.00
C1520  C     0.46208   0.81156   0.35290   0.00000  Uiso   1.00
H1521  H     0.65876   0.81255   0.45152   0.00000  Uiso   1.00
H1522  H     0.34156   0.83736   0.55199   0.00000  Uiso   1.00
N1523  N     0.49999   0.83332   0.61907   0.00000  Uiso   1.00
N1524  N     0.50001   0.83334   0.38093   0.00000  Uiso   1.00
O1525  O     0.50000   0.77225   0.53821   0.00000  Uiso   1.00
O1526  O     0.50000   0.89442   0.46179   0.00000  Uiso   1.00
O1527  O     0.50000   0.77226   0.46176   0.00000  Uiso   1.00
O1528  O     0.50000   0.89441   0.53824   0.00000  Uiso   1.00
O1529  O     0.42392   0.83333   0.52928   0.00000  Uiso   1.00
O1530  O     0.57608   0.83334   0.47072   0.00000  Uiso   1.00
O1531  O     0.42392   0.83334   0.45284   0.00000  Uiso   1.00
O1532  O     0.57608   0.83333   0.54716   0.00000  Uiso   1.00
Zn1533 Zn    0.50000   0.83333   0.55104   0.00000  Uiso   1.00
Zn1534 Zn    0.50000   0.83334   0.44896   0.00000  Uiso   1.00
O1535  O     0.44993   0.70878   0.42192   0.00000  Uiso   1.00
C1536  C     0.39542   0.70675   0.42335   0.00000  Uiso   1.00
H1537  H     0.38089   0.73757   0.41448   0.00000  Uiso   1.00
H1538  H     0.38398   0.69894   0.45727   0.00000  Uiso   1.00
C1539  C     0.36760   0.67610   0.38892   0.00000  Uiso   1.00
H1540  H     0.37808   0.97767   0.39910   0.00000  Uiso   1.00
H1541  H     0.65802   0.67798   0.38686   0.00000  Uiso   1.00
H1542  H     0.37876   0.68287   0.35508   0.00000  Uiso   1.00
O1543  O     0.47216   0.95599   0.57570   0.00000  Uiso   1.00
C1544  C     0.41762   0.94628   0.56661   0.00000  Uiso   1.00
H1545  H     0.40377   0.93747   0.53083   0.00000  Uiso   1.00
H1546  H     0.39615   0.97305   0.57430   0.00000  Uiso   1.00
C1547  C     0.40295   0.91003   0.59576   0.00000  Uiso   1.00
H1548  H     0.40794   0.91849   0.63167   0.00000  Uiso   1.00
H1549  H     0.36158   0.90009   0.58506   0.00000  Uiso   1.00
H1550  H     0.42739   0.88406   0.59201   0.00000  Uiso   1.00
O1551  O     0.47687   0.96070   0.41628   0.00000  Uiso   1.00
C1552  C     0.51281   0.97839   0.38914   0.00000  Uiso   1.00
H1553  H     0.55130   0.96544   0.39887   0.00000  Uiso   1.00
H1554  H     0.51937   0.67897   0.39143   0.00000  Uiso   1.00
C1555  C     0.49248   0.96859   0.34065   0.00000  Uiso   1.00
H1556  H     0.45614   0.98471   0.66278   0.00000  Uiso   1.00
H1557  H     0.52205   0.97840   0.65240   0.00000  Uiso   1.00
H1558  H     0.48435   0.93503   0.33763   0.00000  Uiso   1.00
O1559  O     0.50463   0.70482   0.58210   0.00000  Uiso   1.00
C1560  C     0.55876   0.70773   0.59699   0.00000  Uiso   1.00
H1561  H     0.58023   0.72583   0.57278   0.00000  Uiso   1.00
H1562  H     0.57421   0.67668   0.60136   0.00000  Uiso   1.00
C1563  C     0.56866   0.72906   0.64219   0.00000  Uiso   1.00
H1564  H     0.60862   0.72324   0.65896   0.00000  Uiso   1.00
H1565  H     0.56383   0.76256   0.63702   0.00000  Uiso   1.00
H1566  H     0.54057   0.71718   0.66444   0.00000  Uiso   1.00
O1567  O     0.55736   0.89256   0.38650   0.00000  Uiso   1.00
C1568  C     0.61094   0.88613   0.39782   0.00000  Uiso   1.00
H1569  H     0.63208   0.89322   0.36925   0.00000  Uiso   1.00
H1570  H     0.61756   0.85392   0.40732   0.00000  Uiso   1.00
C1571  C     0.63482   0.91403   0.43653   0.00000  Uiso   1.00
H1572  H     0.61321   0.90959   0.46579   0.00000  Uiso   1.00
H1573  H     0.34298   0.90720   0.44717   0.00000  Uiso   1.00
H1574  H     0.63347   0.94669   0.42558   0.00000  Uiso   1.00
O1575  O     0.42554   0.78805   0.60930   0.00000  Uiso   1.00
C1576  C     0.41465   0.74715   0.62328   0.00000  Uiso   1.00
H1577  H     0.39404   0.74574   0.65295   0.00000  Uiso   1.00
H1578  H     0.45055   0.73013   0.63202   0.00000  Uiso   1.00
C1579  C     0.37801   0.72565   0.58558   0.00000  Uiso   1.00
H1580  H     0.34464   0.74502   0.57387   0.00000  Uiso   1.00
H1581  H     0.39886   0.72016   0.55660   0.00000  Uiso   1.00
H1582  H     0.36217   0.69601   0.59836   0.00000  Uiso   1.00
O1583  O     0.54516   0.89910   0.62622   0.00000  Uiso   1.00
C1584  C     0.59644   0.90026   0.61529   0.00000  Uiso   1.00
H1585  H     0.59411   0.90083   0.57808   0.00000  Uiso   1.00
H1586  H     0.61911   0.87344   0.62796   0.00000  Uiso   1.00
C1587  C     0.62609   0.94041   0.63204   0.00000  Uiso   1.00
H1588  H     0.60489   0.95671   0.65525   0.00000  Uiso   1.00
H1589  H     0.66475   0.93420   0.65107   0.00000  Uiso   1.00
H1590  H     0.63276   0.96093   0.60308   0.00000  Uiso   1.00
O1591  O     0.41725   0.79836   0.36989   0.00000  Uiso   1.00
C1592  C     0.37685   0.82525   0.35450   0.00000  Uiso   1.00
H1593  H     0.38184   0.84282   0.65621   0.00000  Uiso   1.00
H1594  H     0.37444   0.84835   0.38060   0.00000  Uiso   1.00
C1595  C     0.65853   0.80038   0.34563   0.00000  Uiso   1.00
H1596  H     0.65407   0.77838   0.37377   0.00000  Uiso   1.00
H1597  H     0.62539   0.82049   0.34209   0.00000  Uiso   1.00
H1598  H     0.65644   0.78392   0.64673   0.00000  Uiso   1.00
C1599  C     0.83046   0.75335   0.50013   0.00000  Uiso   1.00
C1600  C     0.83066   0.91324   0.49923   0.00000  Uiso   1.00
C1601  C     0.73389   0.83057   0.48845   0.00000  Uiso   1.00
C1602  C     0.93266   0.83163   0.51190   0.00000  Uiso   1.00
C1603  C     0.67892   0.82355   0.48351   0.00000  Uiso   1.00
C1604  C     0.98774   0.83031   0.51857   0.00000  Uiso   1.00
C1605  C     0.80801   0.68853   0.45947   0.00000  Uiso   1.00
C1606  C     0.82049   0.97717   0.53879   0.00000  Uiso   1.00
C1607  C     0.81673   0.98009   0.45739   0.00000  Uiso   1.00
C1608  C     0.82958   0.68608   0.54075   0.00000  Uiso   1.00
C1609  C     0.82371   0.95732   0.49808   0.00000  Uiso   1.00
C1610  C     0.82364   0.70895   0.50028   0.00000  Uiso   1.00
C1611  C     0.86596   0.86038   0.36089   0.00000  Uiso   1.00
C1612  C     0.79828   0.80825   0.63848   0.00000  Uiso   1.00
C1613  C     0.86399   0.86198   0.64584   0.00000  Uiso   1.00
C1614  C     0.79541   0.81156   0.35290   0.00000  Uiso   1.00
H1615  H     0.99209   0.81255   0.45152   0.00000  Uiso   1.00
H1616  H     0.67489   0.83736   0.55199   0.00000  Uiso   1.00
N1617  N     0.83332   0.83332   0.61907   0.00000  Uiso   1.00
N1618  N     0.83335   0.83334   0.38093   0.00000  Uiso   1.00
O1619  O     0.83333   0.77225   0.53821   0.00000  Uiso   1.00
O1620  O     0.83334   0.89442   0.46179   0.00000  Uiso   1.00
O1621  O     0.83333   0.77226   0.46176   0.00000  Uiso   1.00
O1622  O     0.83334   0.89441   0.53824   0.00000  Uiso   1.00
O1623  O     0.75725   0.83333   0.52928   0.00000  Uiso   1.00
O1624  O     0.90942   0.83334   0.47072   0.00000  Uiso   1.00
O1625  O     0.75725   0.83334   0.45284   0.00000  Uiso   1.00
O1626  O     0.90942   0.83333   0.54716   0.00000  Uiso   1.00
Zn1627 Zn    0.83333   0.83333   0.55104   0.00000  Uiso   1.00
Zn1628 Zn    0.83333   0.83334   0.44896   0.00000  Uiso   1.00
O1629  O     0.78327   0.70878   0.42192   0.00000  Uiso   1.00
C1630  C     0.72875   0.70675   0.42335   0.00000  Uiso   1.00
H1631  H     0.71423   0.73757   0.41448   0.00000  Uiso   1.00
H1632  H     0.71731   0.69894   0.45727   0.00000  Uiso   1.00
C1633  C     0.70093   0.67610   0.38892   0.00000  Uiso   1.00
H1634  H     0.71141   0.97767   0.39910   0.00000  Uiso   1.00
H1635  H     0.99136   0.67798   0.38686   0.00000  Uiso   1.00
H1636  H     0.71209   0.68287   0.35508   0.00000  Uiso   1.00
O1637  O     0.80550   0.95599   0.57570   0.00000  Uiso   1.00
C1638  C     0.75096   0.94628   0.56661   0.00000  Uiso   1.00
H1639  H     0.73710   0.93747   0.53083   0.00000  Uiso   1.00
H1640  H     0.72949   0.97305   0.57430   0.00000  Uiso   1.00
C1641  C     0.73628   0.91003   0.59576   0.00000  Uiso   1.00
H1642  H     0.74128   0.91849   0.63167   0.00000  Uiso   1.00
H1643  H     0.69491   0.90009   0.58506   0.00000  Uiso   1.00
H1644  H     0.76072   0.88406   0.59201   0.00000  Uiso   1.00
O1645  O     0.81020   0.96070   0.41628   0.00000  Uiso   1.00
C1646  C     0.84614   0.97839   0.38914   0.00000  Uiso   1.00
H1647  H     0.88463   0.96544   0.39887   0.00000  Uiso   1.00
H1648  H     0.85270   0.67897   0.39143   0.00000  Uiso   1.00
C1649  C     0.82581   0.96859   0.34065   0.00000  Uiso   1.00
H1650  H     0.78948   0.98471   0.66278   0.00000  Uiso   1.00
H1651  H     0.85538   0.97840   0.65240   0.00000  Uiso   1.00
H1652  H     0.81768   0.93503   0.33763   0.00000  Uiso   1.00
O1653  O     0.83797   0.70482   0.58210   0.00000  Uiso   1.00
C1654  C     0.89210   0.70773   0.59699   0.00000  Uiso   1.00
H1655  H     0.91356   0.72583   0.57278   0.00000  Uiso   1.00
H1656  H     0.90754   0.67668   0.60136   0.00000  Uiso   1.00
C1657  C     0.90199   0.72906   0.64219   0.00000  Uiso   1.00
H1658  H     0.94195   0.72324   0.65896   0.00000  Uiso   1.00
H1659  H     0.89716   0.76256   0.63702   0.00000  Uiso   1.00
H1660  H     0.87390   0.71718   0.66444   0.00000  Uiso   1.00
O1661  O     0.89069   0.89256   0.38650   0.00000  Uiso   1.00
C1662  C     0.94428   0.88613   0.39782   0.00000  Uiso   1.00
H1663  H     0.96542   0.89322   0.36925   0.00000  Uiso   1.00
H1664  H     0.95089   0.85392   0.40732   0.00000  Uiso   1.00
C1665  C     0.96816   0.91403   0.43653   0.00000  Uiso   1.00
H1666  H     0.94655   0.90959   0.46579   0.00000  Uiso   1.00
H1667  H     0.67631   0.90720   0.44717   0.00000  Uiso   1.00
H1668  H     0.96680   0.94669   0.42558   0.00000  Uiso   1.00
O1669  O     0.75888   0.78805   0.60930   0.00000  Uiso   1.00
C1670  C     0.74798   0.74715   0.62328   0.00000  Uiso   1.00
H1671  H     0.72738   0.74574   0.65295   0.00000  Uiso   1.00
H1672  H     0.78388   0.73013   0.63202   0.00000  Uiso   1.00
C1673  C     0.71135   0.72565   0.58558   0.00000  Uiso   1.00
H1674  H     0.67797   0.74502   0.57387   0.00000  Uiso   1.00
H1675  H     0.73220   0.72016   0.55660   0.00000  Uiso   1.00
H1676  H     0.69551   0.69601   0.59836   0.00000  Uiso   1.00
O1677  O     0.87849   0.89910   0.62622   0.00000  Uiso   1.00
C1678  C     0.92977   0.90026   0.61529   0.00000  Uiso   1.00
H1679  H     0.92745   0.90083   0.57808   0.00000  Uiso   1.00
H1680  H     0.95244   0.87344   0.62796   0.00000  Uiso   1.00
C1681  C     0.95943   0.94041   0.63204   0.00000  Uiso   1.00
H1682  H     0.93822   0.95671   0.65525   0.00000  Uiso   1.00
H1683  H     0.99808   0.93420   0.65107   0.00000  Uiso   1.00
H1684  H     0.96609   0.96093   0.60308   0.00000  Uiso   1.00
O1685  O     0.75058   0.79836   0.36989   0.00000  Uiso   1.00
C1686  C     0.71018   0.82525   0.35450   0.00000  Uiso   1.00
H1687  H     0.71517   0.84282   0.65621   0.00000  Uiso   1.00
H1688  H     0.70778   0.84835   0.38060   0.00000  Uiso   1.00
C1689  C     0.99186   0.80038   0.34563   0.00000  Uiso   1.00
H1690  H     0.98741   0.77838   0.37377   0.00000  Uiso   1.00
H1691  H     0.95873   0.82049   0.34209   0.00000  Uiso   1.00
H1692  H     0.98977   0.78392   0.64673   0.00000  Uiso   1.00
C1693  C     0.16379   0.08668   0.83347   0.00000  Uiso   1.00
C1694  C     0.16399   0.24657   0.83256   0.00000  Uiso   1.00
C1695  C     0.06723   0.16391   0.82178   0.00000  Uiso   1.00
C1696  C     0.26600   0.16496   0.84524   0.00000  Uiso   1.00
C1697  C     0.01225   0.15688   0.81685   0.00000  Uiso   1.00
C1698  C     0.32107   0.16364   0.85191   0.00000  Uiso   1.00
C1699  C     0.14134   0.02186   0.79281   0.00000  Uiso   1.00
C1700  C     0.15383   0.31050   0.87212   0.00000  Uiso   1.00
C1701  C     0.15006   0.31342   0.79072   0.00000  Uiso   1.00
C1702  C     0.16292   0.01941   0.87409   0.00000  Uiso   1.00
C1703  C     0.15704   0.29065   0.83142   0.00000  Uiso   1.00
C1704  C     0.15697   0.04228   0.83361   0.00000  Uiso   1.00
C1705  C     0.19930   0.19371   0.69423   0.00000  Uiso   1.00
C1706  C     0.13161   0.14159   0.97182   0.00000  Uiso   1.00
C1707  C     0.19733   0.19531   0.97917   0.00000  Uiso   1.00
C1708  C     0.12874   0.14489   0.68623   0.00000  Uiso   1.00
H1709  H     0.32543   0.14588   0.78485   0.00000  Uiso   1.00
H1710  H     0.00823   0.17069   0.88532   0.00000  Uiso   1.00
N1711  N     0.16665   0.16666   0.95240   0.00000  Uiso   1.00
N1712  N     0.16668   0.16668   0.71427   0.00000  Uiso   1.00
O1713  O     0.16666   0.10558   0.87154   0.00000  Uiso   1.00
O1714  O     0.16667   0.22775   0.79513   0.00000  Uiso   1.00
O1715  O     0.16666   0.10559   0.79510   0.00000  Uiso   1.00
O1716  O     0.16667   0.22774   0.87157   0.00000  Uiso   1.00
O1717  O     0.09058   0.16666   0.86261   0.00000  Uiso   1.00
O1718  O     0.24275   0.16667   0.80405   0.00000  Uiso   1.00
O1719  O     0.09058   0.16667   0.78617   0.00000  Uiso   1.00
O1720  O     0.24275   0.16666   0.88050   0.00000  Uiso   1.00
Zn1721 Zn    0.16667   0.16666   0.88437   0.00000  Uiso   1.00
Zn1722 Zn    0.16667   0.16667   0.78229   0.00000  Uiso   1.00
O1723  O     0.11660   0.04211   0.75526   0.00000  Uiso   1.00
C1724  C     0.06208   0.04008   0.75668   0.00000  Uiso   1.00
H1725  H     0.04756   0.07091   0.74781   0.00000  Uiso   1.00
H1726  H     0.05065   0.03227   0.79060   0.00000  Uiso   1.00
C1727  C     0.03426   0.00943   0.72226   0.00000  Uiso   1.00
H1728  H     0.04475   0.31101   0.73244   0.00000  Uiso   1.00
H1729  H     0.32469   0.01132   0.72019   0.00000  Uiso   1.00
H1730  H     0.04543   0.01620   0.68841   0.00000  Uiso   1.00
O1731  O     0.13883   0.28932   0.90904   0.00000  Uiso   1.00
C1732  C     0.08429   0.27961   0.89994   0.00000  Uiso   1.00
H1733  H     0.07044   0.27081   0.86416   0.00000  Uiso   1.00
H1734  H     0.06282   0.30639   0.90763   0.00000  Uiso   1.00
C1735  C     0.06961   0.24337   0.92909   0.00000  Uiso   1.00
H1736  H     0.07461   0.25182   0.96500   0.00000  Uiso   1.00
H1737  H     0.02825   0.23342   0.91839   0.00000  Uiso   1.00
H1738  H     0.09406   0.21739   0.92534   0.00000  Uiso   1.00
O1739  O     0.14353   0.29403   0.74961   0.00000  Uiso   1.00
C1740  C     0.17947   0.31172   0.72247   0.00000  Uiso   1.00
H1741  H     0.21797   0.29878   0.73220   0.00000  Uiso   1.00
H1742  H     0.18604   0.01231   0.72476   0.00000  Uiso   1.00
C1743  C     0.15915   0.30192   0.67398   0.00000  Uiso   1.00
H1744  H     0.12281   0.31805   0.99612   0.00000  Uiso   1.00
H1745  H     0.18871   0.31173   0.98573   0.00000  Uiso   1.00
H1746  H     0.15101   0.26837   0.67097   0.00000  Uiso   1.00
O1747  O     0.17130   0.03815   0.91543   0.00000  Uiso   1.00
C1748  C     0.22543   0.04106   0.93033   0.00000  Uiso   1.00
H1749  H     0.24689   0.05916   0.90612   0.00000  Uiso   1.00
H1750  H     0.24087   0.01001   0.93469   0.00000  Uiso   1.00
C1751  C     0.23532   0.06240   0.97552   0.00000  Uiso   1.00
H1752  H     0.27528   0.05657   0.99230   0.00000  Uiso   1.00
H1753  H     0.23050   0.09589   0.97035   0.00000  Uiso   1.00
H1754  H     0.20723   0.05052   0.99777   0.00000  Uiso   1.00
O1755  O     0.22403   0.22589   0.71983   0.00000  Uiso   1.00
C1756  C     0.27761   0.21946   0.73115   0.00000  Uiso   1.00
H1757  H     0.29875   0.22656   0.70258   0.00000  Uiso   1.00
H1758  H     0.28423   0.18725   0.74066   0.00000  Uiso   1.00
C1759  C     0.30149   0.24736   0.76986   0.00000  Uiso   1.00
H1760  H     0.27988   0.24292   0.79912   0.00000  Uiso   1.00
H1761  H     0.00965   0.24053   0.78051   0.00000  Uiso   1.00
H1762  H     0.30014   0.28002   0.75891   0.00000  Uiso   1.00
O1763  O     0.09221   0.12138   0.94263   0.00000  Uiso   1.00
C1764  C     0.08131   0.08048   0.95661   0.00000  Uiso   1.00
H1765  H     0.06071   0.07907   0.98629   0.00000  Uiso   1.00
H1766  H     0.11721   0.06347   0.96535   0.00000  Uiso   1.00
C1767  C     0.04468   0.05898   0.91891   0.00000  Uiso   1.00
H1768  H     0.01130   0.07835   0.90720   0.00000  Uiso   1.00
H1769  H     0.06553   0.05349   0.88994   0.00000  Uiso   1.00
H1770  H     0.02884   0.02934   0.93170   0.00000  Uiso   1.00
O1771  O     0.21183   0.23243   0.95955   0.00000  Uiso   1.00
C1772  C     0.26310   0.23359   0.94862   0.00000  Uiso   1.00
H1773  H     0.26078   0.23416   0.91141   0.00000  Uiso   1.00
H1774  H     0.28578   0.20677   0.96130   0.00000  Uiso   1.00
C1775  C     0.29276   0.27374   0.96537   0.00000  Uiso   1.00
H1776  H     0.27155   0.29004   0.98858   0.00000  Uiso   1.00
H1777  H     0.33142   0.26753   0.98440   0.00000  Uiso   1.00
H1778  H     0.29943   0.29427   0.93642   0.00000  Uiso   1.00
O1779  O     0.08392   0.13169   0.70322   0.00000  Uiso   1.00
C1780  C     0.04351   0.15858   0.68783   0.00000  Uiso   1.00
H1781  H     0.04851   0.17615   0.98954   0.00000  Uiso   1.00
H1782  H     0.04111   0.18168   0.71393   0.00000  Uiso   1.00
C1783  C     0.32519   0.13371   0.67896   0.00000  Uiso   1.00
H1784  H     0.32074   0.11172   0.70710   0.00000  Uiso   1.00
H1785  H     0.29206   0.15382   0.67542   0.00000  Uiso   1.00
H1786  H     0.32311   0.11725   0.98007   0.00000  Uiso   1.00
C1787  C     0.49713   0.08668   0.83347   0.00000  Uiso   1.00
C1788  C     0.49733   0.24657   0.83256   0.00000  Uiso   1.00
C1789  C     0.40056   0.16391   0.82178   0.00000  Uiso   1.00
C1790  C     0.59933   0.16496   0.84524   0.00000  Uiso   1.00
C1791  C     0.34558   0.15688   0.81685   0.00000  Uiso   1.00
C1792  C     0.65440   0.16364   0.85191   0.00000  Uiso   1.00
C1793  C     0.47467   0.02186   0.79281   0.00000  Uiso   1.00
C1794  C     0.48716   0.31050   0.87212   0.00000  Uiso   1.00
C1795  C     0.48340   0.31342   0.79072   0.00000  Uiso   1.00
C1796  C     0.49625   0.01941   0.87409   0.00000  Uiso   1.00
C1797  C     0.49038   0.29065   0.83142   0.00000  Uiso   1.00
C1798  C     0.49031   0.04228   0.83361   0.00000  Uiso   1.00
C1799  C     0.53263   0.19371   0.69423   0.00000  Uiso   1.00
C1800  C     0.46494   0.14159   0.97182   0.00000  Uiso   1.00
C1801  C     0.53066   0.19531   0.97917   0.00000  Uiso   1.00
C1802  C     0.46208   0.14489   0.68623   0.00000  Uiso   1.00
H1803  H     0.65876   0.14588   0.78485   0.00000  Uiso   1.00
H1804  H     0.34156   0.17069   0.88532   0.00000  Uiso   1.00
N1805  N     0.49999   0.16666   0.95240   0.00000  Uiso   1.00
N1806  N     0.50001   0.16668   0.71427   0.00000  Uiso   1.00
O1807  O     0.50000   0.10558   0.87154   0.00000  Uiso   1.00
O1808  O     0.50000   0.22775   0.79513   0.00000  Uiso   1.00
O1809  O     0.50000   0.10559   0.79510   0.00000  Uiso   1.00
O1810  O     0.50000   0.22774   0.87157   0.00000  Uiso   1.00
O1811  O     0.42392   0.16666   0.86261   0.00000  Uiso   1.00
O1812  O     0.57608   0.16667   0.80405   0.00000  Uiso   1.00
O1813  O     0.42392   0.16667   0.78617   0.00000  Uiso   1.00
O1814  O     0.57608   0.16666   0.88050   0.00000  Uiso   1.00
Zn1815 Zn    0.50000   0.16666   0.88437   0.00000  Uiso   1.00
Zn1816 Zn    0.50000   0.16667   0.78229   0.00000  Uiso   1.00
O1817  O     0.44993   0.04211   0.75526   0.00000  Uiso   1.00
C1818  C     0.39542   0.04008   0.75668   0.00000  Uiso   1.00
H1819  H     0.38089   0.07091   0.74781   0.00000  Uiso   1.00
H1820  H     0.38398   0.03227   0.79060   0.00000  Uiso   1.00
C1821  C     0.36760   0.00943   0.72226   0.00000  Uiso   1.00
H1822  H     0.37808   0.31101   0.73244   0.00000  Uiso   1.00
H1823  H     0.65802   0.01132   0.72019   0.00000  Uiso   1.00
H1824  H     0.37876   0.01620   0.68841   0.00000  Uiso   1.00
O1825  O     0.47216   0.28932   0.90904   0.00000  Uiso   1.00
C1826  C     0.41762   0.27961   0.89994   0.00000  Uiso   1.00
H1827  H     0.40377   0.27081   0.86416   0.00000  Uiso   1.00
H1828  H     0.39615   0.30639   0.90763   0.00000  Uiso   1.00
C1829  C     0.40295   0.24337   0.92909   0.00000  Uiso   1.00
H1830  H     0.40794   0.25182   0.96500   0.00000  Uiso   1.00
H1831  H     0.36158   0.23342   0.91839   0.00000  Uiso   1.00
H1832  H     0.42739   0.21739   0.92534   0.00000  Uiso   1.00
O1833  O     0.47687   0.29403   0.74961   0.00000  Uiso   1.00
C1834  C     0.51281   0.31172   0.72247   0.00000  Uiso   1.00
H1835  H     0.55130   0.29878   0.73220   0.00000  Uiso   1.00
H1836  H     0.51937   0.01231   0.72476   0.00000  Uiso   1.00
C1837  C     0.49248   0.30192   0.67398   0.00000  Uiso   1.00
H1838  H     0.45614   0.31805   0.99612   0.00000  Uiso   1.00
H1839  H     0.52205   0.31173   0.98573   0.00000  Uiso   1.00
H1840  H     0.48435   0.26837   0.67097   0.00000  Uiso   1.00
O1841  O     0.50463   0.03815   0.91543   0.00000  Uiso   1.00
C1842  C     0.55876   0.04106   0.93033   0.00000  Uiso   1.00
H1843  H     0.58023   0.05916   0.90612   0.00000  Uiso   1.00
H1844  H     0.57421   0.01001   0.93469   0.00000  Uiso   1.00
C1845  C     0.56866   0.06240   0.97552   0.00000  Uiso   1.00
H1846  H     0.60862   0.05657   0.99230   0.00000  Uiso   1.00
H1847  H     0.56383   0.09589   0.97035   0.00000  Uiso   1.00
H1848  H     0.54057   0.05052   0.99777   0.00000  Uiso   1.00
O1849  O     0.55736   0.22589   0.71983   0.00000  Uiso   1.00
C1850  C     0.61094   0.21946   0.73115   0.00000  Uiso   1.00
H1851  H     0.63208   0.22656   0.70258   0.00000  Uiso   1.00
H1852  H     0.61756   0.18725   0.74066   0.00000  Uiso   1.00
C1853  C     0.63482   0.24736   0.76986   0.00000  Uiso   1.00
H1854  H     0.61321   0.24292   0.79912   0.00000  Uiso   1.00
H1855  H     0.34298   0.24053   0.78051   0.00000  Uiso   1.00
H1856  H     0.63347   0.28002   0.75891   0.00000  Uiso   1.00
O1857  O     0.42554   0.12138   0.94263   0.00000  Uiso   1.00
C1858  C     0.41465   0.08048   0.95661   0.00000  Uiso   1.00
H1859  H     0.39404   0.07907   0.98629   0.00000  Uiso   1.00
H1860  H     0.45055   0.06347   0.96535   0.00000  Uiso   1.00
C1861  C     0.37801   0.05898   0.91891   0.00000  Uiso   1.00
H1862  H     0.34464   0.07835   0.90720   0.00000  Uiso   1.00
H1863  H     0.39886   0.05349   0.88994   0.00000  Uiso   1.00
H1864  H     0.36217   0.02934   0.93170   0.00000  Uiso   1.00
O1865  O     0.54516   0.23243   0.95955   0.00000  Uiso   1.00
C1866  C     0.59644   0.23359   0.94862   0.00000  Uiso   1.00
H1867  H     0.59411   0.23416   0.91141   0.00000  Uiso   1.00
H1868  H     0.61911   0.20677   0.96130   0.00000  Uiso   1.00
C1869  C     0.62609   0.27374   0.96537   0.00000  Uiso   1.00
H1870  H     0.60489   0.29004   0.98858   0.00000  Uiso   1.00
H1871  H     0.66475   0.26753   0.98440   0.00000  Uiso   1.00
H1872  H     0.63276   0.29427   0.93642   0.00000  Uiso   1.00
O1873  O     0.41725   0.13169   0.70322   0.00000  Uiso   1.00
C1874  C     0.37685   0.15858   0.68783   0.00000  Uiso   1.00
H1875  H     0.38184   0.17615   0.98954   0.00000  Uiso   1.00
H1876  H     0.37444   0.18168   0.71393   0.00000  Uiso   1.00
C1877  C     0.65853   0.13371   0.67896   0.00000  Uiso   1.00
H1878  H     0.65407   0.11172   0.70710   0.00000  Uiso   1.00
H1879  H     0.62539   0.15382   0.67542   0.00000  Uiso   1.00
H1880  H     0.65644   0.11725   0.98007   0.00000  Uiso   1.00
C1881  C     0.83046   0.08668   0.83347   0.00000  Uiso   1.00
C1882  C     0.83066   0.24657   0.83256   0.00000  Uiso   1.00
C1883  C     0.73389   0.16391   0.82178   0.00000  Uiso   1.00
C1884  C     0.93266   0.16496   0.84524   0.00000  Uiso   1.00
C1885  C     0.67892   0.15688   0.81685   0.00000  Uiso   1.00
C1886  C     0.98774   0.16364   0.85191   0.00000  Uiso   1.00
C1887  C     0.80801   0.02186   0.79281   0.00000  Uiso   1.00
C1888  C     0.82049   0.31050   0.87212   0.00000  Uiso   1.00
C1889  C     0.81673   0.31342   0.79072   0.00000  Uiso   1.00
C1890  C     0.82958   0.01941   0.87409   0.00000  Uiso   1.00
C1891  C     0.82371   0.29065   0.83142   0.00000  Uiso   1.00
C1892  C     0.82364   0.04228   0.83361   0.00000  Uiso   1.00
C1893  C     0.86596   0.19371   0.69423   0.00000  Uiso   1.00
C1894  C     0.79828   0.14159   0.97182   0.00000  Uiso   1.00
C1895  C     0.86399   0.19531   0.97917   0.00000  Uiso   1.00
C1896  C     0.79541   0.14489   0.68623   0.00000  Uiso   1.00
H1897  H     0.99209   0.14588   0.78485   0.00000  Uiso   1.00
H1898  H     0.67489   0.17069   0.88532   0.00000  Uiso   1.00
N1899  N     0.83332   0.16666   0.95240   0.00000  Uiso   1.00
N1900  N     0.83335   0.16668   0.71427   0.00000  Uiso   1.00
O1901  O     0.83333   0.10558   0.87154   0.00000  Uiso   1.00
O1902  O     0.83334   0.22775   0.79513   0.00000  Uiso   1.00
O1903  O     0.83333   0.10559   0.79510   0.00000  Uiso   1.00
O1904  O     0.83334   0.22774   0.87157   0.00000  Uiso   1.00
O1905  O     0.75725   0.16666   0.86261   0.00000  Uiso   1.00
O1906  O     0.90942   0.16667   0.80405   0.00000  Uiso   1.00
O1907  O     0.75725   0.16667   0.78617   0.00000  Uiso   1.00
O1908  O     0.90942   0.16666   0.88050   0.00000  Uiso   1.00
Zn1909 Zn    0.83333   0.16666   0.88437   0.00000  Uiso   1.00
Zn1910 Zn    0.83333   0.16667   0.78229   0.00000  Uiso   1.00
O1911  O     0.78327   0.04211   0.75526   0.00000  Uiso   1.00
C1912  C     0.72875   0.04008   0.75668   0.00000  Uiso   1.00
H1913  H     0.71423   0.07091   0.74781   0.00000  Uiso   1.00
H1914  H     0.71731   0.03227   0.79060   0.00000  Uiso   1.00
C1915  C     0.70093   0.00943   0.72226   0.00000  Uiso   1.00
H1916  H     0.71141   0.31101   0.73244   0.00000  Uiso   1.00
H1917  H     0.99136   0.01132   0.72019   0.00000  Uiso   1.00
H1918  H     0.71209   0.01620   0.68841   0.00000  Uiso   1.00
O1919  O     0.80550   0.28932   0.90904   0.00000  Uiso   1.00
C1920  C     0.75096   0.27961   0.89994   0.00000  Uiso   1.00
H1921  H     0.73710   0.27081   0.86416   0.00000  Uiso   1.00
H1922  H     0.72949   0.30639   0.90763   0.00000  Uiso   1.00
C1923  C     0.73628   0.24337   0.92909   0.00000  Uiso   1.00
H1924  H     0.74128   0.25182   0.96500   0.00000  Uiso   1.00
H1925  H     0.69491   0.23342   0.91839   0.00000  Uiso   1.00
H1926  H     0.76072   0.21739   0.92534   0.00000  Uiso   1.00
O1927  O     0.81020   0.29403   0.74961   0.00000  Uiso   1.00
C1928  C     0.84614   0.31172   0.72247   0.00000  Uiso   1.00
H1929  H     0.88463   0.29878   0.73220   0.00000  Uiso   1.00
H1930  H     0.85270   0.01231   0.72476   0.00000  Uiso   1.00
C1931  C     0.82581   0.30192   0.67398   0.00000  Uiso   1.00
H1932  H     0.78948   0.31805   0.99612   0.00000  Uiso   1.00
H1933  H     0.85538   0.31173   0.98573   0.00000  Uiso   1.00
H1934  H     0.81768   0.26837   0.67097   0.00000  Uiso   1.00
O1935  O     0.83797   0.03815   0.91543   0.00000  Uiso   1.00
C1936  C     0.89210   0.04106   0.93033   0.00000  Uiso   1.00
H1937  H     0.91356   0.05916   0.90612   0.00000  Uiso   1.00
H1938  H     0.90754   0.01001   0.93469   0.00000  Uiso   1.00
C1939  C     0.90199   0.06240   0.97552   0.00000  Uiso   1.00
H1940  H     0.94195   0.05657   0.99230   0.00000  Uiso   1.00
H1941  H     0.89716   0.09589   0.97035   0.00000  Uiso   1.00
H1942  H     0.87390   0.05052   0.99777   0.00000  Uiso   1.00
O1943  O     0.89069   0.22589   0.71983   0.00000  Uiso   1.00
C1944  C     0.94428   0.21946   0.73115   0.00000  Uiso   1.00
H1945  H     0.96542   0.22656   0.70258   0.00000  Uiso   1.00
H1946  H     0.95089   0.18725   0.74066   0.00000  Uiso   1.00
C1947  C     0.96816   0.24736   0.76986   0.00000  Uiso   1.00
H1948  H     0.94655   0.24292   0.79912   0.00000  Uiso   1.00
H1949  H     0.67631   0.24053   0.78051   0.00000  Uiso   1.00
H1950  H     0.96680   0.28002   0.75891   0.00000  Uiso   1.00
O1951  O     0.75888   0.12138   0.94263   0.00000  Uiso   1.00
C1952  C     0.74798   0.08048   0.95661   0.00000  Uiso   1.00
H1953  H     0.72738   0.07907   0.98629   0.00000  Uiso   1.00
H1954  H     0.78388   0.06347   0.96535   0.00000  Uiso   1.00
C1955  C     0.71135   0.05898   0.91891   0.00000  Uiso   1.00
H1956  H     0.67797   0.07835   0.90720   0.00000  Uiso   1.00
H1957  H     0.73220   0.05349   0.88994   0.00000  Uiso   1.00
H1958  H     0.69551   0.02934   0.93170   0.00000  Uiso   1.00
O1959  O     0.87849   0.23243   0.95955   0.00000  Uiso   1.00
C1960  C     0.92977   0.23359   0.94862   0.00000  Uiso   1.00
H1961  H     0.92745   0.23416   0.91141   0.00000  Uiso   1.00
H1962  H     0.95244   0.20677   0.96130   0.00000  Uiso   1.00
C1963  C     0.95943   0.27374   0.96537   0.00000  Uiso   1.00
H1964  H     0.93822   0.29004   0.98858   0.00000  Uiso   1.00
H1965  H     0.99808   0.26753   0.98440   0.00000  Uiso   1.00
H1966  H     0.96609   0.29427   0.93642   0.00000  Uiso   1.00
O1967  O     0.75058   0.13169   0.70322   0.00000  Uiso   1.00
C1968  C     0.71018   0.15858   0.68783   0.00000  Uiso   1.00
H1969  H     0.71517   0.17615   0.98954   0.00000  Uiso   1.00
H1970  H     0.70778   0.18168   0.71393   0.00000  Uiso   1.00
C1971  C     0.99186   0.13371   0.67896   0.00000  Uiso   1.00
H1972  H     0.98741   0.11172   0.70710   0.00000  Uiso   1.00
H1973  H     0.95873   0.15382   0.67542   0.00000  Uiso   1.00
H1974  H     0.98977   0.11725   0.98007   0.00000  Uiso   1.00
C1975  C     0.16379   0.42001   0.83347   0.00000  Uiso   1.00
C1976  C     0.16399   0.57991   0.83256   0.00000  Uiso   1.00
C1977  C     0.06723   0.49724   0.82178   0.00000  Uiso   1.00
C1978  C     0.26600   0.49829   0.84524   0.00000  Uiso   1.00
C1979  C     0.01225   0.49022   0.81685   0.00000  Uiso   1.00
C1980  C     0.32107   0.49697   0.85191   0.00000  Uiso   1.00
C1981  C     0.14134   0.35519   0.79281   0.00000  Uiso   1.00
C1982  C     0.15383   0.64383   0.87212   0.00000  Uiso   1.00
C1983  C     0.15006   0.64676   0.79072   0.00000  Uiso   1.00
C1984  C     0.16292   0.35274   0.87409   0.00000  Uiso   1.00
C1985  C     0.15704   0.62399   0.83142   0.00000  Uiso   1.00
C1986  C     0.15697   0.37561   0.83361   0.00000  Uiso   1.00
C1987  C     0.19930   0.52704   0.69423   0.00000  Uiso   1.00
C1988  C     0.13161   0.47492   0.97182   0.00000  Uiso   1.00
C1989  C     0.19733   0.52864   0.97917   0.00000  Uiso   1.00
C1990  C     0.12874   0.47823   0.68623   0.00000  Uiso   1.00
H1991  H     0.32543   0.47921   0.78485   0.00000  Uiso   1.00
H1992  H     0.00823   0.50403   0.88532   0.00000  Uiso   1.00
N1993  N     0.16665   0.49999   0.95240   0.00000  Uiso   1.00
N1994  N     0.16668   0.50001   0.71427   0.00000  Uiso   1.00
O1995  O     0.16666   0.43892   0.87154   0.00000  Uiso   1.00
O1996  O     0.16667   0.56108   0.79513   0.00000  Uiso   1.00
O1997  O     0.16666   0.43893   0.79510   0.00000  Uiso   1.00
O1998  O     0.16667   0.56107   0.87157   0.00000  Uiso   1.00
O1999  O     0.09058   0.50000   0.86261   0.00000  Uiso   1.00
O2000  O     0.24275   0.50000   0.80405   0.00000  Uiso   1.00
O2001  O     0.09058   0.50000   0.78617   0.00000  Uiso   1.00
O2002  O     0.24275   0.50000   0.88050   0.00000  Uiso   1.00
Zn2003 Zn    0.16667   0.49999   0.88437   0.00000  Uiso   1.00
Zn2004 Zn    0.16667   0.50001   0.78229   0.00000  Uiso   1.00
O2005  O     0.11660   0.37545   0.75526   0.00000  Uiso   1.00
C2006  C     0.06208   0.37341   0.75668   0.00000  Uiso   1.00
H2007  H     0.04756   0.40424   0.74781   0.00000  Uiso   1.00
H2008  H     0.05065   0.36560   0.79060   0.00000  Uiso   1.00
C2009  C     0.03426   0.34277   0.72226   0.00000  Uiso   1.00
H2010  H     0.04475   0.64434   0.73244   0.00000  Uiso   1.00
H2011  H     0.32469   0.34465   0.72019   0.00000  Uiso   1.00
H2012  H     0.04543   0.34953   0.68841   0.00000  Uiso   1.00
O2013  O     0.13883   0.62266   0.90904   0.00000  Uiso   1.00
C2014  C     0.08429   0.61294   0.89994   0.00000  Uiso   1.00
H2015  H     0.07044   0.60414   0.86416   0.00000  Uiso   1.00
H2016  H     0.06282   0.63972   0.90763   0.00000  Uiso   1.00
C2017  C     0.06961   0.57670   0.92909   0.00000  Uiso   1.00
H2018  H     0.07461   0.58516   0.96500   0.00000  Uiso   1.00
H2019  H     0.02825   0.56675   0.91839   0.00000  Uiso   1.00
H2020  H     0.09406   0.55072   0.92534   0.00000  Uiso   1.00
O2021  O     0.14353   0.62737   0.74961   0.00000  Uiso   1.00
C2022  C     0.17947   0.64506   0.72247   0.00000  Uiso   1.00
H2023  H     0.21797   0.63211   0.73220   0.00000  Uiso   1.00
H2024  H     0.18604   0.34564   0.72476   0.00000  Uiso   1.00
C2025  C     0.15915   0.63525   0.67398   0.00000  Uiso   1.00
H2026  H     0.12281   0.65138   0.99612   0.00000  Uiso   1.00
H2027  H     0.18871   0.64507   0.98573   0.00000  Uiso   1.00
H2028  H     0.15101   0.60170   0.67097   0.00000  Uiso   1.00
O2029  O     0.17130   0.37148   0.91543   0.00000  Uiso   1.00
C2030  C     0.22543   0.37440   0.93033   0.00000  Uiso   1.00
H2031  H     0.24689   0.39250   0.90612   0.00000  Uiso   1.00
H2032  H     0.24087   0.34334   0.93469   0.00000  Uiso   1.00
C2033  C     0.23532   0.39573   0.97552   0.00000  Uiso   1.00
H2034  H     0.27528   0.38990   0.99230   0.00000  Uiso   1.00
H2035  H     0.23050   0.42922   0.97035   0.00000  Uiso   1.00
H2036  H     0.20723   0.38385   0.99777   0.00000  Uiso   1.00
O2037  O     0.22403   0.55922   0.71983   0.00000  Uiso   1.00
C2038  C     0.27761   0.55280   0.73115   0.00000  Uiso   1.00
H2039  H     0.29875   0.55989   0.70258   0.00000  Uiso   1.00
H2040  H     0.28423   0.52059   0.74066   0.00000  Uiso   1.00
C2041  C     0.30149   0.58070   0.76986   0.00000  Uiso   1.00
H2042  H     0.27988   0.57626   0.79912   0.00000  Uiso   1.00
H2043  H     0.00965   0.57386   0.78051   0.00000  Uiso   1.00
H2044  H     0.30014   0.61336   0.75891   0.00000  Uiso   1.00
O2045  O     0.09221   0.45472   0.94263   0.00000  Uiso   1.00
C2046  C     0.08131   0.41382   0.95661   0.00000  Uiso   1.00
H2047  H     0.06071   0.41240   0.98629   0.00000  Uiso   1.00
H2048  H     0.11721   0.39680   0.96535   0.00000  Uiso   1.00
C2049  C     0.04468   0.39232   0.91891   0.00000  Uiso   1.00
H2050  H     0.01130   0.41169   0.90720   0.00000  Uiso   1.00
H2051  H     0.06553   0.38682   0.88994   0.00000  Uiso   1.00
H2052  H     0.02884   0.36268   0.93170   0.00000  Uiso   1.00
O2053  O     0.21183   0.56577   0.95955   0.00000  Uiso   1.00
C2054  C     0.26310   0.56692   0.94862   0.00000  Uiso   1.00
H2055  H     0.26078   0.56749   0.91141   0.00000  Uiso   1.00
H2056  H     0.28578   0.54010   0.96130   0.00000  Uiso   1.00
C2057  C     0.29276   0.60707   0.96537   0.00000  Uiso   1.00
H2058  H     0.27155   0.62338   0.98858   0.00000  Uiso   1.00
H2059  H     0.33142   0.60087   0.98440   0.00000  Uiso   1.00
H2060  H     0.29943   0.62760   0.93642   0.00000  Uiso   1.00
O2061  O     0.08392   0.46502   0.70322   0.00000  Uiso   1.00
C2062  C     0.04351   0.49191   0.68783   0.00000  Uiso   1.00
H2063  H     0.04851   0.50949   0.98954   0.00000  Uiso   1.00
H2064  H     0.04111   0.51501   0.71393   0.00000  Uiso   1.00
C2065  C     0.32519   0.46705   0.67896   0.00000  Uiso   1.00
H2066  H     0.32074   0.44505   0.70710   0.00000  Uiso   1.00
H2067  H     0.29206   0.48715   0.67542   0.00000  Uiso   1.00
H2068  H     0.32311   0.45058   0.98007   0.00000  Uiso   1.00
C2069  C     0.49713   0.42001   0.83347   0.00000  Uiso   1.00
C2070  C     0.49733   0.57991   0.83256   0.00000  Uiso   1.00
C2071  C     0.40056   0.49724   0.82178   0.00000  Uiso   1.00
C2072  C     0.59933   0.49829   0.84524   0.00000  Uiso   1.00
C2073  C     0.34558   0.49022   0.81685   0.00000  Uiso   1.00
C2074  C     0.65440   0.49697   0.85191   0.00000  Uiso   1.00
C2075  C     0.47467   0.35519   0.79281   0.00000  Uiso   1.00
C2076  C     0.48716   0.64383   0.87212   0.00000  Uiso   1.00
C2077  C     0.48340   0.64676   0.79072   0.00000  Uiso   1.00
C2078  C     0.49625   0.35274   0.87409   0.00000  Uiso   1.00
C2079  C     0.49038   0.62399   0.83142   0.00000  Uiso   1.00
C2080  C     0.49031   0.37561   0.83361   0.00000  Uiso   1.00
C2081  C     0.53263   0.52704   0.69423   0.00000  Uiso   1.00
C2082  C     0.46494   0.47492   0.97182   0.00000  Uiso   1.00
C2083  C     0.53066   0.52864   0.97917   0.00000  Uiso   1.00
C2084  C     0.46208   0.47823   0.68623   0.00000  Uiso   1.00
H2085  H     0.65876   0.47921   0.78485   0.00000  Uiso   1.00
H2086  H     0.34156   0.50403   0.88532   0.00000  Uiso   1.00
N2087  N     0.49999   0.49999   0.95240   0.00000  Uiso   1.00
N2088  N     0.50001   0.50001   0.71427   0.00000  Uiso   1.00
O2089  O     0.50000   0.43892   0.87154   0.00000  Uiso   1.00
O2090  O     0.50000   0.56108   0.79513   0.00000  Uiso   1.00
O2091  O     0.50000   0.43893   0.79510   0.00000  Uiso   1.00
O2092  O     0.50000   0.56107   0.87157   0.00000  Uiso   1.00
O2093  O     0.42392   0.50000   0.86261   0.00000  Uiso   1.00
O2094  O     0.57608   0.50000   0.80405   0.00000  Uiso   1.00
O2095  O     0.42392   0.50000   0.78617   0.00000  Uiso   1.00
O2096  O     0.57608   0.50000   0.88050   0.00000  Uiso   1.00
Zn2097 Zn    0.50000   0.49999   0.88437   0.00000  Uiso   1.00
Zn2098 Zn    0.50000   0.50001   0.78229   0.00000  Uiso   1.00
O2099  O     0.44993   0.37545   0.75526   0.00000  Uiso   1.00
C2100  C     0.39542   0.37341   0.75668   0.00000  Uiso   1.00
H2101  H     0.38089   0.40424   0.74781   0.00000  Uiso   1.00
H2102  H     0.38398   0.36560   0.79060   0.00000  Uiso   1.00
C2103  C     0.36760   0.34277   0.72226   0.00000  Uiso   1.00
H2104  H     0.37808   0.64434   0.73244   0.00000  Uiso   1.00
H2105  H     0.65802   0.34465   0.72019   0.00000  Uiso   1.00
H2106  H     0.37876   0.34953   0.68841   0.00000  Uiso   1.00
O2107  O     0.47216   0.62266   0.90904   0.00000  Uiso   1.00
C2108  C     0.41762   0.61294   0.89994   0.00000  Uiso   1.00
H2109  H     0.40377   0.60414   0.86416   0.00000  Uiso   1.00
H2110  H     0.39615   0.63972   0.90763   0.00000  Uiso   1.00
C2111  C     0.40295   0.57670   0.92909   0.00000  Uiso   1.00
H2112  H     0.40794   0.58516   0.96500   0.00000  Uiso   1.00
H2113  H     0.36158   0.56675   0.91839   0.00000  Uiso   1.00
H2114  H     0.42739   0.55072   0.92534   0.00000  Uiso   1.00
O2115  O     0.47687   0.62737   0.74961   0.00000  Uiso   1.00
C2116  C     0.51281   0.64506   0.72247   0.00000  Uiso   1.00
H2117  H     0.55130   0.63211   0.73220   0.00000  Uiso   1.00
H2118  H     0.51937   0.34564   0.72476   0.00000  Uiso   1.00
C2119  C     0.49248   0.63525   0.67398   0.00000  Uiso   1.00
H2120  H     0.45614   0.65138   0.99612   0.00000  Uiso   1.00
H2121  H     0.52205   0.64507   0.98573   0.00000  Uiso   1.00
H2122  H     0.48435   0.60170   0.67097   0.00000  Uiso   1.00
O2123  O     0.50463   0.37148   0.91543   0.00000  Uiso   1.00
C2124  C     0.55876   0.37440   0.93033   0.00000  Uiso   1.00
H2125  H     0.58023   0.39250   0.90612   0.00000  Uiso   1.00
H2126  H     0.57421   0.34334   0.93469   0.00000  Uiso   1.00
C2127  C     0.56866   0.39573   0.97552   0.00000  Uiso   1.00
H2128  H     0.60862   0.38990   0.99230   0.00000  Uiso   1.00
H2129  H     0.56383   0.42922   0.97035   0.00000  Uiso   1.00
H2130  H     0.54057   0.38385   0.99777   0.00000  Uiso   1.00
O2131  O     0.55736   0.55922   0.71983   0.00000  Uiso   1.00
C2132  C     0.61094   0.55280   0.73115   0.00000  Uiso   1.00
H2133  H     0.63208   0.55989   0.70258   0.00000  Uiso   1.00
H2134  H     0.61756   0.52059   0.74066   0.00000  Uiso   1.00
C2135  C     0.63482   0.58070   0.76986   0.00000  Uiso   1.00
H2136  H     0.61321   0.57626   0.79912   0.00000  Uiso   1.00
H2137  H     0.34298   0.57386   0.78051   0.00000  Uiso   1.00
H2138  H     0.63347   0.61336   0.75891   0.00000  Uiso   1.00
O2139  O     0.42554   0.45472   0.94263   0.00000  Uiso   1.00
C2140  C     0.41465   0.41382   0.95661   0.00000  Uiso   1.00
H2141  H     0.39404   0.41240   0.98629   0.00000  Uiso   1.00
H2142  H     0.45055   0.39680   0.96535   0.00000  Uiso   1.00
C2143  C     0.37801   0.39232   0.91891   0.00000  Uiso   1.00
H2144  H     0.34464   0.41169   0.90720   0.00000  Uiso   1.00
H2145  H     0.39886   0.38682   0.88994   0.00000  Uiso   1.00
H2146  H     0.36217   0.36268   0.93170   0.00000  Uiso   1.00
O2147  O     0.54516   0.56577   0.95955   0.00000  Uiso   1.00
C2148  C     0.59644   0.56692   0.94862   0.00000  Uiso   1.00
H2149  H     0.59411   0.56749   0.91141   0.00000  Uiso   1.00
H2150  H     0.61911   0.54010   0.96130   0.00000  Uiso   1.00
C2151  C     0.62609   0.60707   0.96537   0.00000  Uiso   1.00
H2152  H     0.60489   0.62338   0.98858   0.00000  Uiso   1.00
H2153  H     0.66475   0.60087   0.98440   0.00000  Uiso   1.00
H2154  H     0.63276   0.62760   0.93642   0.00000  Uiso   1.00
O2155  O     0.41725   0.46502   0.70322   0.00000  Uiso   1.00
C2156  C     0.37685   0.49191   0.68783   0.00000  Uiso   1.00
H2157  H     0.38184   0.50949   0.98954   0.00000  Uiso   1.00
H2158  H     0.37444   0.51501   0.71393   0.00000  Uiso   1.00
C2159  C     0.65853   0.46705   0.67896   0.00000  Uiso   1.00
H2160  H     0.65407   0.44505   0.70710   0.00000  Uiso   1.00
H2161  H     0.62539   0.48715   0.67542   0.00000  Uiso   1.00
H2162  H     0.65644   0.45058   0.98007   0.00000  Uiso   1.00
C2163  C     0.83046   0.42001   0.83347   0.00000  Uiso   1.00
C2164  C     0.83066   0.57991   0.83256   0.00000  Uiso   1.00
C2165  C     0.73389   0.49724   0.82178   0.00000  Uiso   1.00
C2166  C     0.93266   0.49829   0.84524   0.00000  Uiso   1.00
C2167  C     0.67892   0.49022   0.81685   0.00000  Uiso   1.00
C2168  C     0.98774   0.49697   0.85191   0.00000  Uiso   1.00
C2169  C     0.80801   0.35519   0.79281   0.00000  Uiso   1.00
C2170  C     0.82049   0.64383   0.87212   0.00000  Uiso   1.00
C2171  C     0.81673   0.64676   0.79072   0.00000  Uiso   1.00
C2172  C     0.82958   0.35274   0.87409   0.00000  Uiso   1.00
C2173  C     0.82371   0.62399   0.83142   0.00000  Uiso   1.00
C2174  C     0.82364   0.37561   0.83361   0.00000  Uiso   1.00
C2175  C     0.86596   0.52704   0.69423   0.00000  Uiso   1.00
C2176  C     0.79828   0.47492   0.97182   0.00000  Uiso   1.00
C2177  C     0.86399   0.52864   0.97917   0.00000  Uiso   1.00
C2178  C     0.79541   0.47823   0.68623   0.00000  Uiso   1.00
H2179  H     0.99209   0.47921   0.78485   0.00000  Uiso   1.00
H2180  H     0.67489   0.50403   0.88532   0.00000  Uiso   1.00
N2181  N     0.83332   0.49999   0.95240   0.00000  Uiso   1.00
N2182  N     0.83335   0.50001   0.71427   0.00000  Uiso   1.00
O2183  O     0.83333   0.43892   0.87154   0.00000  Uiso   1.00
O2184  O     0.83334   0.56108   0.79513   0.00000  Uiso   1.00
O2185  O     0.83333   0.43893   0.79510   0.00000  Uiso   1.00
O2186  O     0.83334   0.56107   0.87157   0.00000  Uiso   1.00
O2187  O     0.75725   0.50000   0.86261   0.00000  Uiso   1.00
O2188  O     0.90942   0.50000   0.80405   0.00000  Uiso   1.00
O2189  O     0.75725   0.50000   0.78617   0.00000  Uiso   1.00
O2190  O     0.90942   0.50000   0.88050   0.00000  Uiso   1.00
Zn2191 Zn    0.83333   0.49999   0.88437   0.00000  Uiso   1.00
Zn2192 Zn    0.83333   0.50001   0.78229   0.00000  Uiso   1.00
O2193  O     0.78327   0.37545   0.75526   0.00000  Uiso   1.00
C2194  C     0.72875   0.37341   0.75668   0.00000  Uiso   1.00
H2195  H     0.71423   0.40424   0.74781   0.00000  Uiso   1.00
H2196  H     0.71731   0.36560   0.79060   0.00000  Uiso   1.00
C2197  C     0.70093   0.34277   0.72226   0.00000  Uiso   1.00
H2198  H     0.71141   0.64434   0.73244   0.00000  Uiso   1.00
H2199  H     0.99136   0.34465   0.72019   0.00000  Uiso   1.00
H2200  H     0.71209   0.34953   0.68841   0.00000  Uiso   1.00
O2201  O     0.80550   0.62266   0.90904   0.00000  Uiso   1.00
C2202  C     0.75096   0.61294   0.89994   0.00000  Uiso   1.00
H2203  H     0.73710   0.60414   0.86416   0.00000  Uiso   1.00
H2204  H     0.72949   0.63972   0.90763   0.00000  Uiso   1.00
C2205  C     0.73628   0.57670   0.92909   0.00000  Uiso   1.00
H2206  H     0.74128   0.58516   0.96500   0.00000  Uiso   1.00
H2207  H     0.69491   0.56675   0.91839   0.00000  Uiso   1.00
H2208  H     0.76072   0.55072   0.92534   0.00000  Uiso   1.00
O2209  O     0.81020   0.62737   0.74961   0.00000  Uiso   1.00
C2210  C     0.84614   0.64506   0.72247   0.00000  Uiso   1.00
H2211  H     0.88463   0.63211   0.73220   0.00000  Uiso   1.00
H2212  H     0.85270   0.34564   0.72476   0.00000  Uiso   1.00
C2213  C     0.82581   0.63525   0.67398   0.00000  Uiso   1.00
H2214  H     0.78948   0.65138   0.99612   0.00000  Uiso   1.00
H2215  H     0.85538   0.64507   0.98573   0.00000  Uiso   1.00
H2216  H     0.81768   0.60170   0.67097   0.00000  Uiso   1.00
O2217  O     0.83797   0.37148   0.91543   0.00000  Uiso   1.00
C2218  C     0.89210   0.37440   0.93033   0.00000  Uiso   1.00
H2219  H     0.91356   0.39250   0.90612   0.00000  Uiso   1.00
H2220  H     0.90754   0.34334   0.93469   0.00000  Uiso   1.00
C2221  C     0.90199   0.39573   0.97552   0.00000  Uiso   1.00
H2222  H     0.94195   0.38990   0.99230   0.00000  Uiso   1.00
H2223  H     0.89716   0.42922   0.97035   0.00000  Uiso   1.00
H2224  H     0.87390   0.38385   0.99777   0.00000  Uiso   1.00
O2225  O     0.89069   0.55922   0.71983   0.00000  Uiso   1.00
C2226  C     0.94428   0.55280   0.73115   0.00000  Uiso   1.00
H2227  H     0.96542   0.55989   0.70258   0.00000  Uiso   1.00
H2228  H     0.95089   0.52059   0.74066   0.00000  Uiso   1.00
C2229  C     0.96816   0.58070   0.76986   0.00000  Uiso   1.00
H2230  H     0.94655   0.57626   0.79912   0.00000  Uiso   1.00
H2231  H     0.67631   0.57386   0.78051   0.00000  Uiso   1.00
H2232  H     0.96680   0.61336   0.75891   0.00000  Uiso   1.00
O2233  O     0.75888   0.45472   0.94263   0.00000  Uiso   1.00
C2234  C     0.74798   0.41382   0.95661   0.00000  Uiso   1.00
H2235  H     0.72738   0.41240   0.98629   0.00000  Uiso   1.00
H2236  H     0.78388   0.39680   0.96535   0.00000  Uiso   1.00
C2237  C     0.71135   0.39232   0.91891   0.00000  Uiso   1.00
H2238  H     0.67797   0.41169   0.90720   0.00000  Uiso   1.00
H2239  H     0.73220   0.38682   0.88994   0.00000  Uiso   1.00
H2240  H     0.69551   0.36268   0.93170   0.00000  Uiso   1.00
O2241  O     0.87849   0.56577   0.95955   0.00000  Uiso   1.00
C2242  C     0.92977   0.56692   0.94862   0.00000  Uiso   1.00
H2243  H     0.92745   0.56749   0.91141   0.00000  Uiso   1.00
H2244  H     0.95244   0.54010   0.96130   0.00000  Uiso   1.00
C2245  C     0.95943   0.60707   0.96537   0.00000  Uiso   1.00
H2246  H     0.93822   0.62338   0.98858   0.00000  Uiso   1.00
H2247  H     0.99808   0.60087   0.98440   0.00000  Uiso   1.00
H2248  H     0.96609   0.62760   0.93642   0.00000  Uiso   1.00
O2249  O     0.75058   0.46502   0.70322   0.00000  Uiso   1.00
C2250  C     0.71018   0.49191   0.68783   0.00000  Uiso   1.00
H2251  H     0.71517   0.50949   0.98954   0.00000  Uiso   1.00
H2252  H     0.70778   0.51501   0.71393   0.00000  Uiso   1.00
C2253  C     0.99186   0.46705   0.67896   0.00000  Uiso   1.00
H2254  H     0.98741   0.44505   0.70710   0.00000  Uiso   1.00
H2255  H     0.95873   0.48715   0.67542   0.00000  Uiso   1.00
H2256  H     0.98977   0.45058   0.98007   0.00000  Uiso   1.00
C2257  C     0.16379   0.75335   0.83347   0.00000  Uiso   1.00
C2258  C     0.16399   0.91324   0.83256   0.00000  Uiso   1.00
C2259  C     0.06723   0.83057   0.82178   0.00000  Uiso   1.00
C2260  C     0.26600   0.83163   0.84524   0.00000  Uiso   1.00
C2261  C     0.01225   0.82355   0.81685   0.00000  Uiso   1.00
C2262  C     0.32107   0.83031   0.85191   0.00000  Uiso   1.00
C2263  C     0.14134   0.68853   0.79281   0.00000  Uiso   1.00
C2264  C     0.15383   0.97717   0.87212   0.00000  Uiso   1.00
C2265  C     0.15006   0.98009   0.79072   0.00000  Uiso   1.00
C2266  C     0.16292   0.68608   0.87409   0.00000  Uiso   1.00
C2267  C     0.15704   0.95732   0.83142   0.00000  Uiso   1.00
C2268  C     0.15697   0.70895   0.83361   0.00000  Uiso   1.00
C2269  C     0.19930   0.86038   0.69423   0.00000  Uiso   1.00
C2270  C     0.13161   0.80825   0.97182   0.00000  Uiso   1.00
C2271  C     0.19733   0.86198   0.97917   0.00000  Uiso   1.00
C2272  C     0.12874   0.81156   0.68623   0.00000  Uiso   1.00
H2273  H     0.32543   0.81255   0.78485   0.00000  Uiso   1.00
H2274  H     0.00823   0.83736   0.88532   0.00000  Uiso   1.00
N2275  N     0.16665   0.83332   0.95240   0.00000  Uiso   1.00
N2276  N     0.16668   0.83334   0.71427   0.00000  Uiso   1.00
O2277  O     0.16666   0.77225   0.87154   0.00000  Uiso   1.00
O2278  O     0.16667   0.89442   0.79513   0.00000  Uiso   1.00
O2279  O     0.16666   0.77226   0.79510   0.00000  Uiso   1.00
O2280  O     0.16667   0.89441   0.87157   0.00000  Uiso   1.00
O2281  O     0.09058   0.83333   0.86261   0.00000  Uiso   1.00
O2282  O     0.24275   0.83334   0.80405   0.00000  Uiso   1.00
O2283  O     0.09058   0.83334   0.78617   0.00000  Uiso   1.00
O2284  O     0.24275   0.83333   0.88050   0.00000  Uiso   1.00
Zn2285 Zn    0.16667   0.83333   0.88437   0.00000  Uiso   1.00
Zn2286 Zn    0.16667   0.83334   0.78229   0.00000  Uiso   1.00
O2287  O     0.11660   0.70878   0.75526   0.00000  Uiso   1.00
C2288  C     0.06208   0.70675   0.75668   0.00000  Uiso   1.00
H2289  H     0.04756   0.73757   0.74781   0.00000  Uiso   1.00
H2290  H     0.05065   0.69894   0.79060   0.00000  Uiso   1.00
C2291  C     0.03426   0.67610   0.72226   0.00000  Uiso   1.00
H2292  H     0.04475   0.97767   0.73244   0.00000  Uiso   1.00
H2293  H     0.32469   0.67798   0.72019   0.00000  Uiso   1.00
H2294  H     0.04543   0.68287   0.68841   0.00000  Uiso   1.00
O2295  O     0.13883   0.95599   0.90904   0.00000  Uiso   1.00
C2296  C     0.08429   0.94628   0.89994   0.00000  Uiso   1.00
H2297  H     0.07044   0.93747   0.86416   0.00000  Uiso   1.00
H2298  H     0.06282   0.97305   0.90763   0.00000  Uiso   1.00
C2299  C     0.06961   0.91003   0.92909   0.00000  Uiso   1.00
H2300  H     0.07461   0.91849   0.96500   0.00000  Uiso   1.00
H2301  H     0.02825   0.90009   0.91839   0.00000  Uiso   1.00
H2302  H     0.09406   0.88406   0.92534   0.00000  Uiso   1.00
O2303  O     0.14353   0.96070   0.74961   0.00000  Uiso   1.00
C2304  C     0.17947   0.97839   0.72247   0.00000  Uiso   1.00
H2305  H     0.21797   0.96544   0.73220   0.00000  Uiso   1.00
H2306  H     0.18604   0.67897   0.72476   0.00000  Uiso   1.00
C2307  C     0.15915   0.96859   0.67398   0.00000  Uiso   1.00
H2308  H     0.12281   0.98471   0.99612   0.00000  Uiso   1.00
H2309  H     0.18871   0.97840   0.98573   0.00000  Uiso   1.00
H2310  H     0.15101   0.93503   0.67097   0.00000  Uiso   1.00
O2311  O     0.17130   0.70482   0.91543   0.00000  Uiso   1.00
C2312  C     0.22543   0.70773   0.93033   0.00000  Uiso   1.00
H2313  H     0.24689   0.72583   0.90612   0.00000  Uiso   1.00
H2314  H     0.24087   0.67668   0.93469   0.00000  Uiso   1.00
C2315  C     0.23532   0.72906   0.97552   0.00000  Uiso   1.00
H2316  H     0.27528   0.72324   0.99230   0.00000  Uiso   1.00
H2317  H     0.23050   0.76256   0.97035   0.00000  Uiso   1.00
H2318  H     0.20723   0.71718   0.99777   0.00000  Uiso   1.00
O2319  O     0.22403   0.89256   0.71983   0.00000  Uiso   1.00
C2320  C     0.27761   0.88613   0.73115   0.00000  Uiso   1.00
H2321  H     0.29875   0.89322   0.70258   0.00000  Uiso   1.00
H2322  H     0.28423   0.85392   0.74066   0.00000  Uiso   1.00
C2323  C     0.30149   0.91403   0.76986   0.00000  Uiso   1.00
H2324  H     0.27988   0.90959   0.79912   0.00000  Uiso   1.00
H2325  H     0.00965   0.90720   0.78051   0.00000  Uiso   1.00
H2326  H     0.30014   0.94669   0.75891   0.00000  Uiso   1.00
O2327  O     0.09221   0.78805   0.94263   0.00000  Uiso   1.00
C2328  C     0.08131   0.74715   0.95661   0.00000  Uiso   1.00
H2329  H     0.06071   0.74574   0.98629   0.00000  Uiso   1.00
H2330  H     0.11721   0.73013   0.96535   0.00000  Uiso   1.00
C2331  C     0.04468   0.72565   0.91891   0.00000  Uiso   1.00
H2332  H     0.01130   0.74502   0.90720   0.00000  Uiso   1.00
H2333  H     0.06553   0.72016   0.88994   0.00000  Uiso   1.00
H2334  H     0.02884   0.69601   0.93170   0.00000  Uiso   1.00
O2335  O     0.21183   0.89910   0.95955   0.00000  Uiso   1.00
C2336  C     0.26310   0.90026   0.94862   0.00000  Uiso   1.00
H2337  H     0.26078   0.90083   0.91141   0.00000  Uiso   1.00
H2338  H     0.28578   0.87344   0.96130   0.00000  Uiso   1.00
C2339  C     0.29276   0.94041   0.96537   0.00000  Uiso   1.00
H2340  H     0.27155   0.95671   0.98858   0.00000  Uiso   1.00
H2341  H     0.33142   0.93420   0.98440   0.00000  Uiso   1.00
H2342  H     0.29943   0.96093   0.93642   0.00000  Uiso   1.00
O2343  O     0.08392   0.79836   0.70322   0.00000  Uiso   1.00
C2344  C     0.04351   0.82525   0.68783   0.00000  Uiso   1.00
H2345  H     0.04851   0.84282   0.98954   0.00000  Uiso   1.00
H2346  H     0.04111   0.84835   0.71393   0.00000  Uiso   1.00
C2347  C     0.32519   0.80038   0.67896   0.00000  Uiso   1.00
H2348  H     0.32074   0.77838   0.70710   0.00000  Uiso   1.00
H2349  H     0.29206   0.82049   0.67542   0.00000  Uiso   1.00
H2350  H     0.32311   0.78392   0.98007   0.00000  Uiso   1.00
C2351  C     0.49713   0.75335   0.83347   0.00000  Uiso   1.00
C2352  C     0.49733   0.91324   0.83256   0.00000  Uiso   1.00
C2353  C     0.40056   0.83057   0.82178   0.00000  Uiso   1.00
C2354  C     0.59933   0.83163   0.84524   0.00000  Uiso   1.00
C2355  C     0.34558   0.82355   0.81685   0.00000  Uiso   1.00
C2356  C     0.65440   0.83031   0.85191   0.00000  Uiso   1.00
C2357  C     0.47467   0.68853   0.79281   0.00000  Uiso   1.00
C2358  C     0.48716   0.97717   0.87212   0.00000  Uiso   1.00
C2359  C     0.48340   0.98009   0.79072   0.00000  Uiso   1.00
C2360  C     0.49625   0.68608   0.87409   0.00000  Uiso   1.00
C2361  C     0.49038   0.95732   0.83142   0.00000  Uiso   1.00
C2362  C     0.49031   0.70895   0.83361   0.00000  Uiso   1.00
C2363  C     0.53263   0.86038   0.69423   0.00000  Uiso   1.00
C2364  C     0.46494   0.80825   0.97182   0.00000  Uiso   1.00
C2365  C     0.53066   0.86198   0.97917   0.00000  Uiso   1.00
C2366  C     0.46208   0.81156   0.68623   0.00000  Uiso   1.00
H2367  H     0.65876   0.81255   0.78485   0.00000  Uiso   1.00
H2368  H     0.34156   0.83736   0.88532   0.00000  Uiso   1.00
N2369  N     0.49999   0.83332   0.95240   0.00000  Uiso   1.00
N2370  N     0.50001   0.83334   0.71427   0.00000  Uiso   1.00
O2371  O     0.50000   0.77225   0.87154   0.00000  Uiso   1.00
O2372  O     0.50000   0.89442   0.79513   0.00000  Uiso   1.00
O2373  O     0.50000   0.77226   0.79510   0.00000  Uiso   1.00
O2374  O     0.50000   0.89441   0.87157   0.00000  Uiso   1.00
O2375  O     0.42392   0.83333   0.86261   0.00000  Uiso   1.00
O2376  O     0.57608   0.83334   0.80405   0.00000  Uiso   1.00
O2377  O     0.42392   0.83334   0.78617   0.00000  Uiso   1.00
O2378  O     0.57608   0.83333   0.88050   0.00000  Uiso   1.00
Zn2379 Zn    0.50000   0.83333   0.88437   0.00000  Uiso   1.00
Zn2380 Zn    0.50000   0.83334   0.78229   0.00000  Uiso   1.00
O2381  O     0.44993   0.70878   0.75526   0.00000  Uiso   1.00
C2382  C     0.39542   0.70675   0.75668   0.00000  Uiso   1.00
H2383  H     0.38089   0.73757   0.74781   0.00000  Uiso   1.00
H2384  H     0.38398   0.69894   0.79060   0.00000  Uiso   1.00
C2385  C     0.36760   0.67610   0.72226   0.00000  Uiso   1.00
H2386  H     0.37808   0.97767   0.73244   0.00000  Uiso   1.00
H2387  H     0.65802   0.67798   0.72019   0.00000  Uiso   1.00
H2388  H     0.37876   0.68287   0.68841   0.00000  Uiso   1.00
O2389  O     0.47216   0.95599   0.90904   0.00000  Uiso   1.00
C2390  C     0.41762   0.94628   0.89994   0.00000  Uiso   1.00
H2391  H     0.40377   0.93747   0.86416   0.00000  Uiso   1.00
H2392  H     0.39615   0.97305   0.90763   0.00000  Uiso   1.00
C2393  C     0.40295   0.91003   0.92909   0.00000  Uiso   1.00
H2394  H     0.40794   0.91849   0.96500   0.00000  Uiso   1.00
H2395  H     0.36158   0.90009   0.91839   0.00000  Uiso   1.00
H2396  H     0.42739   0.88406   0.92534   0.00000  Uiso   1.00
O2397  O     0.47687   0.96070   0.74961   0.00000  Uiso   1.00
C2398  C     0.51281   0.97839   0.72247   0.00000  Uiso   1.00
H2399  H     0.55130   0.96544   0.73220   0.00000  Uiso   1.00
H2400  H     0.51937   0.67897   0.72476   0.00000  Uiso   1.00
C2401  C     0.49248   0.96859   0.67398   0.00000  Uiso   1.00
H2402  H     0.45614   0.98471   0.99612   0.00000  Uiso   1.00
H2403  H     0.52205   0.97840   0.98573   0.00000  Uiso   1.00
H2404  H     0.48435   0.93503   0.67097   0.00000  Uiso   1.00
O2405  O     0.50463   0.70482   0.91543   0.00000  Uiso   1.00
C2406  C     0.55876   0.70773   0.93033   0.00000  Uiso   1.00
H2407  H     0.58023   0.72583   0.90612   0.00000  Uiso   1.00
H2408  H     0.57421   0.67668   0.93469   0.00000  Uiso   1.00
C2409  C     0.56866   0.72906   0.97552   0.00000  Uiso   1.00
H2410  H     0.60862   0.72324   0.99230   0.00000  Uiso   1.00
H2411  H     0.56383   0.76256   0.97035   0.00000  Uiso   1.00
H2412  H     0.54057   0.71718   0.99777   0.00000  Uiso   1.00
O2413  O     0.55736   0.89256   0.71983   0.00000  Uiso   1.00
C2414  C     0.61094   0.88613   0.73115   0.00000  Uiso   1.00
H2415  H     0.63208   0.89322   0.70258   0.00000  Uiso   1.00
H2416  H     0.61756   0.85392   0.74066   0.00000  Uiso   1.00
C2417  C     0.63482   0.91403   0.76986   0.00000  Uiso   1.00
H2418  H     0.61321   0.90959   0.79912   0.00000  Uiso   1.00
H2419  H     0.34298   0.90720   0.78051   0.00000  Uiso   1.00
H2420  H     0.63347   0.94669   0.75891   0.00000  Uiso   1.00
O2421  O     0.42554   0.78805   0.94263   0.00000  Uiso   1.00
C2422  C     0.41465   0.74715   0.95661   0.00000  Uiso   1.00
H2423  H     0.39404   0.74574   0.98629   0.00000  Uiso   1.00
H2424  H     0.45055   0.73013   0.96535   0.00000  Uiso   1.00
C2425  C     0.37801   0.72565   0.91891   0.00000  Uiso   1.00
H2426  H     0.34464   0.74502   0.90720   0.00000  Uiso   1.00
H2427  H     0.39886   0.72016   0.88994   0.00000  Uiso   1.00
H2428  H     0.36217   0.69601   0.93170   0.00000  Uiso   1.00
O2429  O     0.54516   0.89910   0.95955   0.00000  Uiso   1.00
C2430  C     0.59644   0.90026   0.94862   0.00000  Uiso   1.00
H2431  H     0.59411   0.90083   0.91141   0.00000  Uiso   1.00
H2432  H     0.61911   0.87344   0.96130   0.00000  Uiso   1.00
C2433  C     0.62609   0.94041   0.96537   0.00000  Uiso   1.00
H2434  H     0.60489   0.95671   0.98858   0.00000  Uiso   1.00
H2435  H     0.66475   0.93420   0.98440   0.00000  Uiso   1.00
H2436  H     0.63276   0.96093   0.93642   0.00000  Uiso   1.00
O2437  O     0.41725   0.79836   0.70322   0.00000  Uiso   1.00
C2438  C     0.37685   0.82525   0.68783   0.00000  Uiso   1.00
H2439  H     0.38184   0.84282   0.98954   0.00000  Uiso   1.00
H2440  H     0.37444   0.84835   0.71393   0.00000  Uiso   1.00
C2441  C     0.65853   0.80038   0.67896   0.00000  Uiso   1.00
H2442  H     0.65407   0.77838   0.70710   0.00000  Uiso   1.00
H2443  H     0.62539   0.82049   0.67542   0.00000  Uiso   1.00
H2444  H     0.65644   0.78392   0.98007   0.00000  Uiso   1.00
C2445  C     0.83046   0.75335   0.83347   0.00000  Uiso   1.00
C2446  C     0.83066   0.91324   0.83256   0.00000  Uiso   1.00
C2447  C     0.73389   0.83057   0.82178   0.00000  Uiso   1.00
C2448  C     0.93266   0.83163   0.84524   0.00000  Uiso   1.00
C2449  C     0.67892   0.82355   0.81685   0.00000  Uiso   1.00
C2450  C     0.98774   0.83031   0.85191   0.00000  Uiso   1.00
C2451  C     0.80801   0.68853   0.79281   0.00000  Uiso   1.00
C2452  C     0.82049   0.97717   0.87212   0.00000  Uiso   1.00
C2453  C     0.81673   0.98009   0.79072   0.00000  Uiso   1.00
C2454  C     0.82958   0.68608   0.87409   0.00000  Uiso   1.00
C2455  C     0.82371   0.95732   0.83142   0.00000  Uiso   1.00
C2456  C     0.82364   0.70895   0.83361   0.00000  Uiso   1.00
C2457  C     0.86596   0.86038   0.69423   0.00000  Uiso   1.00
C2458  C     0.79828   0.80825   0.97182   0.00000  Uiso   1.00
C2459  C     0.86399   0.86198   0.97917   0.00000  Uiso   1.00
C2460  C     0.79541   0.81156   0.68623   0.00000  Uiso   1.00
H2461  H     0.99209   0.81255   0.78485   0.00000  Uiso   1.00
H2462  H     0.67489   0.83736   0.88532   0.00000  Uiso   1.00
N2463  N     0.83332   0.83332   0.95240   0.00000  Uiso   1.00
N2464  N     0.83335   0.83334   0.71427   0.00000  Uiso   1.00
O2465  O     0.83333   0.77225   0.87154   0.00000  Uiso   1.00
O2466  O     0.83334   0.89442   0.79513   0.00000  Uiso   1.00
O2467  O     0.83333   0.77226   0.79510   0.00000  Uiso   1.00
O2468  O     0.83334   0.89441   0.87157   0.00000  Uiso   1.00
O2469  O     0.75725   0.83333   0.86261   0.00000  Uiso   1.00
O2470  O     0.90942   0.83334   0.80405   0.00000  Uiso   1.00
O2471  O     0.75725   0.83334   0.78617   0.00000  Uiso   1.00
O2472  O     0.90942   0.83333   0.88050   0.00000  Uiso   1.00
Zn2473 Zn    0.83333   0.83333   0.88437   0.00000  Uiso   1.00
Zn2474 Zn    0.83333   0.83334   0.78229   0.00000  Uiso   1.00
O2475  O     0.78327   0.70878   0.75526   0.00000  Uiso   1.00
C2476  C     0.72875   0.70675   0.75668   0.00000  Uiso   1.00
H2477  H     0.71423   0.73757   0.74781   0.00000  Uiso   1.00
H2478  H     0.71731   0.69894   0.79060   0.00000  Uiso   1.00
C2479  C     0.70093   0.67610   0.72226   0.00000  Uiso   1.00
H2480  H     0.71141   0.97767   0.73244   0.00000  Uiso   1.00
H2481  H     0.99136   0.67798   0.72019   0.00000  Uiso   1.00
H2482  H     0.71209   0.68287   0.68841   0.00000  Uiso   1.00
O2483  O     0.80550   0.95599   0.90904   0.00000  Uiso   1.00
C2484  C     0.75096   0.94628   0.89994   0.00000  Uiso   1.00
H2485  H     0.73710   0.93747   0.86416   0.00000  Uiso   1.00
H2486  H     0.72949   0.97305   0.90763   0.00000  Uiso   1.00
C2487  C     0.73628   0.91003   0.92909   0.00000  Uiso   1.00
H2488  H     0.74128   0.91849   0.96500   0.00000  Uiso   1.00
H2489  H     0.69491   0.90009   0.91839   0.00000  Uiso   1.00
H2490  H     0.76072   0.88406   0.92534   0.00000  Uiso   1.00
O2491  O     0.81020   0.96070   0.74961   0.00000  Uiso   1.00
C2492  C     0.84614   0.97839   0.72247   0.00000  Uiso   1.00
H2493  H     0.88463   0.96544   0.73220   0.00000  Uiso   1.00
H2494  H     0.85270   0.67897   0.72476   0.00000  Uiso   1.00
C2495  C     0.82581   0.96859   0.67398   0.00000  Uiso   1.00
H2496  H     0.78948   0.98471   0.99612   0.00000  Uiso   1.00
H2497  H     0.85538   0.97840   0.98573   0.00000  Uiso   1.00
H2498  H     0.81768   0.93503   0.67097   0.00000  Uiso   1.00
O2499  O     0.83797   0.70482   0.91543   0.00000  Uiso   1.00
C2500  C     0.89210   0.70773   0.93033   0.00000  Uiso   1.00
H2501  H     0.91356   0.72583   0.90612   0.00000  Uiso   1.00
H2502  H     0.90754   0.67668   0.93469   0.00000  Uiso   1.00
C2503  C     0.90199   0.72906   0.97552   0.00000  Uiso   1.00
H2504  H     0.94195   0.72324   0.99230   0.00000  Uiso   1.00
H2505  H     0.89716   0.76256   0.97035   0.00000  Uiso   1.00
H2506  H     0.87390   0.71718   0.99777   0.00000  Uiso   1.00
O2507  O     0.89069   0.89256   0.71983   0.00000  Uiso   1.00
C2508  C     0.94428   0.88613   0.73115   0.00000  Uiso   1.00
H2509  H     0.96542   0.89322   0.70258   0.00000  Uiso   1.00
H2510  H     0.95089   0.85392   0.74066   0.00000  Uiso   1.00
C2511  C     0.96816   0.91403   0.76986   0.00000  Uiso   1.00
H2512  H     0.94655   0.90959   0.79912   0.00000  Uiso   1.00
H2513  H     0.67631   0.90720   0.78051   0.00000  Uiso   1.00
H2514  H     0.96680   0.94669   0.75891   0.00000  Uiso   1.00
O2515  O     0.75888   0.78805   0.94263   0.00000  Uiso   1.00
C2516  C     0.74798   0.74715   0.95661   0.00000  Uiso   1.00
H2517  H     0.72738   0.74574   0.98629   0.00000  Uiso   1.00
H2518  H     0.78388   0.73013   0.96535   0.00000  Uiso   1.00
C2519  C     0.71135   0.72565   0.91891   0.00000  Uiso   1.00
H2520  H     0.67797   0.74502   0.90720   0.00000  Uiso   1.00
H2521  H     0.73220   0.72016   0.88994   0.00000  Uiso   1.00
H2522  H     0.69551   0.69601   0.93170   0.00000  Uiso   1.00
O2523  O     0.87849   0.89910   0.95955   0.00000  Uiso   1.00
C2524  C     0.92977   0.90026   0.94862   0.00000  Uiso   1.00
H2525  H     0.92745   0.90083   0.91141   0.00000  Uiso   1.00
H2526  H     0.95244   0.87344   0.96130   0.00000  Uiso   1.00
C2527  C     0.95943   0.94041   0.96537   0.00000  Uiso   1.00
H2528  H     0.93822   0.95671   0.98858   0.00000  Uiso   1.00
H2529  H     0.99808   0.93420   0.98440   0.00000  Uiso   1.00
H2530  H     0.96609   0.96093   0.93642   0.00000  Uiso   1.00
O2531  O     0.75058   0.79836   0.70322   0.00000  Uiso   1.00
C2532  C     0.71018   0.82525   0.68783   0.00000  Uiso   1.00
H2533  H     0.71517   0.84282   0.98954   0.00000  Uiso   1.00
H2534  H     0.70778   0.84835   0.71393   0.00000  Uiso   1.00
C2535  C     0.99186   0.80038   0.67896   0.00000  Uiso   1.00
H2536  H     0.98741   0.77838   0.70710   0.00000  Uiso   1.00
H2537  H     0.95873   0.82049   0.67542   0.00000  Uiso   1.00
H2538  H     0.98977   0.78392   0.98007   0.00000  Uiso   1.00
loop_
_geom_bond_atom_site_label_1
_geom_bond_atom_site_label_2
_geom_bond_distance
_geom_bond_site_symmetry_2
_ccdc_geom_bond_type
C1     O21     1.298   .     A
C1     C12     1.445   .     S
C1     O23     1.301   .     A
C2     O22     1.301   .     A
C2     C11     1.455   .     S
C2     O24     1.302   .     A
C3     O25     1.286   .     A
C3     C5      1.417   .     S
C3     O27     1.299   .     A
C4     O28     1.293   .     A
C4     C6      1.416   .     S
C4     O26     1.293   .     A
C5     C194    1.332   1_455 S
C5     H205    1.080   1_455 S
C6     C99     1.332   .     S
C6     H112    1.085   .     S
C7     C12     1.400   .     A
C7     O31     1.384   .     S
C7     C573    1.395   1_545 S
C8     O39     1.381   .     S
C8     C11     1.407   .     A
C8     C292    1.382   .     S
C9     C11     1.406   .     A
C9     O47     1.379   .     S
C9     C289    1.395   .     S
C10    O55     1.375   .     S
C10    C12     1.402   .     A
C10    C572    1.382   1_545 S
C13    O63     1.382   .     S
C13    N20     1.374   .     A
C13    C1707   1.442   1_554 S
C14    O71     1.388   .     S
C14    N19     1.370   .     A
C14    C862    1.449   .     S
C15    N19     1.381   .     A
C15    O79     1.388   .     S
C15    C859    1.442   .     S
C16    O87     1.378   .     S
C16    N20     1.371   .     A
C16    C1706   1.449   1_554 S
H17    C99     1.080   .     S
H18    C194    1.085   1_455 S
N19    Zn29    2.037   .     S
N20    Zn30    2.037   .     S
O21    Zn29    2.032   .     S
O22    Zn30    2.032   .     S
O23    Zn30    2.016   .     S
O24    Zn29    2.016   .     S
O25    Zn29    1.985   .     S
O26    Zn30    1.985   .     S
O27    Zn30    1.992   .     S
O28    Zn29    1.992   .     S
O31    C32     1.418   .     S
C32    H34     1.119   .     S
C32    C35     1.524   .     S
C32    H33     1.105   .     S
C35    H38     1.108   .     S
C35    H600    1.109   1_545 S
C35    H225    1.110   1_455 S
H36    C317    1.109   .     S
H37    C129    1.110   .     S
O39    C40     1.419   .     S
C40    H42     1.106   .     S
C40    C43     1.516   .     S
C40    H41     1.117   .     S
C43    H44     1.103   .     S
C43    H45     1.105   .     S
C43    H46     1.102   .     S
O47    C48     1.413   .     S
C48    C51     1.505   .     S
C48    H49     1.103   .     S
C48    H332    1.109   .     S
H50    C612    1.109   1_545 S
C51    H54     1.103   .     S
C51    H1744   1.110   1_554 S
C51    H1745   1.102   1_554 S
H52    C897    1.110   .     S
H53    C897    1.102   .     S
O55    C56     1.408   .     S
C56    H57     1.115   .     S
C56    C59     1.516   .     S
C56    H58     1.106   .     S
C59    H60     1.108   .     S
C59    H61     1.109   .     S
C59    H62     1.105   .     S
O63    C64     1.408   .     S
C64    C67     1.524   .     S
C64    H65     1.095   .     S
C64    H66     1.097   .     S
C67    H68     1.109   .     S
C67    H70     1.106   .     S
C67    H163    1.110   .     S
H69    C255    1.110   1_455 S
O71    C72     1.412   .     S
C72    H74     1.106   .     S
C72    C75     1.520   .     S
C72    H73     1.100   .     S
C75    H78     1.109   .     S
C75    H76     1.111   .     S
C75    H77     1.109   .     S
O79    C80     1.413   .     S
C80    C83     1.533   .     S
C80    H81     1.107   .     S
C80    H82     1.109   .     S
C83    H84     1.108   .     S
C83    H85     1.105   .     S
C83    H86     1.110   .     S
O87    C88     1.422   .     S
C88    H90     1.107   .     S
C88    H1781   1.115   1_554 S
C88    C279    1.516   1_455 S
H89    C934    1.115   .     S
C91    H92     1.108   .     S
C91    H93     1.101   .     S
C91    C182    1.516   .     S
C91    H1786   1.107   1_554 S
H94    C937    1.107   .     S
C95    O115    1.298   .     A
C95    C106    1.445   .     S
C95    O117    1.301   .     A
C96    O116    1.301   .     A
C96    C105    1.455   .     S
C96    O118    1.302   .     A
C97    O119    1.286   .     A
C97    C99     1.417   .     S
C97    O121    1.299   .     A
C98    O122    1.293   .     A
C98    C100    1.416   .     S
C98    O120    1.293   .     A
C100   C193    1.332   .     S
C100   H206    1.085   .     S
C101   C106    1.400   .     A
C101   O125    1.384   .     S
C101   C667    1.395   1_545 S
C102   O133    1.381   .     S
C102   C105    1.407   .     A
C102   C386    1.382   .     S
C103   C105    1.406   .     A
C103   O141    1.379   .     S
C103   C383    1.395   .     S
C104   O149    1.375   .     S
C104   C106    1.402   .     A
C104   C666    1.382   1_545 S
C107   O157    1.382   .     S
C107   N114    1.374   .     A
C107   C1801   1.442   1_554 S
C108   O165    1.388   .     S
C108   N113    1.370   .     A
C108   C956    1.449   .     S
C109   N113    1.381   .     A
C109   O173    1.388   .     S
C109   C953    1.442   .     S
C110   O181    1.378   .     S
C110   N114    1.371   .     A
C110   C1800   1.449   1_554 S
H111   C193    1.080   .     S
N113   Zn123   2.037   .     S
N114   Zn124   2.037   .     S
O115   Zn123   2.032   .     S
O116   Zn124   2.032   .     S
O117   Zn124   2.016   .     S
O118   Zn123   2.016   .     S
O119   Zn123   1.985   .     S
O120   Zn124   1.985   .     S
O121   Zn124   1.992   .     S
O122   Zn123   1.992   .     S
O125   C126    1.418   .     S
C126   H128    1.119   .     S
C126   C129    1.524   .     S
C126   H127    1.105   .     S
C129   H132    1.108   .     S
C129   H694    1.109   1_545 S
H130   C411    1.109   .     S
H131   C223    1.110   .     S
O133   C134    1.419   .     S
C134   H136    1.106   .     S
C134   C137    1.516   .     S
C134   H135    1.117   .     S
C137   H138    1.103   .     S
C137   H139    1.105   .     S
C137   H140    1.102   .     S
O141   C142    1.413   .     S
C142   C145    1.505   .     S
C142   H143    1.103   .     S
C142   H426    1.109   .     S
H144   C706    1.109   1_545 S
C145   H148    1.103   .     S
C145   H1838   1.110   1_554 S
C145   H1839   1.102   1_554 S
H146   C991    1.110   .     S
H147   C991    1.102   .     S
O149   C150    1.408   .     S
C150   H151    1.115   .     S
C150   C153    1.516   .     S
C150   H152    1.106   .     S
C153   H154    1.108   .     S
C153   H155    1.109   .     S
C153   H156    1.105   .     S
O157   C158    1.408   .     S
C158   C161    1.524   .     S
C158   H159    1.095   .     S
C158   H160    1.097   .     S
C161   H162    1.109   .     S
C161   H164    1.106   .     S
C161   H257    1.110   .     S
O165   C166    1.412   .     S
C166   H168    1.106   .     S
C166   C169    1.520   .     S
C166   H167    1.100   .     S
C169   H172    1.109   .     S
C169   H170    1.111   .     S
C169   H171    1.109   .     S
O173   C174    1.413   .     S
C174   C177    1.533   .     S
C174   H175    1.107   .     S
C174   H176    1.109   .     S
C177   H178    1.108   .     S
C177   H179    1.105   .     S
C177   H180    1.110   .     S
O181   C182    1.422   .     S
C182   H184    1.107   .     S
C182   H1875   1.115   1_554 S
H183   C1028   1.115   .     S
C185   H186    1.108   .     S
C185   H187    1.101   .     S
C185   C276    1.516   .     S
C185   H1880   1.107   1_554 S
H188   C1031   1.107   .     S
C189   O209    1.298   .     A
C189   C200    1.445   .     S
C189   O211    1.301   .     A
C190   O210    1.301   .     A
C190   C199    1.455   .     S
C190   O212    1.302   .     A
C191   O213    1.286   .     A
C191   C193    1.417   .     S
C191   O215    1.299   .     A
C192   O216    1.293   .     A
C192   C194    1.416   .     S
C192   O214    1.293   .     A
C194   C5      1.332   1_655 S
C194   H18     1.085   1_655 S
C195   C200    1.400   .     A
C195   O219    1.384   .     S
C195   C761    1.395   1_545 S
C196   O227    1.381   .     S
C196   C199    1.407   .     A
C196   C480    1.382   .     S
C197   C199    1.406   .     A
C197   O235    1.379   .     S
C197   C477    1.395   .     S
C198   O243    1.375   .     S
C198   C200    1.402   .     A
C198   C760    1.382   1_545 S
C201   O251    1.382   .     S
C201   N208    1.374   .     A
C201   C1895   1.442   1_554 S
C202   O259    1.388   .     S
C202   N207    1.370   .     A
C202   C1050   1.449   .     S
C203   N207    1.381   .     A
C203   O267    1.388   .     S
C203   C1047   1.442   .     S
C204   O275    1.378   .     S
C204   N208    1.371   .     A
C204   C1894   1.449   1_554 S
H205   C5      1.080   1_655 S
N207   Zn217   2.037   .     S
N208   Zn218   2.037   .     S
O209   Zn217   2.032   .     S
O210   Zn218   2.032   .     S
O211   Zn218   2.016   .     S
O212   Zn217   2.016   .     S
O213   Zn217   1.985   .     S
O214   Zn218   1.985   .     S
O215   Zn218   1.992   .     S
O216   Zn217   1.992   .     S
O219   C220    1.418   .     S
C220   H222    1.119   .     S
C220   C223    1.524   .     S
C220   H221    1.105   .     S
C223   H226    1.108   .     S
C223   H788    1.109   1_545 S
H224   C505    1.109   .     S
H225   C35     1.110   1_655 S
O227   C228    1.419   .     S
C228   H230    1.106   .     S
C228   C231    1.516   .     S
C228   H229    1.117   .     S
C231   H232    1.103   .     S
C231   H233    1.105   .     S
C231   H234    1.102   .     S
O235   C236    1.413   .     S
C236   C239    1.505   .     S
C236   H237    1.103   .     S
C236   H520    1.109   .     S
H238   C800    1.109   1_545 S
C239   H242    1.103   .     S
C239   H1932   1.110   1_554 S
C239   H1933   1.102   1_554 S
H240   C1085   1.110   .     S
H241   C1085   1.102   .     S
O243   C244    1.408   .     S
C244   H245    1.115   .     S
C244   C247    1.516   .     S
C244   H246    1.106   .     S
C247   H248    1.108   .     S
C247   H249    1.109   .     S
C247   H250    1.105   .     S
O251   C252    1.408   .     S
C252   C255    1.524   .     S
C252   H253    1.095   .     S
C252   H254    1.097   .     S
C255   H256    1.109   .     S
C255   H258    1.106   .     S
C255   H69     1.110   1_655 S
O259   C260    1.412   .     S
C260   H262    1.106   .     S
C260   C263    1.520   .     S
C260   H261    1.100   .     S
C263   H266    1.109   .     S
C263   H264    1.111   .     S
C263   H265    1.109   .     S
O267   C268    1.413   .     S
C268   C271    1.533   .     S
C268   H269    1.107   .     S
C268   H270    1.109   .     S
C271   H272    1.108   .     S
C271   H273    1.105   .     S
C271   H274    1.110   .     S
O275   C276    1.422   .     S
C276   H278    1.107   .     S
C276   H1969   1.115   1_554 S
H277   C1122   1.115   .     S
C279   H280    1.108   .     S
C279   H281    1.101   .     S
C279   C88     1.516   1_655 S
C279   H1974   1.107   1_554 S
H282   C1125   1.107   .     S
C283   O303    1.298   .     A
C283   C294    1.445   .     S
C283   O305    1.301   .     A
C284   O304    1.301   .     A
C284   C293    1.455   .     S
C284   O306    1.302   .     A
C285   O307    1.286   .     A
C285   C287    1.417   .     S
C285   O309    1.299   .     A
C286   O310    1.293   .     A
C286   C288    1.416   .     S
C286   O308    1.293   .     A
C287   C476    1.332   1_455 S
C287   H487    1.080   1_455 S
C288   C381    1.332   .     S
C288   H394    1.085   .     S
C289   C294    1.400   .     A
C289   O313    1.384   .     S
C290   O321    1.381   .     S
C290   C293    1.407   .     A
C290   C574    1.382   .     S
C291   C293    1.406   .     A
C291   O329    1.379   .     S
C291   C571    1.395   .     S
C292   O337    1.375   .     S
C292   C294    1.402   .     A
C295   O345    1.382   .     S
C295   N302    1.374   .     A
C295   C1989   1.442   1_554 S
C296   O353    1.388   .     S
C296   N301    1.370   .     A
C296   C1144   1.449   .     S
C297   N301    1.381   .     A
C297   O361    1.388   .     S
C297   C1141   1.442   .     S
C298   O369    1.378   .     S
C298   N302    1.371   .     A
C298   C1988   1.449   1_554 S
H299   C381    1.080   .     S
H300   C476    1.085   1_455 S
N301   Zn311   2.037   .     S
N302   Zn312   2.037   .     S
O303   Zn311   2.032   .     S
O304   Zn312   2.032   .     S
O305   Zn312   2.016   .     S
O306   Zn311   2.016   .     S
O307   Zn311   1.985   .     S
O308   Zn312   1.985   .     S
O309   Zn312   1.992   .     S
O310   Zn311   1.992   .     S
O313   C314    1.418   .     S
C314   H316    1.119   .     S
C314   C317    1.524   .     S
C314   H315    1.105   .     S
C317   H320    1.108   .     S
C317   H507    1.110   1_455 S
H318   C599    1.109   .     S
H319   C411    1.110   .     S
O321   C322    1.419   .     S
C322   H324    1.106   .     S
C322   C325    1.516   .     S
C322   H323    1.117   .     S
C325   H326    1.103   .     S
C325   H327    1.105   .     S
C325   H328    1.102   .     S
O329   C330    1.413   .     S
C330   C333    1.505   .     S
C330   H331    1.103   .     S
C330   H614    1.109   .     S
C333   H336    1.103   .     S
C333   H2026   1.110   1_554 S
C333   H2027   1.102   1_554 S
H334   C1179   1.110   .     S
H335   C1179   1.102   .     S
O337   C338    1.408   .     S
C338   H339    1.115   .     S
C338   C341    1.516   .     S
C338   H340    1.106   .     S
C341   H342    1.108   .     S
C341   H343    1.109   .     S
C341   H344    1.105   .     S
O345   C346    1.408   .     S
C346   C349    1.524   .     S
C346   H347    1.095   .     S
C346   H348    1.097   .     S
C349   H350    1.109   .     S
C349   H352    1.106   .     S
C349   H445    1.110   .     S
H351   C537    1.110   1_455 S
O353   C354    1.412   .     S
C354   H356    1.106   .     S
C354   C357    1.520   .     S
C354   H355    1.100   .     S
C357   H360    1.109   .     S
C357   H358    1.111   .     S
C357   H359    1.109   .     S
O361   C362    1.413   .     S
C362   C365    1.533   .     S
C362   H363    1.107   .     S
C362   H364    1.109   .     S
C365   H366    1.108   .     S
C365   H367    1.105   .     S
C365   H368    1.110   .     S
O369   C370    1.422   .     S
C370   H372    1.107   .     S
C370   H2063   1.115   1_554 S
C370   C561    1.516   1_455 S
H371   C1216   1.115   .     S
C373   H374    1.108   .     S
C373   H375    1.101   .     S
C373   C464    1.516   .     S
C373   H2068   1.107   1_554 S
H376   C1219   1.107   .     S
C377   O397    1.298   .     A
C377   C388    1.445   .     S
C377   O399    1.301   .     A
C378   O398    1.301   .     A
C378   C387    1.455   .     S
C378   O400    1.302   .     A
C379   O401    1.286   .     A
C379   C381    1.417   .     S
C379   O403    1.299   .     A
C380   O404    1.293   .     A
C380   C382    1.416   .     S
C380   O402    1.293   .     A
C382   C475    1.332   .     S
C382   H488    1.085   .     S
C383   C388    1.400   .     A
C383   O407    1.384   .     S
C384   O415    1.381   .     S
C384   C387    1.407   .     A
C384   C668    1.382   .     S
C385   C387    1.406   .     A
C385   O423    1.379   .     S
C385   C665    1.395   .     S
C386   O431    1.375   .     S
C386   C388    1.402   .     A
C389   O439    1.382   .     S
C389   N396    1.374   .     A
C389   C2083   1.442   1_554 S
C390   O447    1.388   .     S
C390   N395    1.370   .     A
C390   C1238   1.449   .     S
C391   N395    1.381   .     A
C391   O455    1.388   .     S
C391   C1235   1.442   .     S
C392   O463    1.378   .     S
C392   N396    1.371   .     A
C392   C2082   1.449   1_554 S
H393   C475    1.080   .     S
N395   Zn405   2.037   .     S
N396   Zn406   2.037   .     S
O397   Zn405   2.032   .     S
O398   Zn406   2.032   .     S
O399   Zn406   2.016   .     S
O400   Zn405   2.016   .     S
O401   Zn405   1.985   .     S
O402   Zn406   1.985   .     S
O403   Zn406   1.992   .     S
O404   Zn405   1.992   .     S
O407   C408    1.418   .     S
C408   H410    1.119   .     S
C408   C411    1.524   .     S
C408   H409    1.105   .     S
C411   H414    1.108   .     S
H412   C693    1.109   .     S
H413   C505    1.110   .     S
O415   C416    1.419   .     S
C416   H418    1.106   .     S
C416   C419    1.516   .     S
C416   H417    1.117   .     S
C419   H420    1.103   .     S
C419   H421    1.105   .     S
C419   H422    1.102   .     S
O423   C424    1.413   .     S
C424   C427    1.505   .     S
C424   H425    1.103   .     S
C424   H708    1.109   .     S
C427   H430    1.103   .     S
C427   H2120   1.110   1_554 S
C427   H2121   1.102   1_554 S
H428   C1273   1.110   .     S
H429   C1273   1.102   .     S
O431   C432    1.408   .     S
C432   H433    1.115   .     S
C432   C435    1.516   .     S
C432   H434    1.106   .     S
C435   H436    1.108   .     S
C435   H437    1.109   .     S
C435   H438    1.105   .     S
O439   C440    1.408   .     S
C440   C443    1.524   .     S
C440   H441    1.095   .     S
C440   H442    1.097   .     S
C443   H444    1.109   .     S
C443   H446    1.106   .     S
C443   H539    1.110   .     S
O447   C448    1.412   .     S
C448   H450    1.106   .     S
C448   C451    1.520   .     S
C448   H449    1.100   .     S
C451   H454    1.109   .     S
C451   H452    1.111   .     S
C451   H453    1.109   .     S
O455   C456    1.413   .     S
C456   C459    1.533   .     S
C456   H457    1.107   .     S
C456   H458    1.109   .     S
C459   H460    1.108   .     S
C459   H461    1.105   .     S
C459   H462    1.110   .     S
O463   C464    1.422   .     S
C464   H466    1.107   .     S
C464   H2157   1.115   1_554 S
H465   C1310   1.115   .     S
C467   H468    1.108   .     S
C467   H469    1.101   .     S
C467   C558    1.516   .     S
C467   H2162   1.107   1_554 S
H470   C1313   1.107   .     S
C471   O491    1.298   .     A
C471   C482    1.445   .     S
C471   O493    1.301   .     A
C472   O492    1.301   .     A
C472   C481    1.455   .     S
C472   O494    1.302   .     A
C473   O495    1.286   .     A
C473   C475    1.417   .     S
C473   O497    1.299   .     A
C474   O498    1.293   .     A
C474   C476    1.416   .     S
C474   O496    1.293   .     A
C476   C287    1.332   1_655 S
C476   H300    1.085   1_655 S
C477   C482    1.400   .     A
C477   O501    1.384   .     S
C478   O509    1.381   .     S
C478   C481    1.407   .     A
C478   C762    1.382   .     S
C479   C481    1.406   .     A
C479   O517    1.379   .     S
C479   C759    1.395   .     S
C480   O525    1.375   .     S
C480   C482    1.402   .     A
C483   O533    1.382   .     S
C483   N490    1.374   .     A
C483   C2177   1.442   1_554 S
C484   O541    1.388   .     S
C484   N489    1.370   .     A
C484   C1332   1.449   .     S
C485   N489    1.381   .     A
C485   O549    1.388   .     S
C485   C1329   1.442   .     S
C486   O557    1.378   .     S
C486   N490    1.371   .     A
C486   C2176   1.449   1_554 S
H487   C287    1.080   1_655 S
N489   Zn499   2.037   .     S
N490   Zn500   2.037   .     S
O491   Zn499   2.032   .     S
O492   Zn500   2.032   .     S
O493   Zn500   2.016   .     S
O494   Zn499   2.016   .     S
O495   Zn499   1.985   .     S
O496   Zn500   1.985   .     S
O497   Zn500   1.992   .     S
O498   Zn499   1.992   .     S
O501   C502    1.418   .     S
C502   H504    1.119   .     S
C502   C505    1.524   .     S
C502   H503    1.105   .     S
C505   H508    1.108   .     S
H506   C787    1.109   .     S
H507   C317    1.110   1_655 S
O509   C510    1.419   .     S
C510   H512    1.106   .     S
C510   C513    1.516   .     S
C510   H511    1.117   .     S
C513   H514    1.103   .     S
C513   H515    1.105   .     S
C513   H516    1.102   .     S
O517   C518    1.413   .     S
C518   C521    1.505   .     S
C518   H519    1.103   .     S
C518   H802    1.109   .     S
C521   H524    1.103   .     S
C521   H2214   1.110   1_554 S
C521   H2215   1.102   1_554 S
H522   C1367   1.110   .     S
H523   C1367   1.102   .     S
O525   C526    1.408   .     S
C526   H527    1.115   .     S
C526   C529    1.516   .     S
C526   H528    1.106   .     S
C529   H530    1.108   .     S
C529   H531    1.109   .     S
C529   H532    1.105   .     S
O533   C534    1.408   .     S
C534   C537    1.524   .     S
C534   H535    1.095   .     S
C534   H536    1.097   .     S
C537   H538    1.109   .     S
C537   H540    1.106   .     S
C537   H351    1.110   1_655 S
O541   C542    1.412   .     S
C542   H544    1.106   .     S
C542   C545    1.520   .     S
C542   H543    1.100   .     S
C545   H548    1.109   .     S
C545   H546    1.111   .     S
C545   H547    1.109   .     S
O549   C550    1.413   .     S
C550   C553    1.533   .     S
C550   H551    1.107   .     S
C550   H552    1.109   .     S
C553   H554    1.108   .     S
C553   H555    1.105   .     S
C553   H556    1.110   .     S
O557   C558    1.422   .     S
C558   H560    1.107   .     S
C558   H2251   1.115   1_554 S
H559   C1404   1.115   .     S
C561   H562    1.108   .     S
C561   H563    1.101   .     S
C561   C370    1.516   1_655 S
C561   H2256   1.107   1_554 S
H564   C1407   1.107   .     S
C565   O585    1.298   .     A
C565   C576    1.445   .     S
C565   O587    1.301   .     A
C566   O586    1.301   .     A
C566   C575    1.455   .     S
C566   O588    1.302   .     A
C567   O589    1.286   .     A
C567   C569    1.417   .     S
C567   O591    1.299   .     A
C568   O592    1.293   .     A
C568   C570    1.416   .     S
C568   O590    1.293   .     A
C569   C758    1.332   1_455 S
C569   H769    1.080   1_455 S
C570   C663    1.332   .     S
C570   H676    1.085   .     S
C571   C576    1.400   .     A
C571   O595    1.384   .     S
C572   O603    1.381   .     S
C572   C575    1.407   .     A
C572   C10     1.382   1_565 S
C573   C575    1.406   .     A
C573   O611    1.379   .     S
C573   C7      1.395   1_565 S
C574   O619    1.375   .     S
C574   C576    1.402   .     A
C577   O627    1.382   .     S
C577   N584    1.374   .     A
C577   C2271   1.442   1_554 S
C578   O635    1.388   .     S
C578   N583    1.370   .     A
C578   C1426   1.449   .     S
C579   N583    1.381   .     A
C579   O643    1.388   .     S
C579   C1423   1.442   .     S
C580   O651    1.378   .     S
C580   N584    1.371   .     A
C580   C2270   1.449   1_554 S
H581   C663    1.080   .     S
H582   C758    1.085   1_455 S
N583   Zn593   2.037   .     S
N584   Zn594   2.037   .     S
O585   Zn593   2.032   .     S
O586   Zn594   2.032   .     S
O587   Zn594   2.016   .     S
O588   Zn593   2.016   .     S
O589   Zn593   1.985   .     S
O590   Zn594   1.985   .     S
O591   Zn594   1.992   .     S
O592   Zn593   1.992   .     S
O595   C596    1.418   .     S
C596   H598    1.119   .     S
C596   C599    1.524   .     S
C596   H597    1.105   .     S
C599   H602    1.108   .     S
C599   H789    1.110   1_455 S
H600   C35     1.109   1_565 S
H601   C693    1.110   .     S
O603   C604    1.419   .     S
C604   H606    1.106   .     S
C604   C607    1.516   .     S
C604   H605    1.117   .     S
C607   H608    1.103   .     S
C607   H609    1.105   .     S
C607   H610    1.102   .     S
O611   C612    1.413   .     S
C612   C615    1.505   .     S
C612   H613    1.103   .     S
C612   H50     1.109   1_565 S
C615   H618    1.103   .     S
C615   H2308   1.110   1_554 S
C615   H2309   1.102   1_554 S
H616   C1461   1.110   .     S
H617   C1461   1.102   .     S
O619   C620    1.408   .     S
C620   H621    1.115   .     S
C620   C623    1.516   .     S
C620   H622    1.106   .     S
C623   H624    1.108   .     S
C623   H625    1.109   .     S
C623   H626    1.105   .     S
O627   C628    1.408   .     S
C628   C631    1.524   .     S
C628   H629    1.095   .     S
C628   H630    1.097   .     S
C631   H632    1.109   .     S
C631   H634    1.106   .     S
C631   H727    1.110   .     S
H633   C819    1.110   1_455 S
O635   C636    1.412   .     S
C636   H638    1.106   .     S
C636   C639    1.520   .     S
C636   H637    1.100   .     S
C639   H642    1.109   .     S
C639   H640    1.111   .     S
C639   H641    1.109   .     S
O643   C644    1.413   .     S
C644   C647    1.533   .     S
C644   H645    1.107   .     S
C644   H646    1.109   .     S
C647   H648    1.108   .     S
C647   H649    1.105   .     S
C647   H650    1.110   .     S
O651   C652    1.422   .     S
C652   H654    1.107   .     S
C652   H2345   1.115   1_554 S
C652   C843    1.516   1_455 S
H653   C1498   1.115   .     S
C655   H656    1.108   .     S
C655   H657    1.101   .     S
C655   C746    1.516   .     S
C655   H2350   1.107   1_554 S
H658   C1501   1.107   .     S
C659   O679    1.298   .     A
C659   C670    1.445   .     S
C659   O681    1.301   .     A
C660   O680    1.301   .     A
C660   C669    1.455   .     S
C660   O682    1.302   .     A
C661   O683    1.286   .     A
C661   C663    1.417   .     S
C661   O685    1.299   .     A
C662   O686    1.293   .     A
C662   C664    1.416   .     S
C662   O684    1.293   .     A
C664   C757    1.332   .     S
C664   H770    1.085   .     S
C665   C670    1.400   .     A
C665   O689    1.384   .     S
C666   O697    1.381   .     S
C666   C669    1.407   .     A
C666   C104    1.382   1_565 S
C667   C669    1.406   .     A
C667   O705    1.379   .     S
C667   C101    1.395   1_565 S
C668   O713    1.375   .     S
C668   C670    1.402   .     A
C671   O721    1.382   .     S
C671   N678    1.374   .     A
C671   C2365   1.442   1_554 S
C672   O729    1.388   .     S
C672   N677    1.370   .     A
C672   C1520   1.449   .     S
C673   N677    1.381   .     A
C673   O737    1.388   .     S
C673   C1517   1.442   .     S
C674   O745    1.378   .     S
C674   N678    1.371   .     A
C674   C2364   1.449   1_554 S
H675   C757    1.080   .     S
N677   Zn687   2.037   .     S
N678   Zn688   2.037   .     S
O679   Zn687   2.032   .     S
O680   Zn688   2.032   .     S
O681   Zn688   2.016   .     S
O682   Zn687   2.016   .     S
O683   Zn687   1.985   .     S
O684   Zn688   1.985   .     S
O685   Zn688   1.992   .     S
O686   Zn687   1.992   .     S
O689   C690    1.418   .     S
C690   H692    1.119   .     S
C690   C693    1.524   .     S
C690   H691    1.105   .     S
C693   H696    1.108   .     S
H694   C129    1.109   1_565 S
H695   C787    1.110   .     S
O697   C698    1.419   .     S
C698   H700    1.106   .     S
C698   C701    1.516   .     S
C698   H699    1.117   .     S
C701   H702    1.103   .     S
C701   H703    1.105   .     S
C701   H704    1.102   .     S
O705   C706    1.413   .     S
C706   C709    1.505   .     S
C706   H707    1.103   .     S
C706   H144    1.109   1_565 S
C709   H712    1.103   .     S
C709   H2402   1.110   1_554 S
C709   H2403   1.102   1_554 S
H710   C1555   1.110   .     S
H711   C1555   1.102   .     S
O713   C714    1.408   .     S
C714   H715    1.115   .     S
C714   C717    1.516   .     S
C714   H716    1.106   .     S
C717   H718    1.108   .     S
C717   H719    1.109   .     S
C717   H720    1.105   .     S
O721   C722    1.408   .     S
C722   C725    1.524   .     S
C722   H723    1.095   .     S
C722   H724    1.097   .     S
C725   H726    1.109   .     S
C725   H728    1.106   .     S
C725   H821    1.110   .     S
O729   C730    1.412   .     S
C730   H732    1.106   .     S
C730   C733    1.520   .     S
C730   H731    1.100   .     S
C733   H736    1.109   .     S
C733   H734    1.111   .     S
C733   H735    1.109   .     S
O737   C738    1.413   .     S
C738   C741    1.533   .     S
C738   H739    1.107   .     S
C738   H740    1.109   .     S
C741   H742    1.108   .     S
C741   H743    1.105   .     S
C741   H744    1.110   .     S
O745   C746    1.422   .     S
C746   H748    1.107   .     S
C746   H2439   1.115   1_554 S
H747   C1592   1.115   .     S
C749   H750    1.108   .     S
C749   H751    1.101   .     S
C749   C840    1.516   .     S
C749   H2444   1.107   1_554 S
H752   C1595   1.107   .     S
C753   O773    1.298   .     A
C753   C764    1.445   .     S
C753   O775    1.301   .     A
C754   O774    1.301   .     A
C754   C763    1.455   .     S
C754   O776    1.302   .     A
C755   O777    1.286   .     A
C755   C757    1.417   .     S
C755   O779    1.299   .     A
C756   O780    1.293   .     A
C756   C758    1.416   .     S
C756   O778    1.293   .     A
C758   C569    1.332   1_655 S
C758   H582    1.085   1_655 S
C759   C764    1.400   .     A
C759   O783    1.384   .     S
C760   O791    1.381   .     S
C760   C763    1.407   .     A
C760   C198    1.382   1_565 S
C761   C763    1.406   .     A
C761   O799    1.379   .     S
C761   C195    1.395   1_565 S
C762   O807    1.375   .     S
C762   C764    1.402   .     A
C765   O815    1.382   .     S
C765   N772    1.374   .     A
C765   C2459   1.442   1_554 S
C766   O823    1.388   .     S
C766   N771    1.370   .     A
C766   C1614   1.449   .     S
C767   N771    1.381   .     A
C767   O831    1.388   .     S
C767   C1611   1.442   .     S
C768   O839    1.378   .     S
C768   N772    1.371   .     A
C768   C2458   1.449   1_554 S
H769   C569    1.080   1_655 S
N771   Zn781   2.037   .     S
N772   Zn782   2.037   .     S
O773   Zn781   2.032   .     S
O774   Zn782   2.032   .     S
O775   Zn782   2.016   .     S
O776   Zn781   2.016   .     S
O777   Zn781   1.985   .     S
O778   Zn782   1.985   .     S
O779   Zn782   1.992   .     S
O780   Zn781   1.992   .     S
O783   C784    1.418   .     S
C784   H786    1.119   .     S
C784   C787    1.524   .     S
C784   H785    1.105   .     S
C787   H790    1.108   .     S
H788   C223    1.109   1_565 S
H789   C599    1.110   1_655 S
O791   C792    1.419   .     S
C792   H794    1.106   .     S
C792   C795    1.516   .     S
C792   H793    1.117   .     S
C795   H796    1.103   .     S
C795   H797    1.105   .     S
C795   H798    1.102   .     S
O799   C800    1.413   .     S
C800   C803    1.505   .     S
C800   H801    1.103   .     S
C800   H238    1.109   1_565 S
C803   H806    1.103   .     S
C803   H2496   1.110   1_554 S
C803   H2497   1.102   1_554 S
H804   C1649   1.110   .     S
H805   C1649   1.102   .     S
O807   C808    1.408   .     S
C808   H809    1.115   .     S
C808   C811    1.516   .     S
C808   H810    1.106   .     S
C811   H812    1.108   .     S
C811   H813    1.109   .     S
C811   H814    1.105   .     S
O815   C816    1.408   .     S
C816   C819    1.524   .     S
C816   H817    1.095   .     S
C816   H818    1.097   .     S
C819   H820    1.109   .     S
C819   H822    1.106   .     S
C819   H633    1.110   1_655 S
O823   C824    1.412   .     S
C824   H826    1.106   .     S
C824   C827    1.520   .     S
C824   H825    1.100   .     S
C827   H830    1.109   .     S
C827   H828    1.111   .     S
C827   H829    1.109   .     S
O831   C832    1.413   .     S
C832   C835    1.533   .     S
C832   H833    1.107   .     S
C832   H834    1.109   .     S
C835   H836    1.108   .     S
C835   H837    1.105   .     S
C835   H838    1.110   .     S
O839   C840    1.422   .     S
C840   H842    1.107   .     S
C840   H2533   1.115   1_554 S
H841   C1686   1.115   .     S
C843   H844    1.108   .     S
C843   H845    1.101   .     S
C843   C652    1.516   1_655 S
C843   H2538   1.107   1_554 S
H846   C1689   1.107   .     S
C847   O867    1.298   .     A
C847   C858    1.445   .     S
C847   O869    1.301   .     A
C848   O868    1.301   .     A
C848   C857    1.455   .     S
C848   O870    1.302   .     A
C849   O871    1.286   .     A
C849   C851    1.417   .     S
C849   O873    1.299   .     A
C850   O874    1.293   .     A
C850   C852    1.416   .     S
C850   O872    1.293   .     A
C851   C1040   1.332   1_455 S
C851   H1051   1.080   1_455 S
C852   C945    1.332   .     S
C852   H958    1.085   .     S
C853   C858    1.400   .     A
C853   O877    1.384   .     S
C853   C1419   1.395   1_545 S
C854   O885    1.381   .     S
C854   C857    1.407   .     A
C854   C1138   1.382   .     S
C855   C857    1.406   .     A
C855   O893    1.379   .     S
C855   C1135   1.395   .     S
C856   O901    1.375   .     S
C856   C858    1.402   .     A
C856   C1418   1.382   1_545 S
C859   O909    1.382   .     S
C859   N866    1.374   .     A
C860   O917    1.388   .     S
C860   N865    1.370   .     A
C860   C1708   1.449   .     S
C861   N865    1.381   .     A
C861   O925    1.388   .     S
C861   C1705   1.442   .     S
C862   O933    1.378   .     S
C862   N866    1.371   .     A
H863   C945    1.080   .     S
H864   C1040   1.085   1_455 S
N865   Zn875   2.037   .     S
N866   Zn876   2.037   .     S
O867   Zn875   2.032   .     S
O868   Zn876   2.032   .     S
O869   Zn876   2.016   .     S
O870   Zn875   2.016   .     S
O871   Zn875   1.985   .     S
O872   Zn876   1.985   .     S
O873   Zn876   1.992   .     S
O874   Zn875   1.992   .     S
O877   C878    1.418   .     S
C878   H880    1.119   .     S
C878   C881    1.524   .     S
C878   H879    1.105   .     S
C881   H884    1.108   .     S
C881   H1446   1.109   1_545 S
C881   H1071   1.110   1_455 S
H882   C1163   1.109   .     S
H883   C975    1.110   .     S
O885   C886    1.419   .     S
C886   H888    1.106   .     S
C886   C889    1.516   .     S
C886   H887    1.117   .     S
C889   H890    1.103   .     S
C889   H891    1.105   .     S
C889   H892    1.102   .     S
O893   C894    1.413   .     S
C894   C897    1.505   .     S
C894   H895    1.103   .     S
C894   H1178   1.109   .     S
H896   C1458   1.109   1_545 S
C897   H900    1.103   .     S
H898   C1743   1.110   .     S
H899   C1743   1.102   .     S
O901   C902    1.408   .     S
C902   H903    1.115   .     S
C902   C905    1.516   .     S
C902   H904    1.106   .     S
C905   H906    1.108   .     S
C905   H907    1.109   .     S
C905   H908    1.105   .     S
O909   C910    1.408   .     S
C910   C913    1.524   .     S
C910   H911    1.095   .     S
C910   H912    1.097   .     S
C913   H914    1.109   .     S
C913   H916    1.106   .     S
C913   H1009   1.110   .     S
H915   C1101   1.110   1_455 S
O917   C918    1.412   .     S
C918   H920    1.106   .     S
C918   C921    1.520   .     S
C918   H919    1.100   .     S
C921   H924    1.109   .     S
C921   H922    1.111   .     S
C921   H923    1.109   .     S
O925   C926    1.413   .     S
C926   C929    1.533   .     S
C926   H927    1.107   .     S
C926   H928    1.109   .     S
C929   H930    1.108   .     S
C929   H931    1.105   .     S
C929   H932    1.110   .     S
O933   C934    1.422   .     S
C934   H936    1.107   .     S
C934   C1125   1.516   1_455 S
H935   C1780   1.115   .     S
C937   H938    1.108   .     S
C937   H939    1.101   .     S
C937   C1028   1.516   .     S
H940   C1783   1.107   .     S
C941   O961    1.298   .     A
C941   C952    1.445   .     S
C941   O963    1.301   .     A
C942   O962    1.301   .     A
C942   C951    1.455   .     S
C942   O964    1.302   .     A
C943   O965    1.286   .     A
C943   C945    1.417   .     S
C943   O967    1.299   .     A
C944   O968    1.293   .     A
C944   C946    1.416   .     S
C944   O966    1.293   .     A
C946   C1039   1.332   .     S
C946   H1052   1.085   .     S
C947   C952    1.400   .     A
C947   O971    1.384   .     S
C947   C1513   1.395   1_545 S
C948   O979    1.381   .     S
C948   C951    1.407   .     A
C948   C1232   1.382   .     S
C949   C951    1.406   .     A
C949   O987    1.379   .     S
C949   C1229   1.395   .     S
C950   O995    1.375   .     S
C950   C952    1.402   .     A
C950   C1512   1.382   1_545 S
C953   O1003   1.382   .     S
C953   N960    1.374   .     A
C954   O1011   1.388   .     S
C954   N959    1.370   .     A
C954   C1802   1.449   .     S
C955   N959    1.381   .     A
C955   O1019   1.388   .     S
C955   C1799   1.442   .     S
C956   O1027   1.378   .     S
C956   N960    1.371   .     A
H957   C1039   1.080   .     S
N959   Zn969   2.037   .     S
N960   Zn970   2.037   .     S
O961   Zn969   2.032   .     S
O962   Zn970   2.032   .     S
O963   Zn970   2.016   .     S
O964   Zn969   2.016   .     S
O965   Zn969   1.985   .     S
O966   Zn970   1.985   .     S
O967   Zn970   1.992   .     S
O968   Zn969   1.992   .     S
O971   C972    1.418   .     S
C972   H974    1.119   .     S
C972   C975    1.524   .     S
C972   H973    1.105   .     S
C975   H978    1.108   .     S
C975   H1540   1.109   1_545 S
H976   C1257   1.109   .     S
H977   C1069   1.110   .     S
O979   C980    1.419   .     S
C980   H982    1.106   .     S
C980   C983    1.516   .     S
C980   H981    1.117   .     S
C983   H984    1.103   .     S
C983   H985    1.105   .     S
C983   H986    1.102   .     S
O987   C988    1.413   .     S
C988   C991    1.505   .     S
C988   H989    1.103   .     S
C988   H1272   1.109   .     S
H990   C1552   1.109   1_545 S
C991   H994    1.103   .     S
H992   C1837   1.110   .     S
H993   C1837   1.102   .     S
O995   C996    1.408   .     S
C996   H997    1.115   .     S
C996   C999    1.516   .     S
C996   H998    1.106   .     S
C999   H1000   1.108   .     S
C999   H1001   1.109   .     S
C999   H1002   1.105   .     S
O1003  C1004   1.408   .     S
C1004  C1007   1.524   .     S
C1004  H1005   1.095   .     S
C1004  H1006   1.097   .     S
C1007  H1008   1.109   .     S
C1007  H1010   1.106   .     S
C1007  H1103   1.110   .     S
O1011  C1012   1.412   .     S
C1012  H1014   1.106   .     S
C1012  C1015   1.520   .     S
C1012  H1013   1.100   .     S
C1015  H1018   1.109   .     S
C1015  H1016   1.111   .     S
C1015  H1017   1.109   .     S
O1019  C1020   1.413   .     S
C1020  C1023   1.533   .     S
C1020  H1021   1.107   .     S
C1020  H1022   1.109   .     S
C1023  H1024   1.108   .     S
C1023  H1025   1.105   .     S
C1023  H1026   1.110   .     S
O1027  C1028   1.422   .     S
C1028  H1030   1.107   .     S
H1029  C1874   1.115   .     S
C1031  H1032   1.108   .     S
C1031  H1033   1.101   .     S
C1031  C1122   1.516   .     S
H1034  C1877   1.107   .     S
C1035  O1055   1.298   .     A
C1035  C1046   1.445   .     S
C1035  O1057   1.301   .     A
C1036  O1056   1.301   .     A
C1036  C1045   1.455   .     S
C1036  O1058   1.302   .     A
C1037  O1059   1.286   .     A
C1037  C1039   1.417   .     S
C1037  O1061   1.299   .     A
C1038  O1062   1.293   .     A
C1038  C1040   1.416   .     S
C1038  O1060   1.293   .     A
C1040  C851    1.332   1_655 S
C1040  H864    1.085   1_655 S
C1041  C1046   1.400   .     A
C1041  O1065   1.384   .     S
C1041  C1607   1.395   1_545 S
C1042  O1073   1.381   .     S
C1042  C1045   1.407   .     A
C1042  C1326   1.382   .     S
C1043  C1045   1.406   .     A
C1043  O1081   1.379   .     S
C1043  C1323   1.395   .     S
C1044  O1089   1.375   .     S
C1044  C1046   1.402   .     A
C1044  C1606   1.382   1_545 S
C1047  O1097   1.382   .     S
C1047  N1054   1.374   .     A
C1048  O1105   1.388   .     S
C1048  N1053   1.370   .     A
C1048  C1896   1.449   .     S
C1049  N1053   1.381   .     A
C1049  O1113   1.388   .     S
C1049  C1893   1.442   .     S
C1050  O1121   1.378   .     S
C1050  N1054   1.371   .     A
H1051  C851    1.080   1_655 S
N1053  Zn1063  2.037   .     S
N1054  Zn1064  2.037   .     S
O1055  Zn1063  2.032   .     S
O1056  Zn1064  2.032   .     S
O1057  Zn1064  2.016   .     S
O1058  Zn1063  2.016   .     S
O1059  Zn1063  1.985   .     S
O1060  Zn1064  1.985   .     S
O1061  Zn1064  1.992   .     S
O1062  Zn1063  1.992   .     S
O1065  C1066   1.418   .     S
C1066  H1068   1.119   .     S
C1066  C1069   1.524   .     S
C1066  H1067   1.105   .     S
C1069  H1072   1.108   .     S
C1069  H1634   1.109   1_545 S
H1070  C1351   1.109   .     S
H1071  C881    1.110   1_655 S
O1073  C1074   1.419   .     S
C1074  H1076   1.106   .     S
C1074  C1077   1.516   .     S
C1074  H1075   1.117   .     S
C1077  H1078   1.103   .     S
C1077  H1079   1.105   .     S
C1077  H1080   1.102   .     S
O1081  C1082   1.413   .     S
C1082  C1085   1.505   .     S
C1082  H1083   1.103   .     S
C1082  H1366   1.109   .     S
H1084  C1646   1.109   1_545 S
C1085  H1088   1.103   .     S
H1086  C1931   1.110   .     S
H1087  C1931   1.102   .     S
O1089  C1090   1.408   .     S
C1090  H1091   1.115   .     S
C1090  C1093   1.516   .     S
C1090  H1092   1.106   .     S
C1093  H1094   1.108   .     S
C1093  H1095   1.109   .     S
C1093  H1096   1.105   .     S
O1097  C1098   1.408   .     S
C1098  C1101   1.524   .     S
C1098  H1099   1.095   .     S
C1098  H1100   1.097   .     S
C1101  H1102   1.109   .     S
C1101  H1104   1.106   .     S
C1101  H915    1.110   1_655 S
O1105  C1106   1.412   .     S
C1106  H1108   1.106   .     S
C1106  C1109   1.520   .     S
C1106  H1107   1.100   .     S
C1109  H1112   1.109   .     S
C1109  H1110   1.111   .     S
C1109  H1111   1.109   .     S
O1113  C1114   1.413   .     S
C1114  C1117   1.533   .     S
C1114  H1115   1.107   .     S
C1114  H1116   1.109   .     S
C1117  H1118   1.108   .     S
C1117  H1119   1.105   .     S
C1117  H1120   1.110   .     S
O1121  C1122   1.422   .     S
C1122  H1124   1.107   .     S
H1123  C1968   1.115   .     S
C1125  H1126   1.108   .     S
C1125  H1127   1.101   .     S
C1125  C934    1.516   1_655 S
H1128  C1971   1.107   .     S
C1129  O1149   1.298   .     A
C1129  C1140   1.445   .     S
C1129  O1151   1.301   .     A
C1130  O1150   1.301   .     A
C1130  C1139   1.455   .     S
C1130  O1152   1.302   .     A
C1131  O1153   1.286   .     A
C1131  C1133   1.417   .     S
C1131  O1155   1.299   .     A
C1132  O1156   1.293   .     A
C1132  C1134   1.416   .     S
C1132  O1154   1.293   .     A
C1133  C1322   1.332   1_455 S
C1133  H1333   1.080   1_455 S
C1134  C1227   1.332   .     S
C1134  H1240   1.085   .     S
C1135  C1140   1.400   .     A
C1135  O1159   1.384   .     S
C1136  O1167   1.381   .     S
C1136  C1139   1.407   .     A
C1136  C1420   1.382   .     S
C1137  C1139   1.406   .     A
C1137  O1175   1.379   .     S
C1137  C1417   1.395   .     S
C1138  O1183   1.375   .     S
C1138  C1140   1.402   .     A
C1141  O1191   1.382   .     S
C1141  N1148   1.374   .     A
C1142  O1199   1.388   .     S
C1142  N1147   1.370   .     A
C1142  C1990   1.449   .     S
C1143  N1147   1.381   .     A
C1143  O1207   1.388   .     S
C1143  C1987   1.442   .     S
C1144  O1215   1.378   .     S
C1144  N1148   1.371   .     A
H1145  C1227   1.080   .     S
H1146  C1322   1.085   1_455 S
N1147  Zn1157  2.037   .     S
N1148  Zn1158  2.037   .     S
O1149  Zn1157  2.032   .     S
O1150  Zn1158  2.032   .     S
O1151  Zn1158  2.016   .     S
O1152  Zn1157  2.016   .     S
O1153  Zn1157  1.985   .     S
O1154  Zn1158  1.985   .     S
O1155  Zn1158  1.992   .     S
O1156  Zn1157  1.992   .     S
O1159  C1160   1.418   .     S
C1160  H1162   1.119   .     S
C1160  C1163   1.524   .     S
C1160  H1161   1.105   .     S
C1163  H1166   1.108   .     S
C1163  H1353   1.110   1_455 S
H1164  C1445   1.109   .     S
H1165  C1257   1.110   .     S
O1167  C1168   1.419   .     S
C1168  H1170   1.106   .     S
C1168  C1171   1.516   .     S
C1168  H1169   1.117   .     S
C1171  H1172   1.103   .     S
C1171  H1173   1.105   .     S
C1171  H1174   1.102   .     S
O1175  C1176   1.413   .     S
C1176  C1179   1.505   .     S
C1176  H1177   1.103   .     S
C1176  H1460   1.109   .     S
C1179  H1182   1.103   .     S
H1180  C2025   1.110   .     S
H1181  C2025   1.102   .     S
O1183  C1184   1.408   .     S
C1184  H1185   1.115   .     S
C1184  C1187   1.516   .     S
C1184  H1186   1.106   .     S
C1187  H1188   1.108   .     S
C1187  H1189   1.109   .     S
C1187  H1190   1.105   .     S
O1191  C1192   1.408   .     S
C1192  C1195   1.524   .     S
C1192  H1193   1.095   .     S
C1192  H1194   1.097   .     S
C1195  H1196   1.109   .     S
C1195  H1198   1.106   .     S
C1195  H1291   1.110   .     S
H1197  C1383   1.110   1_455 S
O1199  C1200   1.412   .     S
C1200  H1202   1.106   .     S
C1200  C1203   1.520   .     S
C1200  H1201   1.100   .     S
C1203  H1206   1.109   .     S
C1203  H1204   1.111   .     S
C1203  H1205   1.109   .     S
O1207  C1208   1.413   .     S
C1208  C1211   1.533   .     S
C1208  H1209   1.107   .     S
C1208  H1210   1.109   .     S
C1211  H1212   1.108   .     S
C1211  H1213   1.105   .     S
C1211  H1214   1.110   .     S
O1215  C1216   1.422   .     S
C1216  H1218   1.107   .     S
C1216  C1407   1.516   1_455 S
H1217  C2062   1.115   .     S
C1219  H1220   1.108   .     S
C1219  H1221   1.101   .     S
C1219  C1310   1.516   .     S
H1222  C2065   1.107   .     S
C1223  O1243   1.298   .     A
C1223  C1234   1.445   .     S
C1223  O1245   1.301   .     A
C1224  O1244   1.301   .     A
C1224  C1233   1.455   .     S
C1224  O1246   1.302   .     A
C1225  O1247   1.286   .     A
C1225  C1227   1.417   .     S
C1225  O1249   1.299   .     A
C1226  O1250   1.293   .     A
C1226  C1228   1.416   .     S
C1226  O1248   1.293   .     A
C1228  C1321   1.332   .     S
C1228  H1334   1.085   .     S
C1229  C1234   1.400   .     A
C1229  O1253   1.384   .     S
C1230  O1261   1.381   .     S
C1230  C1233   1.407   .     A
C1230  C1514   1.382   .     S
C1231  C1233   1.406   .     A
C1231  O1269   1.379   .     S
C1231  C1511   1.395   .     S
C1232  O1277   1.375   .     S
C1232  C1234   1.402   .     A
C1235  O1285   1.382   .     S
C1235  N1242   1.374   .     A
C1236  O1293   1.388   .     S
C1236  N1241   1.370   .     A
C1236  C2084   1.449   .     S
C1237  N1241   1.381   .     A
C1237  O1301   1.388   .     S
C1237  C2081   1.442   .     S
C1238  O1309   1.378   .     S
C1238  N1242   1.371   .     A
H1239  C1321   1.080   .     S
N1241  Zn1251  2.037   .     S
N1242  Zn1252  2.037   .     S
O1243  Zn1251  2.032   .     S
O1244  Zn1252  2.032   .     S
O1245  Zn1252  2.016   .     S
O1246  Zn1251  2.016   .     S
O1247  Zn1251  1.985   .     S
O1248  Zn1252  1.985   .     S
O1249  Zn1252  1.992   .     S
O1250  Zn1251  1.992   .     S
O1253  C1254   1.418   .     S
C1254  H1256   1.119   .     S
C1254  C1257   1.524   .     S
C1254  H1255   1.105   .     S
C1257  H1260   1.108   .     S
H1258  C1539   1.109   .     S
H1259  C1351   1.110   .     S
O1261  C1262   1.419   .     S
C1262  H1264   1.106   .     S
C1262  C1265   1.516   .     S
C1262  H1263   1.117   .     S
C1265  H1266   1.103   .     S
C1265  H1267   1.105   .     S
C1265  H1268   1.102   .     S
O1269  C1270   1.413   .     S
C1270  C1273   1.505   .     S
C1270  H1271   1.103   .     S
C1270  H1554   1.109   .     S
C1273  H1276   1.103   .     S
H1274  C2119   1.110   .     S
H1275  C2119   1.102   .     S
O1277  C1278   1.408   .     S
C1278  H1279   1.115   .     S
C1278  C1281   1.516   .     S
C1278  H1280   1.106   .     S
C1281  H1282   1.108   .     S
C1281  H1283   1.109   .     S
C1281  H1284   1.105   .     S
O1285  C1286   1.408   .     S
C1286  C1289   1.524   .     S
C1286  H1287   1.095   .     S
C1286  H1288   1.097   .     S
C1289  H1290   1.109   .     S
C1289  H1292   1.106   .     S
C1289  H1385   1.110   .     S
O1293  C1294   1.412   .     S
C1294  H1296   1.106   .     S
C1294  C1297   1.520   .     S
C1294  H1295   1.100   .     S
C1297  H1300   1.109   .     S
C1297  H1298   1.111   .     S
C1297  H1299   1.109   .     S
O1301  C1302   1.413   .     S
C1302  C1305   1.533   .     S
C1302  H1303   1.107   .     S
C1302  H1304   1.109   .     S
C1305  H1306   1.108   .     S
C1305  H1307   1.105   .     S
C1305  H1308   1.110   .     S
O1309  C1310   1.422   .     S
C1310  H1312   1.107   .     S
H1311  C2156   1.115   .     S
C1313  H1314   1.108   .     S
C1313  H1315   1.101   .     S
C1313  C1404   1.516   .     S
H1316  C2159   1.107   .     S
C1317  O1337   1.298   .     A
C1317  C1328   1.445   .     S
C1317  O1339   1.301   .     A
C1318  O1338   1.301   .     A
C1318  C1327   1.455   .     S
C1318  O1340   1.302   .     A
C1319  O1341   1.286   .     A
C1319  C1321   1.417   .     S
C1319  O1343   1.299   .     A
C1320  O1344   1.293   .     A
C1320  C1322   1.416   .     S
C1320  O1342   1.293   .     A
C1322  C1133   1.332   1_655 S
C1322  H1146   1.085   1_655 S
C1323  C1328   1.400   .     A
C1323  O1347   1.384   .     S
C1324  O1355   1.381   .     S
C1324  C1327   1.407   .     A
C1324  C1608   1.382   .     S
C1325  C1327   1.406   .     A
C1325  O1363   1.379   .     S
C1325  C1605   1.395   .     S
C1326  O1371   1.375   .     S
C1326  C1328   1.402   .     A
C1329  O1379   1.382   .     S
C1329  N1336   1.374   .     A
C1330  O1387   1.388   .     S
C1330  N1335   1.370   .     A
C1330  C2178   1.449   .     S
C1331  N1335   1.381   .     A
C1331  O1395   1.388   .     S
C1331  C2175   1.442   .     S
C1332  O1403   1.378   .     S
C1332  N1336   1.371   .     A
H1333  C1133   1.080   1_655 S
N1335  Zn1345  2.037   .     S
N1336  Zn1346  2.037   .     S
O1337  Zn1345  2.032   .     S
O1338  Zn1346  2.032   .     S
O1339  Zn1346  2.016   .     S
O1340  Zn1345  2.016   .     S
O1341  Zn1345  1.985   .     S
O1342  Zn1346  1.985   .     S
O1343  Zn1346  1.992   .     S
O1344  Zn1345  1.992   .     S
O1347  C1348   1.418   .     S
C1348  H1350   1.119   .     S
C1348  C1351   1.524   .     S
C1348  H1349   1.105   .     S
C1351  H1354   1.108   .     S
H1352  C1633   1.109   .     S
H1353  C1163   1.110   1_655 S
O1355  C1356   1.419   .     S
C1356  H1358   1.106   .     S
C1356  C1359   1.516   .     S
C1356  H1357   1.117   .     S
C1359  H1360   1.103   .     S
C1359  H1361   1.105   .     S
C1359  H1362   1.102   .     S
O1363  C1364   1.413   .     S
C1364  C1367   1.505   .     S
C1364  H1365   1.103   .     S
C1364  H1648   1.109   .     S
C1367  H1370   1.103   .     S
H1368  C2213   1.110   .     S
H1369  C2213   1.102   .     S
O1371  C1372   1.408   .     S
C1372  H1373   1.115   .     S
C1372  C1375   1.516   .     S
C1372  H1374   1.106   .     S
C1375  H1376   1.108   .     S
C1375  H1377   1.109   .     S
C1375  H1378   1.105   .     S
O1379  C1380   1.408   .     S
C1380  C1383   1.524   .     S
C1380  H1381   1.095   .     S
C1380  H1382   1.097   .     S
C1383  H1384   1.109   .     S
C1383  H1386   1.106   .     S
C1383  H1197   1.110   1_655 S
O1387  C1388   1.412   .     S
C1388  H1390   1.106   .     S
C1388  C1391   1.520   .     S
C1388  H1389   1.100   .     S
C1391  H1394   1.109   .     S
C1391  H1392   1.111   .     S
C1391  H1393   1.109   .     S
O1395  C1396   1.413   .     S
C1396  C1399   1.533   .     S
C1396  H1397   1.107   .     S
C1396  H1398   1.109   .     S
C1399  H1400   1.108   .     S
C1399  H1401   1.105   .     S
C1399  H1402   1.110   .     S
O1403  C1404   1.422   .     S
C1404  H1406   1.107   .     S
H1405  C2250   1.115   .     S
C1407  H1408   1.108   .     S
C1407  H1409   1.101   .     S
C1407  C1216   1.516   1_655 S
H1410  C2253   1.107   .     S
C1411  O1431   1.298   .     A
C1411  C1422   1.445   .     S
C1411  O1433   1.301   .     A
C1412  O1432   1.301   .     A
C1412  C1421   1.455   .     S
C1412  O1434   1.302   .     A
C1413  O1435   1.286   .     A
C1413  C1415   1.417   .     S
C1413  O1437   1.299   .     A
C1414  O1438   1.293   .     A
C1414  C1416   1.416   .     S
C1414  O1436   1.293   .     A
C1415  C1604   1.332   1_455 S
C1415  H1615   1.080   1_455 S
C1416  C1509   1.332   .     S
C1416  H1522   1.085   .     S
C1417  C1422   1.400   .     A
C1417  O1441   1.384   .     S
C1418  O1449   1.381   .     S
C1418  C1421   1.407   .     A
C1418  C856    1.382   1_565 S
C1419  C1421   1.406   .     A
C1419  O1457   1.379   .     S
C1419  C853    1.395   1_565 S
C1420  O1465   1.375   .     S
C1420  C1422   1.402   .     A
C1423  O1473   1.382   .     S
C1423  N1430   1.374   .     A
C1424  O1481   1.388   .     S
C1424  N1429   1.370   .     A
C1424  C2272   1.449   .     S
C1425  N1429   1.381   .     A
C1425  O1489   1.388   .     S
C1425  C2269   1.442   .     S
C1426  O1497   1.378   .     S
C1426  N1430   1.371   .     A
H1427  C1509   1.080   .     S
H1428  C1604   1.085   1_455 S
N1429  Zn1439  2.037   .     S
N1430  Zn1440  2.037   .     S
O1431  Zn1439  2.032   .     S
O1432  Zn1440  2.032   .     S
O1433  Zn1440  2.016   .     S
O1434  Zn1439  2.016   .     S
O1435  Zn1439  1.985   .     S
O1436  Zn1440  1.985   .     S
O1437  Zn1440  1.992   .     S
O1438  Zn1439  1.992   .     S
O1441  C1442   1.418   .     S
C1442  H1444   1.119   .     S
C1442  C1445   1.524   .     S
C1442  H1443   1.105   .     S
C1445  H1448   1.108   .     S
C1445  H1635   1.110   1_455 S
H1446  C881    1.109   1_565 S
H1447  C1539   1.110   .     S
O1449  C1450   1.419   .     S
C1450  H1452   1.106   .     S
C1450  C1453   1.516   .     S
C1450  H1451   1.117   .     S
C1453  H1454   1.103   .     S
C1453  H1455   1.105   .     S
C1453  H1456   1.102   .     S
O1457  C1458   1.413   .     S
C1458  C1461   1.505   .     S
C1458  H1459   1.103   .     S
C1458  H896    1.109   1_565 S
C1461  H1464   1.103   .     S
H1462  C2307   1.110   .     S
H1463  C2307   1.102   .     S
O1465  C1466   1.408   .     S
C1466  H1467   1.115   .     S
C1466  C1469   1.516   .     S
C1466  H1468   1.106   .     S
C1469  H1470   1.108   .     S
C1469  H1471   1.109   .     S
C1469  H1472   1.105   .     S
O1473  C1474   1.408   .     S
C1474  C1477   1.524   .     S
C1474  H1475   1.095   .     S
C1474  H1476   1.097   .     S
C1477  H1478   1.109   .     S
C1477  H1480   1.106   .     S
C1477  H1573   1.110   .     S
H1479  C1665   1.110   1_455 S
O1481  C1482   1.412   .     S
C1482  H1484   1.106   .     S
C1482  C1485   1.520   .     S
C1482  H1483   1.100   .     S
C1485  H1488   1.109   .     S
C1485  H1486   1.111   .     S
C1485  H1487   1.109   .     S
O1489  C1490   1.413   .     S
C1490  C1493   1.533   .     S
C1490  H1491   1.107   .     S
C1490  H1492   1.109   .     S
C1493  H1494   1.108   .     S
C1493  H1495   1.105   .     S
C1493  H1496   1.110   .     S
O1497  C1498   1.422   .     S
C1498  H1500   1.107   .     S
C1498  C1689   1.516   1_455 S
H1499  C2344   1.115   .     S
C1501  H1502   1.108   .     S
C1501  H1503   1.101   .     S
C1501  C1592   1.516   .     S
H1504  C2347   1.107   .     S
C1505  O1525   1.298   .     A
C1505  C1516   1.445   .     S
C1505  O1527   1.301   .     A
C1506  O1526   1.301   .     A
C1506  C1515   1.455   .     S
C1506  O1528   1.302   .     A
C1507  O1529   1.286   .     A
C1507  C1509   1.417   .     S
C1507  O1531   1.299   .     A
C1508  O1532   1.293   .     A
C1508  C1510   1.416   .     S
C1508  O1530   1.293   .     A
C1510  C1603   1.332   .     S
C1510  H1616   1.085   .     S
C1511  C1516   1.400   .     A
C1511  O1535   1.384   .     S
C1512  O1543   1.381   .     S
C1512  C1515   1.407   .     A
C1512  C950    1.382   1_565 S
C1513  C1515   1.406   .     A
C1513  O1551   1.379   .     S
C1513  C947    1.395   1_565 S
C1514  O1559   1.375   .     S
C1514  C1516   1.402   .     A
C1517  O1567   1.382   .     S
C1517  N1524   1.374   .     A
C1518  O1575   1.388   .     S
C1518  N1523   1.370   .     A
C1518  C2366   1.449   .     S
C1519  N1523   1.381   .     A
C1519  O1583   1.388   .     S
C1519  C2363   1.442   .     S
C1520  O1591   1.378   .     S
C1520  N1524   1.371   .     A
H1521  C1603   1.080   .     S
N1523  Zn1533  2.037   .     S
N1524  Zn1534  2.037   .     S
O1525  Zn1533  2.032   .     S
O1526  Zn1534  2.032   .     S
O1527  Zn1534  2.016   .     S
O1528  Zn1533  2.016   .     S
O1529  Zn1533  1.985   .     S
O1530  Zn1534  1.985   .     S
O1531  Zn1534  1.992   .     S
O1532  Zn1533  1.992   .     S
O1535  C1536   1.418   .     S
C1536  H1538   1.119   .     S
C1536  C1539   1.524   .     S
C1536  H1537   1.105   .     S
C1539  H1542   1.108   .     S
H1540  C975    1.109   1_565 S
H1541  C1633   1.110   .     S
O1543  C1544   1.419   .     S
C1544  H1546   1.106   .     S
C1544  C1547   1.516   .     S
C1544  H1545   1.117   .     S
C1547  H1548   1.103   .     S
C1547  H1549   1.105   .     S
C1547  H1550   1.102   .     S
O1551  C1552   1.413   .     S
C1552  C1555   1.505   .     S
C1552  H1553   1.103   .     S
C1552  H990    1.109   1_565 S
C1555  H1558   1.103   .     S
H1556  C2401   1.110   .     S
H1557  C2401   1.102   .     S
O1559  C1560   1.408   .     S
C1560  H1561   1.115   .     S
C1560  C1563   1.516   .     S
C1560  H1562   1.106   .     S
C1563  H1564   1.108   .     S
C1563  H1565   1.109   .     S
C1563  H1566   1.105   .     S
O1567  C1568   1.408   .     S
C1568  C1571   1.524   .     S
C1568  H1569   1.095   .     S
C1568  H1570   1.097   .     S
C1571  H1572   1.109   .     S
C1571  H1574   1.106   .     S
C1571  H1667   1.110   .     S
O1575  C1576   1.412   .     S
C1576  H1578   1.106   .     S
C1576  C1579   1.520   .     S
C1576  H1577   1.100   .     S
C1579  H1582   1.109   .     S
C1579  H1580   1.111   .     S
C1579  H1581   1.109   .     S
O1583  C1584   1.413   .     S
C1584  C1587   1.533   .     S
C1584  H1585   1.107   .     S
C1584  H1586   1.109   .     S
C1587  H1588   1.108   .     S
C1587  H1589   1.105   .     S
C1587  H1590   1.110   .     S
O1591  C1592   1.422   .     S
C1592  H1594   1.107   .     S
H1593  C2438   1.115   .     S
C1595  H1596   1.108   .     S
C1595  H1597   1.101   .     S
C1595  C1686   1.516   .     S
H1598  C2441   1.107   .     S
C1599  O1619   1.298   .     A
C1599  C1610   1.445   .     S
C1599  O1621   1.301   .     A
C1600  O1620   1.301   .     A
C1600  C1609   1.455   .     S
C1600  O1622   1.302   .     A
C1601  O1623   1.286   .     A
C1601  C1603   1.417   .     S
C1601  O1625   1.299   .     A
C1602  O1626   1.293   .     A
C1602  C1604   1.416   .     S
C1602  O1624   1.293   .     A
C1604  C1415   1.332   1_655 S
C1604  H1428   1.085   1_655 S
C1605  C1610   1.400   .     A
C1605  O1629   1.384   .     S
C1606  O1637   1.381   .     S
C1606  C1609   1.407   .     A
C1606  C1044   1.382   1_565 S
C1607  C1609   1.406   .     A
C1607  O1645   1.379   .     S
C1607  C1041   1.395   1_565 S
C1608  O1653   1.375   .     S
C1608  C1610   1.402   .     A
C1611  O1661   1.382   .     S
C1611  N1618   1.374   .     A
C1612  O1669   1.388   .     S
C1612  N1617   1.370   .     A
C1612  C2460   1.449   .     S
C1613  N1617   1.381   .     A
C1613  O1677   1.388   .     S
C1613  C2457   1.442   .     S
C1614  O1685   1.378   .     S
C1614  N1618   1.371   .     A
H1615  C1415   1.080   1_655 S
N1617  Zn1627  2.037   .     S
N1618  Zn1628  2.037   .     S
O1619  Zn1627  2.032   .     S
O1620  Zn1628  2.032   .     S
O1621  Zn1628  2.016   .     S
O1622  Zn1627  2.016   .     S
O1623  Zn1627  1.985   .     S
O1624  Zn1628  1.985   .     S
O1625  Zn1628  1.992   .     S
O1626  Zn1627  1.992   .     S
O1629  C1630   1.418   .     S
C1630  H1632   1.119   .     S
C1630  C1633   1.524   .     S
C1630  H1631   1.105   .     S
C1633  H1636   1.108   .     S
H1634  C1069   1.109   1_565 S
H1635  C1445   1.110   1_655 S
O1637  C1638   1.419   .     S
C1638  H1640   1.106   .     S
C1638  C1641   1.516   .     S
C1638  H1639   1.117   .     S
C1641  H1642   1.103   .     S
C1641  H1643   1.105   .     S
C1641  H1644   1.102   .     S
O1645  C1646   1.413   .     S
C1646  C1649   1.505   .     S
C1646  H1647   1.103   .     S
C1646  H1084   1.109   1_565 S
C1649  H1652   1.103   .     S
H1650  C2495   1.110   .     S
H1651  C2495   1.102   .     S
O1653  C1654   1.408   .     S
C1654  H1655   1.115   .     S
C1654  C1657   1.516   .     S
C1654  H1656   1.106   .     S
C1657  H1658   1.108   .     S
C1657  H1659   1.109   .     S
C1657  H1660   1.105   .     S
O1661  C1662   1.408   .     S
C1662  C1665   1.524   .     S
C1662  H1663   1.095   .     S
C1662  H1664   1.097   .     S
C1665  H1666   1.109   .     S
C1665  H1668   1.106   .     S
C1665  H1479   1.110   1_655 S
O1669  C1670   1.412   .     S
C1670  H1672   1.106   .     S
C1670  C1673   1.520   .     S
C1670  H1671   1.100   .     S
C1673  H1676   1.109   .     S
C1673  H1674   1.111   .     S
C1673  H1675   1.109   .     S
O1677  C1678   1.413   .     S
C1678  C1681   1.533   .     S
C1678  H1679   1.107   .     S
C1678  H1680   1.109   .     S
C1681  H1682   1.108   .     S
C1681  H1683   1.105   .     S
C1681  H1684   1.110   .     S
O1685  C1686   1.422   .     S
C1686  H1688   1.107   .     S
H1687  C2532   1.115   .     S
C1689  H1690   1.108   .     S
C1689  H1691   1.101   .     S
C1689  C1498   1.516   1_655 S
H1692  C2535   1.107   .     S
C1693  O1713   1.298   .     A
C1693  C1704   1.445   .     S
C1693  O1715   1.301   .     A
C1694  O1714   1.301   .     A
C1694  C1703   1.455   .     S
C1694  O1716   1.302   .     A
C1695  O1717   1.286   .     A
C1695  C1697   1.417   .     S
C1695  O1719   1.299   .     A
C1696  O1720   1.293   .     A
C1696  C1698   1.416   .     S
C1696  O1718   1.293   .     A
C1697  C1886   1.332   1_455 S
C1697  H1897   1.080   1_455 S
C1698  C1791   1.332   .     S
C1698  H1804   1.085   .     S
C1699  C1704   1.400   .     A
C1699  O1723   1.384   .     S
C1699  C2265   1.395   1_545 S
C1700  O1731   1.381   .     S
C1700  C1703   1.407   .     A
C1700  C1984   1.382   .     S
C1701  C1703   1.406   .     A
C1701  O1739   1.379   .     S
C1701  C1981   1.395   .     S
C1702  O1747   1.375   .     S
C1702  C1704   1.402   .     A
C1702  C2264   1.382   1_545 S
C1705  O1755   1.382   .     S
C1705  N1712   1.374   .     A
C1706  O1763   1.388   .     S
C1706  N1711   1.370   .     A
C1706  C16     1.449   1_556 S
C1707  N1711   1.381   .     A
C1707  O1771   1.388   .     S
C1707  C13     1.442   1_556 S
C1708  O1779   1.378   .     S
C1708  N1712   1.371   .     A
H1709  C1791   1.080   .     S
H1710  C1886   1.085   1_455 S
N1711  Zn1721  2.037   .     S
N1712  Zn1722  2.037   .     S
O1713  Zn1721  2.032   .     S
O1714  Zn1722  2.032   .     S
O1715  Zn1722  2.016   .     S
O1716  Zn1721  2.016   .     S
O1717  Zn1721  1.985   .     S
O1718  Zn1722  1.985   .     S
O1719  Zn1722  1.992   .     S
O1720  Zn1721  1.992   .     S
O1723  C1724   1.418   .     S
C1724  H1726   1.119   .     S
C1724  C1727   1.524   .     S
C1724  H1725   1.105   .     S
C1727  H1730   1.108   .     S
C1727  H2292   1.109   1_545 S
C1727  H1917   1.110   1_455 S
H1728  C2009   1.109   .     S
H1729  C1821   1.110   .     S
O1731  C1732   1.419   .     S
C1732  H1734   1.106   .     S
C1732  C1735   1.516   .     S
C1732  H1733   1.117   .     S
C1735  H1736   1.103   .     S
C1735  H1737   1.105   .     S
C1735  H1738   1.102   .     S
O1739  C1740   1.413   .     S
C1740  C1743   1.505   .     S
C1740  H1741   1.103   .     S
C1740  H2024   1.109   .     S
H1742  C2304   1.109   1_545 S
C1743  H1746   1.103   .     S
H1744  C51     1.110   1_556 S
H1745  C51     1.102   1_556 S
O1747  C1748   1.408   .     S
C1748  H1749   1.115   .     S
C1748  C1751   1.516   .     S
C1748  H1750   1.106   .     S
C1751  H1752   1.108   .     S
C1751  H1753   1.109   .     S
C1751  H1754   1.105   .     S
O1755  C1756   1.408   .     S
C1756  C1759   1.524   .     S
C1756  H1757   1.095   .     S
C1756  H1758   1.097   .     S
C1759  H1760   1.109   .     S
C1759  H1762   1.106   .     S
C1759  H1855   1.110   .     S
H1761  C1947   1.110   1_455 S
O1763  C1764   1.412   .     S
C1764  H1766   1.106   .     S
C1764  C1767   1.520   .     S
C1764  H1765   1.100   .     S
C1767  H1770   1.109   .     S
C1767  H1768   1.111   .     S
C1767  H1769   1.109   .     S
O1771  C1772   1.413   .     S
C1772  C1775   1.533   .     S
C1772  H1773   1.107   .     S
C1772  H1774   1.109   .     S
C1775  H1776   1.108   .     S
C1775  H1777   1.105   .     S
C1775  H1778   1.110   .     S
O1779  C1780   1.422   .     S
C1780  H1782   1.107   .     S
C1780  C1971   1.516   1_455 S
H1781  C88     1.115   1_556 S
C1783  H1784   1.108   .     S
C1783  H1785   1.101   .     S
C1783  C1874   1.516   .     S
H1786  C91     1.107   1_556 S
C1787  O1807   1.298   .     A
C1787  C1798   1.445   .     S
C1787  O1809   1.301   .     A
C1788  O1808   1.301   .     A
C1788  C1797   1.455   .     S
C1788  O1810   1.302   .     A
C1789  O1811   1.286   .     A
C1789  C1791   1.417   .     S
C1789  O1813   1.299   .     A
C1790  O1814   1.293   .     A
C1790  C1792   1.416   .     S
C1790  O1812   1.293   .     A
C1792  C1885   1.332   .     S
C1792  H1898   1.085   .     S
C1793  C1798   1.400   .     A
C1793  O1817   1.384   .     S
C1793  C2359   1.395   1_545 S
C1794  O1825   1.381   .     S
C1794  C1797   1.407   .     A
C1794  C2078   1.382   .     S
C1795  C1797   1.406   .     A
C1795  O1833   1.379   .     S
C1795  C2075   1.395   .     S
C1796  O1841   1.375   .     S
C1796  C1798   1.402   .     A
C1796  C2358   1.382   1_545 S
C1799  O1849   1.382   .     S
C1799  N1806   1.374   .     A
C1800  O1857   1.388   .     S
C1800  N1805   1.370   .     A
C1800  C110    1.449   1_556 S
C1801  N1805   1.381   .     A
C1801  O1865   1.388   .     S
C1801  C107    1.442   1_556 S
C1802  O1873   1.378   .     S
C1802  N1806   1.371   .     A
H1803  C1885   1.080   .     S
N1805  Zn1815  2.037   .     S
N1806  Zn1816  2.037   .     S
O1807  Zn1815  2.032   .     S
O1808  Zn1816  2.032   .     S
O1809  Zn1816  2.016   .     S
O1810  Zn1815  2.016   .     S
O1811  Zn1815  1.985   .     S
O1812  Zn1816  1.985   .     S
O1813  Zn1816  1.992   .     S
O1814  Zn1815  1.992   .     S
O1817  C1818   1.418   .     S
C1818  H1820   1.119   .     S
C1818  C1821   1.524   .     S
C1818  H1819   1.105   .     S
C1821  H1824   1.108   .     S
C1821  H2386   1.109   1_545 S
H1822  C2103   1.109   .     S
H1823  C1915   1.110   .     S
O1825  C1826   1.419   .     S
C1826  H1828   1.106   .     S
C1826  C1829   1.516   .     S
C1826  H1827   1.117   .     S
C1829  H1830   1.103   .     S
C1829  H1831   1.105   .     S
C1829  H1832   1.102   .     S
O1833  C1834   1.413   .     S
C1834  C1837   1.505   .     S
C1834  H1835   1.103   .     S
C1834  H2118   1.109   .     S
H1836  C2398   1.109   1_545 S
C1837  H1840   1.103   .     S
H1838  C145    1.110   1_556 S
H1839  C145    1.102   1_556 S
O1841  C1842   1.408   .     S
C1842  H1843   1.115   .     S
C1842  C1845   1.516   .     S
C1842  H1844   1.106   .     S
C1845  H1846   1.108   .     S
C1845  H1847   1.109   .     S
C1845  H1848   1.105   .     S
O1849  C1850   1.408   .     S
C1850  C1853   1.524   .     S
C1850  H1851   1.095   .     S
C1850  H1852   1.097   .     S
C1853  H1854   1.109   .     S
C1853  H1856   1.106   .     S
C1853  H1949   1.110   .     S
O1857  C1858   1.412   .     S
C1858  H1860   1.106   .     S
C1858  C1861   1.520   .     S
C1858  H1859   1.100   .     S
C1861  H1864   1.109   .     S
C1861  H1862   1.111   .     S
C1861  H1863   1.109   .     S
O1865  C1866   1.413   .     S
C1866  C1869   1.533   .     S
C1866  H1867   1.107   .     S
C1866  H1868   1.109   .     S
C1869  H1870   1.108   .     S
C1869  H1871   1.105   .     S
C1869  H1872   1.110   .     S
O1873  C1874   1.422   .     S
C1874  H1876   1.107   .     S
H1875  C182    1.115   1_556 S
C1877  H1878   1.108   .     S
C1877  H1879   1.101   .     S
C1877  C1968   1.516   .     S
H1880  C185    1.107   1_556 S
C1881  O1901   1.298   .     A
C1881  C1892   1.445   .     S
C1881  O1903   1.301   .     A
C1882  O1902   1.301   .     A
C1882  C1891   1.455   .     S
C1882  O1904   1.302   .     A
C1883  O1905   1.286   .     A
C1883  C1885   1.417   .     S
C1883  O1907   1.299   .     A
C1884  O1908   1.293   .     A
C1884  C1886   1.416   .     S
C1884  O1906   1.293   .     A
C1886  C1697   1.332   1_655 S
C1886  H1710   1.085   1_655 S
C1887  C1892   1.400   .     A
C1887  O1911   1.384   .     S
C1887  C2453   1.395   1_545 S
C1888  O1919   1.381   .     S
C1888  C1891   1.407   .     A
C1888  C2172   1.382   .     S
C1889  C1891   1.406   .     A
C1889  O1927   1.379   .     S
C1889  C2169   1.395   .     S
C1890  O1935   1.375   .     S
C1890  C1892   1.402   .     A
C1890  C2452   1.382   1_545 S
C1893  O1943   1.382   .     S
C1893  N1900   1.374   .     A
C1894  O1951   1.388   .     S
C1894  N1899   1.370   .     A
C1894  C204    1.449   1_556 S
C1895  N1899   1.381   .     A
C1895  O1959   1.388   .     S
C1895  C201    1.442   1_556 S
C1896  O1967   1.378   .     S
C1896  N1900   1.371   .     A
H1897  C1697   1.080   1_655 S
N1899  Zn1909  2.037   .     S
N1900  Zn1910  2.037   .     S
O1901  Zn1909  2.032   .     S
O1902  Zn1910  2.032   .     S
O1903  Zn1910  2.016   .     S
O1904  Zn1909  2.016   .     S
O1905  Zn1909  1.985   .     S
O1906  Zn1910  1.985   .     S
O1907  Zn1910  1.992   .     S
O1908  Zn1909  1.992   .     S
O1911  C1912   1.418   .     S
C1912  H1914   1.119   .     S
C1912  C1915   1.524   .     S
C1912  H1913   1.105   .     S
C1915  H1918   1.108   .     S
C1915  H2480   1.109   1_545 S
H1916  C2197   1.109   .     S
H1917  C1727   1.110   1_655 S
O1919  C1920   1.419   .     S
C1920  H1922   1.106   .     S
C1920  C1923   1.516   .     S
C1920  H1921   1.117   .     S
C1923  H1924   1.103   .     S
C1923  H1925   1.105   .     S
C1923  H1926   1.102   .     S
O1927  C1928   1.413   .     S
C1928  C1931   1.505   .     S
C1928  H1929   1.103   .     S
C1928  H2212   1.109   .     S
H1930  C2492   1.109   1_545 S
C1931  H1934   1.103   .     S
H1932  C239    1.110   1_556 S
H1933  C239    1.102   1_556 S
O1935  C1936   1.408   .     S
C1936  H1937   1.115   .     S
C1936  C1939   1.516   .     S
C1936  H1938   1.106   .     S
C1939  H1940   1.108   .     S
C1939  H1941   1.109   .     S
C1939  H1942   1.105   .     S
O1943  C1944   1.408   .     S
C1944  C1947   1.524   .     S
C1944  H1945   1.095   .     S
C1944  H1946   1.097   .     S
C1947  H1948   1.109   .     S
C1947  H1950   1.106   .     S
C1947  H1761   1.110   1_655 S
O1951  C1952   1.412   .     S
C1952  H1954   1.106   .     S
C1952  C1955   1.520   .     S
C1952  H1953   1.100   .     S
C1955  H1958   1.109   .     S
C1955  H1956   1.111   .     S
C1955  H1957   1.109   .     S
O1959  C1960   1.413   .     S
C1960  C1963   1.533   .     S
C1960  H1961   1.107   .     S
C1960  H1962   1.109   .     S
C1963  H1964   1.108   .     S
C1963  H1965   1.105   .     S
C1963  H1966   1.110   .     S
O1967  C1968   1.422   .     S
C1968  H1970   1.107   .     S
H1969  C276    1.115   1_556 S
C1971  H1972   1.108   .     S
C1971  H1973   1.101   .     S
C1971  C1780   1.516   1_655 S
H1974  C279    1.107   1_556 S
C1975  O1995   1.298   .     A
C1975  C1986   1.445   .     S
C1975  O1997   1.301   .     A
C1976  O1996   1.301   .     A
C1976  C1985   1.455   .     S
C1976  O1998   1.302   .     A
C1977  O1999   1.286   .     A
C1977  C1979   1.417   .     S
C1977  O2001   1.299   .     A
C1978  O2002   1.293   .     A
C1978  C1980   1.416   .     S
C1978  O2000   1.293   .     A
C1979  C2168   1.332   1_455 S
C1979  H2179   1.080   1_455 S
C1980  C2073   1.332   .     S
C1980  H2086   1.085   .     S
C1981  C1986   1.400   .     A
C1981  O2005   1.384   .     S
C1982  O2013   1.381   .     S
C1982  C1985   1.407   .     A
C1982  C2266   1.382   .     S
C1983  C1985   1.406   .     A
C1983  O2021   1.379   .     S
C1983  C2263   1.395   .     S
C1984  O2029   1.375   .     S
C1984  C1986   1.402   .     A
C1987  O2037   1.382   .     S
C1987  N1994   1.374   .     A
C1988  O2045   1.388   .     S
C1988  N1993   1.370   .     A
C1988  C298    1.449   1_556 S
C1989  N1993   1.381   .     A
C1989  O2053   1.388   .     S
C1989  C295    1.442   1_556 S
C1990  O2061   1.378   .     S
C1990  N1994   1.371   .     A
H1991  C2073   1.080   .     S
H1992  C2168   1.085   1_455 S
N1993  Zn2003  2.037   .     S
N1994  Zn2004  2.037   .     S
O1995  Zn2003  2.032   .     S
O1996  Zn2004  2.032   .     S
O1997  Zn2004  2.016   .     S
O1998  Zn2003  2.016   .     S
O1999  Zn2003  1.985   .     S
O2000  Zn2004  1.985   .     S
O2001  Zn2004  1.992   .     S
O2002  Zn2003  1.992   .     S
O2005  C2006   1.418   .     S
C2006  H2008   1.119   .     S
C2006  C2009   1.524   .     S
C2006  H2007   1.105   .     S
C2009  H2012   1.108   .     S
C2009  H2199   1.110   1_455 S
H2010  C2291   1.109   .     S
H2011  C2103   1.110   .     S
O2013  C2014   1.419   .     S
C2014  H2016   1.106   .     S
C2014  C2017   1.516   .     S
C2014  H2015   1.117   .     S
C2017  H2018   1.103   .     S
C2017  H2019   1.105   .     S
C2017  H2020   1.102   .     S
O2021  C2022   1.413   .     S
C2022  C2025   1.505   .     S
C2022  H2023   1.103   .     S
C2022  H2306   1.109   .     S
C2025  H2028   1.103   .     S
H2026  C333    1.110   1_556 S
H2027  C333    1.102   1_556 S
O2029  C2030   1.408   .     S
C2030  H2031   1.115   .     S
C2030  C2033   1.516   .     S
C2030  H2032   1.106   .     S
C2033  H2034   1.108   .     S
C2033  H2035   1.109   .     S
C2033  H2036   1.105   .     S
O2037  C2038   1.408   .     S
C2038  C2041   1.524   .     S
C2038  H2039   1.095   .     S
C2038  H2040   1.097   .     S
C2041  H2042   1.109   .     S
C2041  H2044   1.106   .     S
C2041  H2137   1.110   .     S
H2043  C2229   1.110   1_455 S
O2045  C2046   1.412   .     S
C2046  H2048   1.106   .     S
C2046  C2049   1.520   .     S
C2046  H2047   1.100   .     S
C2049  H2052   1.109   .     S
C2049  H2050   1.111   .     S
C2049  H2051   1.109   .     S
O2053  C2054   1.413   .     S
C2054  C2057   1.533   .     S
C2054  H2055   1.107   .     S
C2054  H2056   1.109   .     S
C2057  H2058   1.108   .     S
C2057  H2059   1.105   .     S
C2057  H2060   1.110   .     S
O2061  C2062   1.422   .     S
C2062  H2064   1.107   .     S
C2062  C2253   1.516   1_455 S
H2063  C370    1.115   1_556 S
C2065  H2066   1.108   .     S
C2065  H2067   1.101   .     S
C2065  C2156   1.516   .     S
H2068  C373    1.107   1_556 S
C2069  O2089   1.298   .     A
C2069  C2080   1.445   .     S
C2069  O2091   1.301   .     A
C2070  O2090   1.301   .     A
C2070  C2079   1.455   .     S
C2070  O2092   1.302   .     A
C2071  O2093   1.286   .     A
C2071  C2073   1.417   .     S
C2071  O2095   1.299   .     A
C2072  O2096   1.293   .     A
C2072  C2074   1.416   .     S
C2072  O2094   1.293   .     A
C2074  C2167   1.332   .     S
C2074  H2180   1.085   .     S
C2075  C2080   1.400   .     A
C2075  O2099   1.384   .     S
C2076  O2107   1.381   .     S
C2076  C2079   1.407   .     A
C2076  C2360   1.382   .     S
C2077  C2079   1.406   .     A
C2077  O2115   1.379   .     S
C2077  C2357   1.395   .     S
C2078  O2123   1.375   .     S
C2078  C2080   1.402   .     A
C2081  O2131   1.382   .     S
C2081  N2088   1.374   .     A
C2082  O2139   1.388   .     S
C2082  N2087   1.370   .     A
C2082  C392    1.449   1_556 S
C2083  N2087   1.381   .     A
C2083  O2147   1.388   .     S
C2083  C389    1.442   1_556 S
C2084  O2155   1.378   .     S
C2084  N2088   1.371   .     A
H2085  C2167   1.080   .     S
N2087  Zn2097  2.037   .     S
N2088  Zn2098  2.037   .     S
O2089  Zn2097  2.032   .     S
O2090  Zn2098  2.032   .     S
O2091  Zn2098  2.016   .     S
O2092  Zn2097  2.016   .     S
O2093  Zn2097  1.985   .     S
O2094  Zn2098  1.985   .     S
O2095  Zn2098  1.992   .     S
O2096  Zn2097  1.992   .     S
O2099  C2100   1.418   .     S
C2100  H2102   1.119   .     S
C2100  C2103   1.524   .     S
C2100  H2101   1.105   .     S
C2103  H2106   1.108   .     S
H2104  C2385   1.109   .     S
H2105  C2197   1.110   .     S
O2107  C2108   1.419   .     S
C2108  H2110   1.106   .     S
C2108  C2111   1.516   .     S
C2108  H2109   1.117   .     S
C2111  H2112   1.103   .     S
C2111  H2113   1.105   .     S
C2111  H2114   1.102   .     S
O2115  C2116   1.413   .     S
C2116  C2119   1.505   .     S
C2116  H2117   1.103   .     S
C2116  H2400   1.109   .     S
C2119  H2122   1.103   .     S
H2120  C427    1.110   1_556 S
H2121  C427    1.102   1_556 S
O2123  C2124   1.408   .     S
C2124  H2125   1.115   .     S
C2124  C2127   1.516   .     S
C2124  H2126   1.106   .     S
C2127  H2128   1.108   .     S
C2127  H2129   1.109   .     S
C2127  H2130   1.105   .     S
O2131  C2132   1.408   .     S
C2132  C2135   1.524   .     S
C2132  H2133   1.095   .     S
C2132  H2134   1.097   .     S
C2135  H2136   1.109   .     S
C2135  H2138   1.106   .     S
C2135  H2231   1.110   .     S
O2139  C2140   1.412   .     S
C2140  H2142   1.106   .     S
C2140  C2143   1.520   .     S
C2140  H2141   1.100   .     S
C2143  H2146   1.109   .     S
C2143  H2144   1.111   .     S
C2143  H2145   1.109   .     S
O2147  C2148   1.413   .     S
C2148  C2151   1.533   .     S
C2148  H2149   1.107   .     S
C2148  H2150   1.109   .     S
C2151  H2152   1.108   .     S
C2151  H2153   1.105   .     S
C2151  H2154   1.110   .     S
O2155  C2156   1.422   .     S
C2156  H2158   1.107   .     S
H2157  C464    1.115   1_556 S
C2159  H2160   1.108   .     S
C2159  H2161   1.101   .     S
C2159  C2250   1.516   .     S
H2162  C467    1.107   1_556 S
C2163  O2183   1.298   .     A
C2163  C2174   1.445   .     S
C2163  O2185   1.301   .     A
C2164  O2184   1.301   .     A
C2164  C2173   1.455   .     S
C2164  O2186   1.302   .     A
C2165  O2187   1.286   .     A
C2165  C2167   1.417   .     S
C2165  O2189   1.299   .     A
C2166  O2190   1.293   .     A
C2166  C2168   1.416   .     S
C2166  O2188   1.293   .     A
C2168  C1979   1.332   1_655 S
C2168  H1992   1.085   1_655 S
C2169  C2174   1.400   .     A
C2169  O2193   1.384   .     S
C2170  O2201   1.381   .     S
C2170  C2173   1.407   .     A
C2170  C2454   1.382   .     S
C2171  C2173   1.406   .     A
C2171  O2209   1.379   .     S
C2171  C2451   1.395   .     S
C2172  O2217   1.375   .     S
C2172  C2174   1.402   .     A
C2175  O2225   1.382   .     S
C2175  N2182   1.374   .     A
C2176  O2233   1.388   .     S
C2176  N2181   1.370   .     A
C2176  C486    1.449   1_556 S
C2177  N2181   1.381   .     A
C2177  O2241   1.388   .     S
C2177  C483    1.442   1_556 S
C2178  O2249   1.378   .     S
C2178  N2182   1.371   .     A
H2179  C1979   1.080   1_655 S
N2181  Zn2191  2.037   .     S
N2182  Zn2192  2.037   .     S
O2183  Zn2191  2.032   .     S
O2184  Zn2192  2.032   .     S
O2185  Zn2192  2.016   .     S
O2186  Zn2191  2.016   .     S
O2187  Zn2191  1.985   .     S
O2188  Zn2192  1.985   .     S
O2189  Zn2192  1.992   .     S
O2190  Zn2191  1.992   .     S
O2193  C2194   1.418   .     S
C2194  H2196   1.119   .     S
C2194  C2197   1.524   .     S
C2194  H2195   1.105   .     S
C2197  H2200   1.108   .     S
H2198  C2479   1.109   .     S
H2199  C2009   1.110   1_655 S
O2201  C2202   1.419   .     S
C2202  H2204   1.106   .     S
C2202  C2205   1.516   .     S
C2202  H2203   1.117   .     S
C2205  H2206   1.103   .     S
C2205  H2207   1.105   .     S
C2205  H2208   1.102   .     S
O2209  C2210   1.413   .     S
C2210  C2213   1.505   .     S
C2210  H2211   1.103   .     S
C2210  H2494   1.109   .     S
C2213  H2216   1.103   .     S
H2214  C521    1.110   1_556 S
H2215  C521    1.102   1_556 S
O2217  C2218   1.408   .     S
C2218  H2219   1.115   .     S
C2218  C2221   1.516   .     S
C2218  H2220   1.106   .     S
C2221  H2222   1.108   .     S
C2221  H2223   1.109   .     S
C2221  H2224   1.105   .     S
O2225  C2226   1.408   .     S
C2226  C2229   1.524   .     S
C2226  H2227   1.095   .     S
C2226  H2228   1.097   .     S
C2229  H2230   1.109   .     S
C2229  H2232   1.106   .     S
C2229  H2043   1.110   1_655 S
O2233  C2234   1.412   .     S
C2234  H2236   1.106   .     S
C2234  C2237   1.520   .     S
C2234  H2235   1.100   .     S
C2237  H2240   1.109   .     S
C2237  H2238   1.111   .     S
C2237  H2239   1.109   .     S
O2241  C2242   1.413   .     S
C2242  C2245   1.533   .     S
C2242  H2243   1.107   .     S
C2242  H2244   1.109   .     S
C2245  H2246   1.108   .     S
C2245  H2247   1.105   .     S
C2245  H2248   1.110   .     S
O2249  C2250   1.422   .     S
C2250  H2252   1.107   .     S
H2251  C558    1.115   1_556 S
C2253  H2254   1.108   .     S
C2253  H2255   1.101   .     S
C2253  C2062   1.516   1_655 S
H2256  C561    1.107   1_556 S
C2257  O2277   1.298   .     A
C2257  C2268   1.445   .     S
C2257  O2279   1.301   .     A
C2258  O2278   1.301   .     A
C2258  C2267   1.455   .     S
C2258  O2280   1.302   .     A
C2259  O2281   1.286   .     A
C2259  C2261   1.417   .     S
C2259  O2283   1.299   .     A
C2260  O2284   1.293   .     A
C2260  C2262   1.416   .     S
C2260  O2282   1.293   .     A
C2261  C2450   1.332   1_455 S
C2261  H2461   1.080   1_455 S
C2262  C2355   1.332   .     S
C2262  H2368   1.085   .     S
C2263  C2268   1.400   .     A
C2263  O2287   1.384   .     S
C2264  O2295   1.381   .     S
C2264  C2267   1.407   .     A
C2264  C1702   1.382   1_565 S
C2265  C2267   1.406   .     A
C2265  O2303   1.379   .     S
C2265  C1699   1.395   1_565 S
C2266  O2311   1.375   .     S
C2266  C2268   1.402   .     A
C2269  O2319   1.382   .     S
C2269  N2276   1.374   .     A
C2270  O2327   1.388   .     S
C2270  N2275   1.370   .     A
C2270  C580    1.449   1_556 S
C2271  N2275   1.381   .     A
C2271  O2335   1.388   .     S
C2271  C577    1.442   1_556 S
C2272  O2343   1.378   .     S
C2272  N2276   1.371   .     A
H2273  C2355   1.080   .     S
H2274  C2450   1.085   1_455 S
N2275  Zn2285  2.037   .     S
N2276  Zn2286  2.037   .     S
O2277  Zn2285  2.032   .     S
O2278  Zn2286  2.032   .     S
O2279  Zn2286  2.016   .     S
O2280  Zn2285  2.016   .     S
O2281  Zn2285  1.985   .     S
O2282  Zn2286  1.985   .     S
O2283  Zn2286  1.992   .     S
O2284  Zn2285  1.992   .     S
O2287  C2288   1.418   .     S
C2288  H2290   1.119   .     S
C2288  C2291   1.524   .     S
C2288  H2289   1.105   .     S
C2291  H2294   1.108   .     S
C2291  H2481   1.110   1_455 S
H2292  C1727   1.109   1_565 S
H2293  C2385   1.110   .     S
O2295  C2296   1.419   .     S
C2296  H2298   1.106   .     S
C2296  C2299   1.516   .     S
C2296  H2297   1.117   .     S
C2299  H2300   1.103   .     S
C2299  H2301   1.105   .     S
C2299  H2302   1.102   .     S
O2303  C2304   1.413   .     S
C2304  C2307   1.505   .     S
C2304  H2305   1.103   .     S
C2304  H1742   1.109   1_565 S
C2307  H2310   1.103   .     S
H2308  C615    1.110   1_556 S
H2309  C615    1.102   1_556 S
O2311  C2312   1.408   .     S
C2312  H2313   1.115   .     S
C2312  C2315   1.516   .     S
C2312  H2314   1.106   .     S
C2315  H2316   1.108   .     S
C2315  H2317   1.109   .     S
C2315  H2318   1.105   .     S
O2319  C2320   1.408   .     S
C2320  C2323   1.524   .     S
C2320  H2321   1.095   .     S
C2320  H2322   1.097   .     S
C2323  H2324   1.109   .     S
C2323  H2326   1.106   .     S
C2323  H2419   1.110   .     S
H2325  C2511   1.110   1_455 S
O2327  C2328   1.412   .     S
C2328  H2330   1.106   .     S
C2328  C2331   1.520   .     S
C2328  H2329   1.100   .     S
C2331  H2334   1.109   .     S
C2331  H2332   1.111   .     S
C2331  H2333   1.109   .     S
O2335  C2336   1.413   .     S
C2336  C2339   1.533   .     S
C2336  H2337   1.107   .     S
C2336  H2338   1.109   .     S
C2339  H2340   1.108   .     S
C2339  H2341   1.105   .     S
C2339  H2342   1.110   .     S
O2343  C2344   1.422   .     S
C2344  H2346   1.107   .     S
C2344  C2535   1.516   1_455 S
H2345  C652    1.115   1_556 S
C2347  H2348   1.108   .     S
C2347  H2349   1.101   .     S
C2347  C2438   1.516   .     S
H2350  C655    1.107   1_556 S
C2351  O2371   1.298   .     A
C2351  C2362   1.445   .     S
C2351  O2373   1.301   .     A
C2352  O2372   1.301   .     A
C2352  C2361   1.455   .     S
C2352  O2374   1.302   .     A
C2353  O2375   1.286   .     A
C2353  C2355   1.417   .     S
C2353  O2377   1.299   .     A
C2354  O2378   1.293   .     A
C2354  C2356   1.416   .     S
C2354  O2376   1.293   .     A
C2356  C2449   1.332   .     S
C2356  H2462   1.085   .     S
C2357  C2362   1.400   .     A
C2357  O2381   1.384   .     S
C2358  O2389   1.381   .     S
C2358  C2361   1.407   .     A
C2358  C1796   1.382   1_565 S
C2359  C2361   1.406   .     A
C2359  O2397   1.379   .     S
C2359  C1793   1.395   1_565 S
C2360  O2405   1.375   .     S
C2360  C2362   1.402   .     A
C2363  O2413   1.382   .     S
C2363  N2370   1.374   .     A
C2364  O2421   1.388   .     S
C2364  N2369   1.370   .     A
C2364  C674    1.449   1_556 S
C2365  N2369   1.381   .     A
C2365  O2429   1.388   .     S
C2365  C671    1.442   1_556 S
C2366  O2437   1.378   .     S
C2366  N2370   1.371   .     A
H2367  C2449   1.080   .     S
N2369  Zn2379  2.037   .     S
N2370  Zn2380  2.037   .     S
O2371  Zn2379  2.032   .     S
O2372  Zn2380  2.032   .     S
O2373  Zn2380  2.016   .     S
O2374  Zn2379  2.016   .     S
O2375  Zn2379  1.985   .     S
O2376  Zn2380  1.985   .     S
O2377  Zn2380  1.992   .     S
O2378  Zn2379  1.992   .     S
O2381  C2382   1.418   .     S
C2382  H2384   1.119   .     S
C2382  C2385   1.524   .     S
C2382  H2383   1.105   .     S
C2385  H2388   1.108   .     S
H2386  C1821   1.109   1_565 S
H2387  C2479   1.110   .     S
O2389  C2390   1.419   .     S
C2390  H2392   1.106   .     S
C2390  C2393   1.516   .     S
C2390  H2391   1.117   .     S
C2393  H2394   1.103   .     S
C2393  H2395   1.105   .     S
C2393  H2396   1.102   .     S
O2397  C2398   1.413   .     S
C2398  C2401   1.505   .     S
C2398  H2399   1.103   .     S
C2398  H1836   1.109   1_565 S
C2401  H2404   1.103   .     S
H2402  C709    1.110   1_556 S
H2403  C709    1.102   1_556 S
O2405  C2406   1.408   .     S
C2406  H2407   1.115   .     S
C2406  C2409   1.516   .     S
C2406  H2408   1.106   .     S
C2409  H2410   1.108   .     S
C2409  H2411   1.109   .     S
C2409  H2412   1.105   .     S
O2413  C2414   1.408   .     S
C2414  C2417   1.524   .     S
C2414  H2415   1.095   .     S
C2414  H2416   1.097   .     S
C2417  H2418   1.109   .     S
C2417  H2420   1.106   .     S
C2417  H2513   1.110   .     S
O2421  C2422   1.412   .     S
C2422  H2424   1.106   .     S
C2422  C2425   1.520   .     S
C2422  H2423   1.100   .     S
C2425  H2428   1.109   .     S
C2425  H2426   1.111   .     S
C2425  H2427   1.109   .     S
O2429  C2430   1.413   .     S
C2430  C2433   1.533   .     S
C2430  H2431   1.107   .     S
C2430  H2432   1.109   .     S
C2433  H2434   1.108   .     S
C2433  H2435   1.105   .     S
C2433  H2436   1.110   .     S
O2437  C2438   1.422   .     S
C2438  H2440   1.107   .     S
H2439  C746    1.115   1_556 S
C2441  H2442   1.108   .     S
C2441  H2443   1.101   .     S
C2441  C2532   1.516   .     S
H2444  C749    1.107   1_556 S
C2445  O2465   1.298   .     A
C2445  C2456   1.445   .     S
C2445  O2467   1.301   .     A
C2446  O2466   1.301   .     A
C2446  C2455   1.455   .     S
C2446  O2468   1.302   .     A
C2447  O2469   1.286   .     A
C2447  C2449   1.417   .     S
C2447  O2471   1.299   .     A
C2448  O2472   1.293   .     A
C2448  C2450   1.416   .     S
C2448  O2470   1.293   .     A
C2450  C2261   1.332   1_655 S
C2450  H2274   1.085   1_655 S
C2451  C2456   1.400   .     A
C2451  O2475   1.384   .     S
C2452  O2483   1.381   .     S
C2452  C2455   1.407   .     A
C2452  C1890   1.382   1_565 S
C2453  C2455   1.406   .     A
C2453  O2491   1.379   .     S
C2453  C1887   1.395   1_565 S
C2454  O2499   1.375   .     S
C2454  C2456   1.402   .     A
C2457  O2507   1.382   .     S
C2457  N2464   1.374   .     A
C2458  O2515   1.388   .     S
C2458  N2463   1.370   .     A
C2458  C768    1.449   1_556 S
C2459  N2463   1.381   .     A
C2459  O2523   1.388   .     S
C2459  C765    1.442   1_556 S
C2460  O2531   1.378   .     S
C2460  N2464   1.371   .     A
H2461  C2261   1.080   1_655 S
N2463  Zn2473  2.037   .     S
N2464  Zn2474  2.037   .     S
O2465  Zn2473  2.032   .     S
O2466  Zn2474  2.032   .     S
O2467  Zn2474  2.016   .     S
O2468  Zn2473  2.016   .     S
O2469  Zn2473  1.985   .     S
O2470  Zn2474  1.985   .     S
O2471  Zn2474  1.992   .     S
O2472  Zn2473  1.992   .     S
O2475  C2476   1.418   .     S
C2476  H2478   1.119   .     S
C2476  C2479   1.524   .     S
C2476  H2477   1.105   .     S
C2479  H2482   1.108   .     S
H2480  C1915   1.109   1_565 S
H2481  C2291   1.110   1_655 S
O2483  C2484   1.419   .     S
C2484  H2486   1.106   .     S
C2484  C2487   1.516   .     S
C2484  H2485   1.117   .     S
C2487  H2488   1.103   .     S
C2487  H2489   1.105   .     S
C2487  H2490   1.102   .     S
O2491  C2492   1.413   .     S
C2492  C2495   1.505   .     S
C2492  H2493   1.103   .     S
C2492  H1930   1.109   1_565 S
C2495  H2498   1.103   .     S
H2496  C803    1.110   1_556 S
H2497  C803    1.102   1_556 S
O2499  C2500   1.408   .     S
C2500  H2501   1.115   .     S
C2500  C2503   1.516   .     S
C2500  H2502   1.106   .     S
C2503  H2504   1.108   .     S
C2503  H2505   1.109   .     S
C2503  H2506   1.105   .     S
O2507  C2508   1.408   .     S
C2508  C2511   1.524   .     S
C2508  H2509   1.095   .     S
C2508  H2510   1.097   .     S
C2511  H2512   1.109   .     S
C2511  H2514   1.106   .     S
C2511  H2325   1.110   1_655 S
O2515  C2516   1.412   .     S
C2516  H2518   1.106   .     S
C2516  C2519   1.520   .     S
C2516  H2517   1.100   .     S
C2519  H2522   1.109   .     S
C2519  H2520   1.111   .     S
C2519  H2521   1.109   .     S
O2523  C2524   1.413   .     S
C2524  C2527   1.533   .     S
C2524  H2525   1.107   .     S
C2524  H2526   1.109   .     S
C2527  H2528   1.108   .     S
C2527  H2529   1.105   .     S
C2527  H2530   1.110   .     S
O2531  C2532   1.422   .     S
C2532  H2534   1.107   .     S
H2533  C840    1.115   1_556 S
C2535  H2536   1.108   .     S
C2535  H2537   1.101   .     S
C2535  C2344   1.516   1_655 S
H2538  C843    1.107   1_556 S
