data_str_m3_o1_o18_pcu_sym.82
_audit_creation_date              2020-01-03
_audit_creation_method            'Materials Studio'
_symmetry_space_group_name_H-M    'P1'
_symmetry_Int_Tables_number       1
_symmetry_cell_setting            triclinic
loop_
_symmetry_equiv_pos_as_xyz
  x,y,z
_cell_length_a                    29.7815
_cell_length_b                    32.0183
_cell_length_c                    30.3795
_cell_angle_alpha                 89.8747
_cell_angle_beta                  76.3216
_cell_angle_gamma                 89.6130
loop_
_atom_site_label
_atom_site_type_symbol
_atom_site_fract_x
_atom_site_fract_y
_atom_site_fract_z
_atom_site_U_iso_or_equiv
_atom_site_adp_type
_atom_site_occupancy
C1     C     0.16661   0.24656   0.24949   0.00000  Uiso   1.00
C2     C     0.13731   0.31261   0.22685   0.00000  Uiso   1.00
C3     C     0.16709   0.04262   0.25051   0.00000  Uiso   1.00
C4     C     0.16626   0.29077   0.24935   0.00000  Uiso   1.00
C5     C     0.31613   0.13961   0.22324   0.00000  Uiso   1.00
C6     C     0.01720   0.19372   0.27675   0.00000  Uiso   1.00
C7     C     0.03056   0.13963   0.22324   0.00000  Uiso   1.00
C8     C     0.30278   0.19370   0.27676   0.00000  Uiso   1.00
C9     C     0.14014   0.15956   0.33566   0.00000  Uiso   1.00
C10    C     0.19351   0.16494   0.16290   0.00000  Uiso   1.00
C11    C     0.12854   0.13656   0.37816   0.00000  Uiso   1.00
C12    C     0.16674   0.08678   0.25042   0.00000  Uiso   1.00
C13    C     0.20567   0.15237   0.11572   0.00000  Uiso   1.00
C14    C     0.06528   0.11058   0.43549   0.00000  Uiso   1.00
C15    C     0.26717   0.13101   0.05289   0.00000  Uiso   1.00
C16    C     0.08467   0.11971   0.39046   0.00000  Uiso   1.00
C17    C     0.25229   0.14855   0.09539   0.00000  Uiso   1.00
C18    C     0.15944   0.12890   0.40533   0.00000  Uiso   1.00
C19    C     0.17238   0.13872   0.09323   0.00000  Uiso   1.00
C20    C     0.14308   0.11058   0.44830   0.00000  Uiso   1.00
C21    C     0.18627   0.11887   0.05087   0.00000  Uiso   1.00
C22    C     0.09496   0.10491   0.46515   0.00000  Uiso   1.00
C23    C     0.10687   0.09983   0.04166   0.00000  Uiso   1.00
C24    C     0.23431   0.11336   0.03187   0.00000  Uiso   1.00
C25    C     0.17265   0.10340   0.47726   0.00000  Uiso   1.00
C26    C     0.15471   0.10751   0.02444   0.00000  Uiso   1.00
C27    C     0.33003   0.14387   0.43144   0.00000  Uiso   1.00
C28    C     0.00087   0.17045   0.03460   0.00000  Uiso   1.00
C29    C     0.09655   0.05366   0.09990   0.00000  Uiso   1.00
C30    C     0.22454   0.03374   0.41622   0.00000  Uiso   1.00
C31    C     0.26906   0.03559   0.27963   0.00000  Uiso   1.00
C32    C     0.06415   0.29855   0.21991   0.00000  Uiso   1.00
C33    C     0.21900   0.09068   0.46135   0.00000  Uiso   1.00
C34    C     0.07832   0.09535   0.01123   0.00000  Uiso   1.00
C35    C     0.24820   0.09207   0.49083   0.00000  Uiso   1.00
C36    C     0.19468   0.31110   0.27288   0.00000  Uiso   1.00
C37    C     0.13872   0.02232   0.22694   0.00000  Uiso   1.00
C38    C     0.19600   0.02080   0.27303   0.00000  Uiso   1.00
H39    H     0.04312   0.08570   0.02420   0.00000  Uiso   1.00
H40    H     0.02973   0.21546   0.29823   0.00000  Uiso   1.00
H41    H     0.05383   0.11794   0.20172   0.00000  Uiso   1.00
H42    H     0.27952   0.21541   0.29823   0.00000  Uiso   1.00
H43    H     0.32023   0.13291   0.40034   0.00000  Uiso   1.00
H44    H     0.01859   0.17234   0.42419   0.00000  Uiso   1.00
H45    H     0.29800   0.15452   0.45525   0.00000  Uiso   1.00
H46    H     0.01318   0.17260   0.06628   0.00000  Uiso   1.00
H47    H     0.31075   0.19708   0.03175   0.00000  Uiso   1.00
H48    H     0.03181   0.17368   0.00627   0.00000  Uiso   1.00
H49    H     0.13424   0.04798   0.09563   0.00000  Uiso   1.00
H50    H     0.28219   0.07875   0.48036   0.00000  Uiso   1.00
H51    H     0.08170   0.03019   0.08042   0.00000  Uiso   1.00
H52    H     0.07979   0.04928   0.13630   0.00000  Uiso   1.00
H53    H     0.24046   0.02145   0.38196   0.00000  Uiso   1.00
H54    H     0.23848   0.01493   0.44093   0.00000  Uiso   1.00
H55    H     0.18651   0.02958   0.42225   0.00000  Uiso   1.00
H56    H     0.28875   0.05745   0.29613   0.00000  Uiso   1.00
H57    H     0.27831   0.04257   0.24264   0.00000  Uiso   1.00
H58    H     0.28009   0.00337   0.28603   0.00000  Uiso   1.00
H59    H     0.05456   0.29238   0.25707   0.00000  Uiso   1.00
H60    H     0.04427   0.27650   0.20385   0.00000  Uiso   1.00
H61    H     0.13636   0.14446   0.10868   0.00000  Uiso   1.00
H62    H     0.05364   0.33070   0.21259   0.00000  Uiso   1.00
H63    H     0.19488   0.13927   0.39433   0.00000  Uiso   1.00
H64    H     0.27789   0.15882   0.11293   0.00000  Uiso   1.00
H65    H     0.06271   0.11938   0.36672   0.00000  Uiso   1.00
H66    H     0.21508   0.29355   0.29182   0.00000  Uiso   1.00
H67    H     0.11840   0.03991   0.20795   0.00000  Uiso   1.00
H68    H     0.30361   0.11789   0.20173   0.00000  Uiso   1.00
N69    N     0.04759   0.16668   0.25001   0.00000  Uiso   1.00
N70    N     0.28574   0.16666   0.24999   0.00000  Uiso   1.00
O71    O     0.12846   0.22775   0.25001   0.00000  Uiso   1.00
O72    O     0.31363   0.13097   0.03159   0.00000  Uiso   1.00
O73    O     0.08755   0.09474   0.08739   0.00000  Uiso   1.00
O74    O     0.23601   0.07628   0.41767   0.00000  Uiso   1.00
O75    O     0.22145   0.04172   0.29874   0.00000  Uiso   1.00
O76    O     0.11174   0.29170   0.20124   0.00000  Uiso   1.00
O77    O     0.20488   0.10558   0.25000   0.00000  Uiso   1.00
O78    O     0.20490   0.22774   0.25000   0.00000  Uiso   1.00
O79    O     0.12843   0.10559   0.25000   0.00000  Uiso   1.00
O80    O     0.10661   0.16667   0.31613   0.00000  Uiso   1.00
O81    O     0.22672   0.16666   0.18388   0.00000  Uiso   1.00
O82    O     0.18305   0.16666   0.31612   0.00000  Uiso   1.00
O83    O     0.15028   0.16667   0.18388   0.00000  Uiso   1.00
O84    O     0.01773   0.11059   0.45097   0.00000  Uiso   1.00
Zn85   Zn    0.11562   0.16667   0.25000   0.00000  Uiso   1.00
Zn86   Zn    0.21771   0.16666   0.25000   0.00000  Uiso   1.00
C87    C     0.49995   0.24656   0.24949   0.00000  Uiso   1.00
C88    C     0.47065   0.31261   0.22685   0.00000  Uiso   1.00
C89    C     0.50042   0.04262   0.25051   0.00000  Uiso   1.00
C90    C     0.49960   0.29077   0.24935   0.00000  Uiso   1.00
C91    C     0.64947   0.13961   0.22324   0.00000  Uiso   1.00
C92    C     0.35054   0.19372   0.27675   0.00000  Uiso   1.00
C93    C     0.36390   0.13963   0.22324   0.00000  Uiso   1.00
C94    C     0.63611   0.19370   0.27676   0.00000  Uiso   1.00
C95    C     0.47348   0.15956   0.33566   0.00000  Uiso   1.00
C96    C     0.52684   0.16494   0.16290   0.00000  Uiso   1.00
C97    C     0.46188   0.13656   0.37816   0.00000  Uiso   1.00
C98    C     0.50007   0.08678   0.25042   0.00000  Uiso   1.00
C99    C     0.53900   0.15237   0.11572   0.00000  Uiso   1.00
C100   C     0.39861   0.11058   0.43549   0.00000  Uiso   1.00
C101   C     0.60050   0.13101   0.05289   0.00000  Uiso   1.00
C102   C     0.41801   0.11971   0.39046   0.00000  Uiso   1.00
C103   C     0.58562   0.14855   0.09539   0.00000  Uiso   1.00
C104   C     0.49277   0.12890   0.40533   0.00000  Uiso   1.00
C105   C     0.50572   0.13872   0.09323   0.00000  Uiso   1.00
C106   C     0.47641   0.11058   0.44830   0.00000  Uiso   1.00
C107   C     0.51960   0.11887   0.05087   0.00000  Uiso   1.00
C108   C     0.42829   0.10491   0.46515   0.00000  Uiso   1.00
C109   C     0.44020   0.09983   0.04166   0.00000  Uiso   1.00
C110   C     0.56765   0.11336   0.03187   0.00000  Uiso   1.00
C111   C     0.50598   0.10340   0.47726   0.00000  Uiso   1.00
C112   C     0.48804   0.10751   0.02444   0.00000  Uiso   1.00
C113   C     0.66336   0.14387   0.43144   0.00000  Uiso   1.00
C114   C     0.33420   0.17045   0.03460   0.00000  Uiso   1.00
C115   C     0.42988   0.05366   0.09990   0.00000  Uiso   1.00
C116   C     0.55788   0.03374   0.41622   0.00000  Uiso   1.00
C117   C     0.60239   0.03559   0.27963   0.00000  Uiso   1.00
C118   C     0.39749   0.29855   0.21991   0.00000  Uiso   1.00
C119   C     0.55233   0.09068   0.46135   0.00000  Uiso   1.00
C120   C     0.41166   0.09535   0.01123   0.00000  Uiso   1.00
C121   C     0.58153   0.09207   0.49083   0.00000  Uiso   1.00
C122   C     0.52801   0.31110   0.27288   0.00000  Uiso   1.00
C123   C     0.47205   0.02232   0.22694   0.00000  Uiso   1.00
C124   C     0.52933   0.02080   0.27303   0.00000  Uiso   1.00
H125   H     0.37645   0.08570   0.02420   0.00000  Uiso   1.00
H126   H     0.36307   0.21546   0.29823   0.00000  Uiso   1.00
H127   H     0.38717   0.11794   0.20172   0.00000  Uiso   1.00
H128   H     0.61286   0.21541   0.29823   0.00000  Uiso   1.00
H129   H     0.65357   0.13291   0.40034   0.00000  Uiso   1.00
H130   H     0.35192   0.17234   0.42419   0.00000  Uiso   1.00
H131   H     0.63133   0.15452   0.45525   0.00000  Uiso   1.00
H132   H     0.34652   0.17260   0.06628   0.00000  Uiso   1.00
H133   H     0.64409   0.19708   0.03175   0.00000  Uiso   1.00
H134   H     0.36514   0.17368   0.00627   0.00000  Uiso   1.00
H135   H     0.46757   0.04798   0.09563   0.00000  Uiso   1.00
H136   H     0.61552   0.07875   0.48036   0.00000  Uiso   1.00
H137   H     0.41504   0.03019   0.08042   0.00000  Uiso   1.00
H138   H     0.41312   0.04928   0.13630   0.00000  Uiso   1.00
H139   H     0.57379   0.02145   0.38196   0.00000  Uiso   1.00
H140   H     0.57182   0.01493   0.44093   0.00000  Uiso   1.00
H141   H     0.51984   0.02958   0.42225   0.00000  Uiso   1.00
H142   H     0.62208   0.05745   0.29613   0.00000  Uiso   1.00
H143   H     0.61165   0.04257   0.24264   0.00000  Uiso   1.00
H144   H     0.61342   0.00337   0.28603   0.00000  Uiso   1.00
H145   H     0.38789   0.29238   0.25707   0.00000  Uiso   1.00
H146   H     0.37761   0.27650   0.20385   0.00000  Uiso   1.00
H147   H     0.46969   0.14446   0.10868   0.00000  Uiso   1.00
H148   H     0.38697   0.33070   0.21259   0.00000  Uiso   1.00
H149   H     0.52821   0.13927   0.39433   0.00000  Uiso   1.00
H150   H     0.61123   0.15882   0.11293   0.00000  Uiso   1.00
H151   H     0.39605   0.11938   0.36672   0.00000  Uiso   1.00
H152   H     0.54842   0.29355   0.29182   0.00000  Uiso   1.00
H153   H     0.45174   0.03991   0.20795   0.00000  Uiso   1.00
H154   H     0.63695   0.11789   0.20173   0.00000  Uiso   1.00
N155   N     0.38093   0.16668   0.25001   0.00000  Uiso   1.00
N156   N     0.61907   0.16666   0.24999   0.00000  Uiso   1.00
O157   O     0.46179   0.22775   0.25001   0.00000  Uiso   1.00
O158   O     0.64696   0.13097   0.03159   0.00000  Uiso   1.00
O159   O     0.42088   0.09474   0.08739   0.00000  Uiso   1.00
O160   O     0.56934   0.07628   0.41767   0.00000  Uiso   1.00
O161   O     0.55478   0.04172   0.29874   0.00000  Uiso   1.00
O162   O     0.44507   0.29170   0.20124   0.00000  Uiso   1.00
O163   O     0.53821   0.10558   0.25000   0.00000  Uiso   1.00
O164   O     0.53823   0.22774   0.25000   0.00000  Uiso   1.00
O165   O     0.46177   0.10559   0.25000   0.00000  Uiso   1.00
O166   O     0.43994   0.16667   0.31613   0.00000  Uiso   1.00
O167   O     0.56006   0.16666   0.18388   0.00000  Uiso   1.00
O168   O     0.51639   0.16666   0.31612   0.00000  Uiso   1.00
O169   O     0.48361   0.16667   0.18388   0.00000  Uiso   1.00
O170   O     0.35106   0.11059   0.45097   0.00000  Uiso   1.00
Zn171  Zn    0.44896   0.16667   0.25000   0.00000  Uiso   1.00
Zn172  Zn    0.55104   0.16666   0.25000   0.00000  Uiso   1.00
C173   C     0.83328   0.24656   0.24949   0.00000  Uiso   1.00
C174   C     0.80398   0.31261   0.22685   0.00000  Uiso   1.00
C175   C     0.83376   0.04262   0.25051   0.00000  Uiso   1.00
C176   C     0.83293   0.29077   0.24935   0.00000  Uiso   1.00
C177   C     0.98280   0.13961   0.22324   0.00000  Uiso   1.00
C178   C     0.68387   0.19372   0.27675   0.00000  Uiso   1.00
C179   C     0.69723   0.13963   0.22324   0.00000  Uiso   1.00
C180   C     0.96945   0.19370   0.27676   0.00000  Uiso   1.00
C181   C     0.80681   0.15956   0.33566   0.00000  Uiso   1.00
C182   C     0.86018   0.16494   0.16290   0.00000  Uiso   1.00
C183   C     0.79521   0.13656   0.37816   0.00000  Uiso   1.00
C184   C     0.83340   0.08678   0.25042   0.00000  Uiso   1.00
C185   C     0.87234   0.15237   0.11572   0.00000  Uiso   1.00
C186   C     0.73194   0.11058   0.43549   0.00000  Uiso   1.00
C187   C     0.93383   0.13101   0.05289   0.00000  Uiso   1.00
C188   C     0.75134   0.11971   0.39046   0.00000  Uiso   1.00
C189   C     0.91896   0.14855   0.09539   0.00000  Uiso   1.00
C190   C     0.82610   0.12890   0.40533   0.00000  Uiso   1.00
C191   C     0.83905   0.13872   0.09323   0.00000  Uiso   1.00
C192   C     0.80974   0.11058   0.44830   0.00000  Uiso   1.00
C193   C     0.85293   0.11887   0.05087   0.00000  Uiso   1.00
C194   C     0.76162   0.10491   0.46515   0.00000  Uiso   1.00
C195   C     0.77353   0.09983   0.04166   0.00000  Uiso   1.00
C196   C     0.90098   0.11336   0.03187   0.00000  Uiso   1.00
C197   C     0.83931   0.10340   0.47726   0.00000  Uiso   1.00
C198   C     0.82138   0.10751   0.02444   0.00000  Uiso   1.00
C199   C     0.99669   0.14387   0.43144   0.00000  Uiso   1.00
C200   C     0.66753   0.17045   0.03460   0.00000  Uiso   1.00
C201   C     0.76322   0.05366   0.09990   0.00000  Uiso   1.00
C202   C     0.89121   0.03374   0.41622   0.00000  Uiso   1.00
C203   C     0.93572   0.03559   0.27963   0.00000  Uiso   1.00
C204   C     0.73082   0.29855   0.21991   0.00000  Uiso   1.00
C205   C     0.88566   0.09068   0.46135   0.00000  Uiso   1.00
C206   C     0.74499   0.09535   0.01123   0.00000  Uiso   1.00
C207   C     0.91487   0.09207   0.49083   0.00000  Uiso   1.00
C208   C     0.86135   0.31110   0.27288   0.00000  Uiso   1.00
C209   C     0.80539   0.02232   0.22694   0.00000  Uiso   1.00
C210   C     0.86267   0.02080   0.27303   0.00000  Uiso   1.00
H211   H     0.70978   0.08570   0.02420   0.00000  Uiso   1.00
H212   H     0.69640   0.21546   0.29823   0.00000  Uiso   1.00
H213   H     0.72050   0.11794   0.20172   0.00000  Uiso   1.00
H214   H     0.94619   0.21541   0.29823   0.00000  Uiso   1.00
H215   H     0.98690   0.13291   0.40034   0.00000  Uiso   1.00
H216   H     0.68526   0.17234   0.42419   0.00000  Uiso   1.00
H217   H     0.96466   0.15452   0.45525   0.00000  Uiso   1.00
H218   H     0.67985   0.17260   0.06628   0.00000  Uiso   1.00
H219   H     0.97742   0.19708   0.03175   0.00000  Uiso   1.00
H220   H     0.69848   0.17368   0.00627   0.00000  Uiso   1.00
H221   H     0.80090   0.04798   0.09563   0.00000  Uiso   1.00
H222   H     0.94885   0.07875   0.48036   0.00000  Uiso   1.00
H223   H     0.74837   0.03019   0.08042   0.00000  Uiso   1.00
H224   H     0.74646   0.04928   0.13630   0.00000  Uiso   1.00
H225   H     0.90713   0.02145   0.38196   0.00000  Uiso   1.00
H226   H     0.90515   0.01493   0.44093   0.00000  Uiso   1.00
H227   H     0.85317   0.02958   0.42225   0.00000  Uiso   1.00
H228   H     0.95542   0.05745   0.29613   0.00000  Uiso   1.00
H229   H     0.94498   0.04257   0.24264   0.00000  Uiso   1.00
H230   H     0.94676   0.00337   0.28603   0.00000  Uiso   1.00
H231   H     0.72122   0.29238   0.25707   0.00000  Uiso   1.00
H232   H     0.71094   0.27650   0.20385   0.00000  Uiso   1.00
H233   H     0.80303   0.14446   0.10868   0.00000  Uiso   1.00
H234   H     0.72030   0.33070   0.21259   0.00000  Uiso   1.00
H235   H     0.86155   0.13927   0.39433   0.00000  Uiso   1.00
H236   H     0.94456   0.15882   0.11293   0.00000  Uiso   1.00
H237   H     0.72938   0.11938   0.36672   0.00000  Uiso   1.00
H238   H     0.88175   0.29355   0.29182   0.00000  Uiso   1.00
H239   H     0.78507   0.03991   0.20795   0.00000  Uiso   1.00
H240   H     0.97028   0.11789   0.20173   0.00000  Uiso   1.00
N241   N     0.71426   0.16668   0.25001   0.00000  Uiso   1.00
N242   N     0.95241   0.16666   0.24999   0.00000  Uiso   1.00
O243   O     0.79512   0.22775   0.25001   0.00000  Uiso   1.00
O244   O     0.98029   0.13097   0.03159   0.00000  Uiso   1.00
O245   O     0.75421   0.09474   0.08739   0.00000  Uiso   1.00
O246   O     0.90267   0.07628   0.41767   0.00000  Uiso   1.00
O247   O     0.88811   0.04172   0.29874   0.00000  Uiso   1.00
O248   O     0.77840   0.29170   0.20124   0.00000  Uiso   1.00
O249   O     0.87154   0.10558   0.25000   0.00000  Uiso   1.00
O250   O     0.87157   0.22774   0.25000   0.00000  Uiso   1.00
O251   O     0.79510   0.10559   0.25000   0.00000  Uiso   1.00
O252   O     0.77328   0.16667   0.31613   0.00000  Uiso   1.00
O253   O     0.89339   0.16666   0.18388   0.00000  Uiso   1.00
O254   O     0.84972   0.16666   0.31612   0.00000  Uiso   1.00
O255   O     0.81695   0.16667   0.18388   0.00000  Uiso   1.00
O256   O     0.68440   0.11059   0.45097   0.00000  Uiso   1.00
Zn257  Zn    0.78229   0.16667   0.25000   0.00000  Uiso   1.00
Zn258  Zn    0.88438   0.16666   0.25000   0.00000  Uiso   1.00
C259   C     0.16661   0.57989   0.24949   0.00000  Uiso   1.00
C260   C     0.13731   0.64595   0.22685   0.00000  Uiso   1.00
C261   C     0.16709   0.37595   0.25051   0.00000  Uiso   1.00
C262   C     0.16626   0.62410   0.24935   0.00000  Uiso   1.00
C263   C     0.31613   0.47294   0.22324   0.00000  Uiso   1.00
C264   C     0.01720   0.52705   0.27675   0.00000  Uiso   1.00
C265   C     0.03056   0.47296   0.22324   0.00000  Uiso   1.00
C266   C     0.30278   0.52703   0.27676   0.00000  Uiso   1.00
C267   C     0.14014   0.49290   0.33566   0.00000  Uiso   1.00
C268   C     0.19351   0.49827   0.16290   0.00000  Uiso   1.00
C269   C     0.12854   0.46989   0.37816   0.00000  Uiso   1.00
C270   C     0.16674   0.42012   0.25042   0.00000  Uiso   1.00
C271   C     0.20567   0.48570   0.11572   0.00000  Uiso   1.00
C272   C     0.06528   0.44391   0.43549   0.00000  Uiso   1.00
C273   C     0.26717   0.46434   0.05289   0.00000  Uiso   1.00
C274   C     0.08467   0.45305   0.39046   0.00000  Uiso   1.00
C275   C     0.25229   0.48188   0.09539   0.00000  Uiso   1.00
C276   C     0.15944   0.46223   0.40533   0.00000  Uiso   1.00
C277   C     0.17238   0.47206   0.09323   0.00000  Uiso   1.00
C278   C     0.14308   0.44392   0.44830   0.00000  Uiso   1.00
C279   C     0.18627   0.45221   0.05087   0.00000  Uiso   1.00
C280   C     0.09496   0.43824   0.46515   0.00000  Uiso   1.00
C281   C     0.10687   0.43316   0.04166   0.00000  Uiso   1.00
C282   C     0.23431   0.44670   0.03187   0.00000  Uiso   1.00
C283   C     0.17265   0.43673   0.47726   0.00000  Uiso   1.00
C284   C     0.15471   0.44084   0.02444   0.00000  Uiso   1.00
C285   C     0.33003   0.47721   0.43144   0.00000  Uiso   1.00
C286   C     0.00087   0.50379   0.03460   0.00000  Uiso   1.00
C287   C     0.09655   0.38699   0.09990   0.00000  Uiso   1.00
C288   C     0.22454   0.36708   0.41622   0.00000  Uiso   1.00
C289   C     0.26906   0.36892   0.27963   0.00000  Uiso   1.00
C290   C     0.06415   0.63188   0.21991   0.00000  Uiso   1.00
C291   C     0.21900   0.42401   0.46135   0.00000  Uiso   1.00
C292   C     0.07832   0.42869   0.01123   0.00000  Uiso   1.00
C293   C     0.24820   0.42540   0.49083   0.00000  Uiso   1.00
C294   C     0.19468   0.64443   0.27288   0.00000  Uiso   1.00
C295   C     0.13872   0.35565   0.22694   0.00000  Uiso   1.00
C296   C     0.19600   0.35413   0.27303   0.00000  Uiso   1.00
H297   H     0.04312   0.41903   0.02420   0.00000  Uiso   1.00
H298   H     0.02973   0.54879   0.29823   0.00000  Uiso   1.00
H299   H     0.05383   0.45127   0.20172   0.00000  Uiso   1.00
H300   H     0.27952   0.54874   0.29823   0.00000  Uiso   1.00
H301   H     0.32023   0.46625   0.40034   0.00000  Uiso   1.00
H302   H     0.01859   0.50567   0.42419   0.00000  Uiso   1.00
H303   H     0.29800   0.48785   0.45525   0.00000  Uiso   1.00
H304   H     0.01318   0.50593   0.06628   0.00000  Uiso   1.00
H305   H     0.31075   0.53042   0.03175   0.00000  Uiso   1.00
H306   H     0.03181   0.50701   0.00627   0.00000  Uiso   1.00
H307   H     0.13424   0.38131   0.09563   0.00000  Uiso   1.00
H308   H     0.28219   0.41209   0.48036   0.00000  Uiso   1.00
H309   H     0.08170   0.36353   0.08042   0.00000  Uiso   1.00
H310   H     0.07979   0.38262   0.13630   0.00000  Uiso   1.00
H311   H     0.24046   0.35479   0.38196   0.00000  Uiso   1.00
H312   H     0.23848   0.34826   0.44093   0.00000  Uiso   1.00
H313   H     0.18651   0.36291   0.42225   0.00000  Uiso   1.00
H314   H     0.28875   0.39078   0.29613   0.00000  Uiso   1.00
H315   H     0.27831   0.37590   0.24264   0.00000  Uiso   1.00
H316   H     0.28009   0.33670   0.28603   0.00000  Uiso   1.00
H317   H     0.05456   0.62571   0.25707   0.00000  Uiso   1.00
H318   H     0.04427   0.60983   0.20385   0.00000  Uiso   1.00
H319   H     0.13636   0.47780   0.10868   0.00000  Uiso   1.00
H320   H     0.05364   0.66403   0.21259   0.00000  Uiso   1.00
H321   H     0.19488   0.47261   0.39433   0.00000  Uiso   1.00
H322   H     0.27789   0.49216   0.11293   0.00000  Uiso   1.00
H323   H     0.06271   0.45272   0.36672   0.00000  Uiso   1.00
H324   H     0.21508   0.62689   0.29182   0.00000  Uiso   1.00
H325   H     0.11840   0.37324   0.20795   0.00000  Uiso   1.00
H326   H     0.30361   0.45122   0.20173   0.00000  Uiso   1.00
N327   N     0.04759   0.50001   0.25001   0.00000  Uiso   1.00
N328   N     0.28574   0.49999   0.24999   0.00000  Uiso   1.00
O329   O     0.12846   0.56108   0.25001   0.00000  Uiso   1.00
O330   O     0.31363   0.46430   0.03159   0.00000  Uiso   1.00
O331   O     0.08755   0.42807   0.08739   0.00000  Uiso   1.00
O332   O     0.23601   0.40962   0.41767   0.00000  Uiso   1.00
O333   O     0.22145   0.37505   0.29874   0.00000  Uiso   1.00
O334   O     0.11174   0.62503   0.20124   0.00000  Uiso   1.00
O335   O     0.20488   0.43892   0.25000   0.00000  Uiso   1.00
O336   O     0.20490   0.56107   0.25000   0.00000  Uiso   1.00
O337   O     0.12843   0.43893   0.25000   0.00000  Uiso   1.00
O338   O     0.10661   0.50001   0.31613   0.00000  Uiso   1.00
O339   O     0.22672   0.49999   0.18388   0.00000  Uiso   1.00
O340   O     0.18305   0.50000   0.31612   0.00000  Uiso   1.00
O341   O     0.15028   0.50000   0.18388   0.00000  Uiso   1.00
O342   O     0.01773   0.44392   0.45097   0.00000  Uiso   1.00
Zn343  Zn    0.11562   0.50001   0.25000   0.00000  Uiso   1.00
Zn344  Zn    0.21771   0.49999   0.25000   0.00000  Uiso   1.00
C345   C     0.49995   0.57989   0.24949   0.00000  Uiso   1.00
C346   C     0.47065   0.64595   0.22685   0.00000  Uiso   1.00
C347   C     0.50042   0.37595   0.25051   0.00000  Uiso   1.00
C348   C     0.49960   0.62410   0.24935   0.00000  Uiso   1.00
C349   C     0.64947   0.47294   0.22324   0.00000  Uiso   1.00
C350   C     0.35054   0.52705   0.27675   0.00000  Uiso   1.00
C351   C     0.36390   0.47296   0.22324   0.00000  Uiso   1.00
C352   C     0.63611   0.52703   0.27676   0.00000  Uiso   1.00
C353   C     0.47348   0.49290   0.33566   0.00000  Uiso   1.00
C354   C     0.52684   0.49827   0.16290   0.00000  Uiso   1.00
C355   C     0.46188   0.46989   0.37816   0.00000  Uiso   1.00
C356   C     0.50007   0.42012   0.25042   0.00000  Uiso   1.00
C357   C     0.53900   0.48570   0.11572   0.00000  Uiso   1.00
C358   C     0.39861   0.44391   0.43549   0.00000  Uiso   1.00
C359   C     0.60050   0.46434   0.05289   0.00000  Uiso   1.00
C360   C     0.41801   0.45305   0.39046   0.00000  Uiso   1.00
C361   C     0.58562   0.48188   0.09539   0.00000  Uiso   1.00
C362   C     0.49277   0.46223   0.40533   0.00000  Uiso   1.00
C363   C     0.50572   0.47206   0.09323   0.00000  Uiso   1.00
C364   C     0.47641   0.44392   0.44830   0.00000  Uiso   1.00
C365   C     0.51960   0.45221   0.05087   0.00000  Uiso   1.00
C366   C     0.42829   0.43824   0.46515   0.00000  Uiso   1.00
C367   C     0.44020   0.43316   0.04166   0.00000  Uiso   1.00
C368   C     0.56765   0.44670   0.03187   0.00000  Uiso   1.00
C369   C     0.50598   0.43673   0.47726   0.00000  Uiso   1.00
C370   C     0.48804   0.44084   0.02444   0.00000  Uiso   1.00
C371   C     0.66336   0.47721   0.43144   0.00000  Uiso   1.00
C372   C     0.33420   0.50379   0.03460   0.00000  Uiso   1.00
C373   C     0.42988   0.38699   0.09990   0.00000  Uiso   1.00
C374   C     0.55788   0.36708   0.41622   0.00000  Uiso   1.00
C375   C     0.60239   0.36892   0.27963   0.00000  Uiso   1.00
C376   C     0.39749   0.63188   0.21991   0.00000  Uiso   1.00
C377   C     0.55233   0.42401   0.46135   0.00000  Uiso   1.00
C378   C     0.41166   0.42869   0.01123   0.00000  Uiso   1.00
C379   C     0.58153   0.42540   0.49083   0.00000  Uiso   1.00
C380   C     0.52801   0.64443   0.27288   0.00000  Uiso   1.00
C381   C     0.47205   0.35565   0.22694   0.00000  Uiso   1.00
C382   C     0.52933   0.35413   0.27303   0.00000  Uiso   1.00
H383   H     0.37645   0.41903   0.02420   0.00000  Uiso   1.00
H384   H     0.36307   0.54879   0.29823   0.00000  Uiso   1.00
H385   H     0.38717   0.45127   0.20172   0.00000  Uiso   1.00
H386   H     0.61286   0.54874   0.29823   0.00000  Uiso   1.00
H387   H     0.65357   0.46625   0.40034   0.00000  Uiso   1.00
H388   H     0.35192   0.50567   0.42419   0.00000  Uiso   1.00
H389   H     0.63133   0.48785   0.45525   0.00000  Uiso   1.00
H390   H     0.34652   0.50593   0.06628   0.00000  Uiso   1.00
H391   H     0.64409   0.53042   0.03175   0.00000  Uiso   1.00
H392   H     0.36514   0.50701   0.00627   0.00000  Uiso   1.00
H393   H     0.46757   0.38131   0.09563   0.00000  Uiso   1.00
H394   H     0.61552   0.41209   0.48036   0.00000  Uiso   1.00
H395   H     0.41504   0.36353   0.08042   0.00000  Uiso   1.00
H396   H     0.41312   0.38262   0.13630   0.00000  Uiso   1.00
H397   H     0.57379   0.35479   0.38196   0.00000  Uiso   1.00
H398   H     0.57182   0.34826   0.44093   0.00000  Uiso   1.00
H399   H     0.51984   0.36291   0.42225   0.00000  Uiso   1.00
H400   H     0.62208   0.39078   0.29613   0.00000  Uiso   1.00
H401   H     0.61165   0.37590   0.24264   0.00000  Uiso   1.00
H402   H     0.61342   0.33670   0.28603   0.00000  Uiso   1.00
H403   H     0.38789   0.62571   0.25707   0.00000  Uiso   1.00
H404   H     0.37761   0.60983   0.20385   0.00000  Uiso   1.00
H405   H     0.46969   0.47780   0.10868   0.00000  Uiso   1.00
H406   H     0.38697   0.66403   0.21259   0.00000  Uiso   1.00
H407   H     0.52821   0.47261   0.39433   0.00000  Uiso   1.00
H408   H     0.61123   0.49216   0.11293   0.00000  Uiso   1.00
H409   H     0.39605   0.45272   0.36672   0.00000  Uiso   1.00
H410   H     0.54842   0.62689   0.29182   0.00000  Uiso   1.00
H411   H     0.45174   0.37324   0.20795   0.00000  Uiso   1.00
H412   H     0.63695   0.45122   0.20173   0.00000  Uiso   1.00
N413   N     0.38093   0.50001   0.25001   0.00000  Uiso   1.00
N414   N     0.61907   0.49999   0.24999   0.00000  Uiso   1.00
O415   O     0.46179   0.56108   0.25001   0.00000  Uiso   1.00
O416   O     0.64696   0.46430   0.03159   0.00000  Uiso   1.00
O417   O     0.42088   0.42807   0.08739   0.00000  Uiso   1.00
O418   O     0.56934   0.40962   0.41767   0.00000  Uiso   1.00
O419   O     0.55478   0.37505   0.29874   0.00000  Uiso   1.00
O420   O     0.44507   0.62503   0.20124   0.00000  Uiso   1.00
O421   O     0.53821   0.43892   0.25000   0.00000  Uiso   1.00
O422   O     0.53823   0.56107   0.25000   0.00000  Uiso   1.00
O423   O     0.46177   0.43893   0.25000   0.00000  Uiso   1.00
O424   O     0.43994   0.50001   0.31613   0.00000  Uiso   1.00
O425   O     0.56006   0.49999   0.18388   0.00000  Uiso   1.00
O426   O     0.51639   0.50000   0.31612   0.00000  Uiso   1.00
O427   O     0.48361   0.50000   0.18388   0.00000  Uiso   1.00
O428   O     0.35106   0.44392   0.45097   0.00000  Uiso   1.00
Zn429  Zn    0.44896   0.50001   0.25000   0.00000  Uiso   1.00
Zn430  Zn    0.55104   0.49999   0.25000   0.00000  Uiso   1.00
C431   C     0.83328   0.57989   0.24949   0.00000  Uiso   1.00
C432   C     0.80398   0.64595   0.22685   0.00000  Uiso   1.00
C433   C     0.83376   0.37595   0.25051   0.00000  Uiso   1.00
C434   C     0.83293   0.62410   0.24935   0.00000  Uiso   1.00
C435   C     0.98280   0.47294   0.22324   0.00000  Uiso   1.00
C436   C     0.68387   0.52705   0.27675   0.00000  Uiso   1.00
C437   C     0.69723   0.47296   0.22324   0.00000  Uiso   1.00
C438   C     0.96945   0.52703   0.27676   0.00000  Uiso   1.00
C439   C     0.80681   0.49290   0.33566   0.00000  Uiso   1.00
C440   C     0.86018   0.49827   0.16290   0.00000  Uiso   1.00
C441   C     0.79521   0.46989   0.37816   0.00000  Uiso   1.00
C442   C     0.83340   0.42012   0.25042   0.00000  Uiso   1.00
C443   C     0.87234   0.48570   0.11572   0.00000  Uiso   1.00
C444   C     0.73194   0.44391   0.43549   0.00000  Uiso   1.00
C445   C     0.93383   0.46434   0.05289   0.00000  Uiso   1.00
C446   C     0.75134   0.45305   0.39046   0.00000  Uiso   1.00
C447   C     0.91896   0.48188   0.09539   0.00000  Uiso   1.00
C448   C     0.82610   0.46223   0.40533   0.00000  Uiso   1.00
C449   C     0.83905   0.47206   0.09323   0.00000  Uiso   1.00
C450   C     0.80974   0.44392   0.44830   0.00000  Uiso   1.00
C451   C     0.85293   0.45221   0.05087   0.00000  Uiso   1.00
C452   C     0.76162   0.43824   0.46515   0.00000  Uiso   1.00
C453   C     0.77353   0.43316   0.04166   0.00000  Uiso   1.00
C454   C     0.90098   0.44670   0.03187   0.00000  Uiso   1.00
C455   C     0.83931   0.43673   0.47726   0.00000  Uiso   1.00
C456   C     0.82138   0.44084   0.02444   0.00000  Uiso   1.00
C457   C     0.99669   0.47721   0.43144   0.00000  Uiso   1.00
C458   C     0.66753   0.50379   0.03460   0.00000  Uiso   1.00
C459   C     0.76322   0.38699   0.09990   0.00000  Uiso   1.00
C460   C     0.89121   0.36708   0.41622   0.00000  Uiso   1.00
C461   C     0.93572   0.36892   0.27963   0.00000  Uiso   1.00
C462   C     0.73082   0.63188   0.21991   0.00000  Uiso   1.00
C463   C     0.88566   0.42401   0.46135   0.00000  Uiso   1.00
C464   C     0.74499   0.42869   0.01123   0.00000  Uiso   1.00
C465   C     0.91487   0.42540   0.49083   0.00000  Uiso   1.00
C466   C     0.86135   0.64443   0.27288   0.00000  Uiso   1.00
C467   C     0.80539   0.35565   0.22694   0.00000  Uiso   1.00
C468   C     0.86267   0.35413   0.27303   0.00000  Uiso   1.00
H469   H     0.70978   0.41903   0.02420   0.00000  Uiso   1.00
H470   H     0.69640   0.54879   0.29823   0.00000  Uiso   1.00
H471   H     0.72050   0.45127   0.20172   0.00000  Uiso   1.00
H472   H     0.94619   0.54874   0.29823   0.00000  Uiso   1.00
H473   H     0.98690   0.46625   0.40034   0.00000  Uiso   1.00
H474   H     0.68526   0.50567   0.42419   0.00000  Uiso   1.00
H475   H     0.96466   0.48785   0.45525   0.00000  Uiso   1.00
H476   H     0.67985   0.50593   0.06628   0.00000  Uiso   1.00
H477   H     0.97742   0.53042   0.03175   0.00000  Uiso   1.00
H478   H     0.69848   0.50701   0.00627   0.00000  Uiso   1.00
H479   H     0.80090   0.38131   0.09563   0.00000  Uiso   1.00
H480   H     0.94885   0.41209   0.48036   0.00000  Uiso   1.00
H481   H     0.74837   0.36353   0.08042   0.00000  Uiso   1.00
H482   H     0.74646   0.38262   0.13630   0.00000  Uiso   1.00
H483   H     0.90713   0.35479   0.38196   0.00000  Uiso   1.00
H484   H     0.90515   0.34826   0.44093   0.00000  Uiso   1.00
H485   H     0.85317   0.36291   0.42225   0.00000  Uiso   1.00
H486   H     0.95542   0.39078   0.29613   0.00000  Uiso   1.00
H487   H     0.94498   0.37590   0.24264   0.00000  Uiso   1.00
H488   H     0.94676   0.33670   0.28603   0.00000  Uiso   1.00
H489   H     0.72122   0.62571   0.25707   0.00000  Uiso   1.00
H490   H     0.71094   0.60983   0.20385   0.00000  Uiso   1.00
H491   H     0.80303   0.47780   0.10868   0.00000  Uiso   1.00
H492   H     0.72030   0.66403   0.21259   0.00000  Uiso   1.00
H493   H     0.86155   0.47261   0.39433   0.00000  Uiso   1.00
H494   H     0.94456   0.49216   0.11293   0.00000  Uiso   1.00
H495   H     0.72938   0.45272   0.36672   0.00000  Uiso   1.00
H496   H     0.88175   0.62689   0.29182   0.00000  Uiso   1.00
H497   H     0.78507   0.37324   0.20795   0.00000  Uiso   1.00
H498   H     0.97028   0.45122   0.20173   0.00000  Uiso   1.00
N499   N     0.71426   0.50001   0.25001   0.00000  Uiso   1.00
N500   N     0.95241   0.49999   0.24999   0.00000  Uiso   1.00
O501   O     0.79512   0.56108   0.25001   0.00000  Uiso   1.00
O502   O     0.98029   0.46430   0.03159   0.00000  Uiso   1.00
O503   O     0.75421   0.42807   0.08739   0.00000  Uiso   1.00
O504   O     0.90267   0.40962   0.41767   0.00000  Uiso   1.00
O505   O     0.88811   0.37505   0.29874   0.00000  Uiso   1.00
O506   O     0.77840   0.62503   0.20124   0.00000  Uiso   1.00
O507   O     0.87154   0.43892   0.25000   0.00000  Uiso   1.00
O508   O     0.87157   0.56107   0.25000   0.00000  Uiso   1.00
O509   O     0.79510   0.43893   0.25000   0.00000  Uiso   1.00
O510   O     0.77328   0.50001   0.31613   0.00000  Uiso   1.00
O511   O     0.89339   0.49999   0.18388   0.00000  Uiso   1.00
O512   O     0.84972   0.50000   0.31612   0.00000  Uiso   1.00
O513   O     0.81695   0.50000   0.18388   0.00000  Uiso   1.00
O514   O     0.68440   0.44392   0.45097   0.00000  Uiso   1.00
Zn515  Zn    0.78229   0.50001   0.25000   0.00000  Uiso   1.00
Zn516  Zn    0.88438   0.49999   0.25000   0.00000  Uiso   1.00
C517   C     0.16661   0.91323   0.24949   0.00000  Uiso   1.00
C518   C     0.13731   0.97928   0.22685   0.00000  Uiso   1.00
C519   C     0.16709   0.70929   0.25051   0.00000  Uiso   1.00
C520   C     0.16626   0.95743   0.24935   0.00000  Uiso   1.00
C521   C     0.31613   0.80628   0.22324   0.00000  Uiso   1.00
C522   C     0.01720   0.86038   0.27675   0.00000  Uiso   1.00
C523   C     0.03056   0.80630   0.22324   0.00000  Uiso   1.00
C524   C     0.30278   0.86036   0.27676   0.00000  Uiso   1.00
C525   C     0.14014   0.82623   0.33566   0.00000  Uiso   1.00
C526   C     0.19351   0.83160   0.16290   0.00000  Uiso   1.00
C527   C     0.12854   0.80322   0.37816   0.00000  Uiso   1.00
C528   C     0.16674   0.75345   0.25042   0.00000  Uiso   1.00
C529   C     0.20567   0.81904   0.11572   0.00000  Uiso   1.00
C530   C     0.06528   0.77725   0.43549   0.00000  Uiso   1.00
C531   C     0.26717   0.79768   0.05289   0.00000  Uiso   1.00
C532   C     0.08467   0.78638   0.39046   0.00000  Uiso   1.00
C533   C     0.25229   0.81522   0.09539   0.00000  Uiso   1.00
C534   C     0.15944   0.79556   0.40533   0.00000  Uiso   1.00
C535   C     0.17238   0.80539   0.09323   0.00000  Uiso   1.00
C536   C     0.14308   0.77725   0.44830   0.00000  Uiso   1.00
C537   C     0.18627   0.78554   0.05087   0.00000  Uiso   1.00
C538   C     0.09496   0.77157   0.46515   0.00000  Uiso   1.00
C539   C     0.10687   0.76649   0.04166   0.00000  Uiso   1.00
C540   C     0.23431   0.78003   0.03187   0.00000  Uiso   1.00
C541   C     0.17265   0.77006   0.47726   0.00000  Uiso   1.00
C542   C     0.15471   0.77417   0.02444   0.00000  Uiso   1.00
C543   C     0.33003   0.81054   0.43144   0.00000  Uiso   1.00
C544   C     0.00087   0.83712   0.03460   0.00000  Uiso   1.00
C545   C     0.09655   0.72032   0.09990   0.00000  Uiso   1.00
C546   C     0.22454   0.70041   0.41622   0.00000  Uiso   1.00
C547   C     0.26906   0.70226   0.27963   0.00000  Uiso   1.00
C548   C     0.06415   0.96521   0.21991   0.00000  Uiso   1.00
C549   C     0.21900   0.75735   0.46135   0.00000  Uiso   1.00
C550   C     0.07832   0.76202   0.01123   0.00000  Uiso   1.00
C551   C     0.24820   0.75873   0.49083   0.00000  Uiso   1.00
C552   C     0.19468   0.97776   0.27288   0.00000  Uiso   1.00
C553   C     0.13872   0.68899   0.22694   0.00000  Uiso   1.00
C554   C     0.19600   0.68746   0.27303   0.00000  Uiso   1.00
H555   H     0.04312   0.75236   0.02420   0.00000  Uiso   1.00
H556   H     0.02973   0.88213   0.29823   0.00000  Uiso   1.00
H557   H     0.05383   0.78461   0.20172   0.00000  Uiso   1.00
H558   H     0.27952   0.88207   0.29823   0.00000  Uiso   1.00
H559   H     0.32023   0.79958   0.40034   0.00000  Uiso   1.00
H560   H     0.01859   0.83901   0.42419   0.00000  Uiso   1.00
H561   H     0.29800   0.82119   0.45525   0.00000  Uiso   1.00
H562   H     0.01318   0.83926   0.06628   0.00000  Uiso   1.00
H563   H     0.31075   0.86375   0.03175   0.00000  Uiso   1.00
H564   H     0.03181   0.84035   0.00627   0.00000  Uiso   1.00
H565   H     0.13424   0.71464   0.09563   0.00000  Uiso   1.00
H566   H     0.28219   0.74542   0.48036   0.00000  Uiso   1.00
H567   H     0.08170   0.69686   0.08042   0.00000  Uiso   1.00
H568   H     0.07979   0.71595   0.13630   0.00000  Uiso   1.00
H569   H     0.24046   0.68812   0.38196   0.00000  Uiso   1.00
H570   H     0.23848   0.68159   0.44093   0.00000  Uiso   1.00
H571   H     0.18651   0.69625   0.42225   0.00000  Uiso   1.00
H572   H     0.28875   0.72411   0.29613   0.00000  Uiso   1.00
H573   H     0.27831   0.70923   0.24264   0.00000  Uiso   1.00
H574   H     0.28009   0.67004   0.28603   0.00000  Uiso   1.00
H575   H     0.05456   0.95905   0.25707   0.00000  Uiso   1.00
H576   H     0.04427   0.94316   0.20385   0.00000  Uiso   1.00
H577   H     0.13636   0.81113   0.10868   0.00000  Uiso   1.00
H578   H     0.05364   0.99736   0.21259   0.00000  Uiso   1.00
H579   H     0.19488   0.80594   0.39433   0.00000  Uiso   1.00
H580   H     0.27789   0.82549   0.11293   0.00000  Uiso   1.00
H581   H     0.06271   0.78605   0.36672   0.00000  Uiso   1.00
H582   H     0.21508   0.96022   0.29182   0.00000  Uiso   1.00
H583   H     0.11840   0.70658   0.20795   0.00000  Uiso   1.00
H584   H     0.30361   0.78456   0.20173   0.00000  Uiso   1.00
N585   N     0.04759   0.83334   0.25001   0.00000  Uiso   1.00
N586   N     0.28574   0.83332   0.24999   0.00000  Uiso   1.00
O587   O     0.12846   0.89442   0.25001   0.00000  Uiso   1.00
O588   O     0.31363   0.79764   0.03159   0.00000  Uiso   1.00
O589   O     0.08755   0.76141   0.08739   0.00000  Uiso   1.00
O590   O     0.23601   0.74295   0.41767   0.00000  Uiso   1.00
O591   O     0.22145   0.70839   0.29874   0.00000  Uiso   1.00
O592   O     0.11174   0.95837   0.20124   0.00000  Uiso   1.00
O593   O     0.20488   0.77225   0.25000   0.00000  Uiso   1.00
O594   O     0.20490   0.89441   0.25000   0.00000  Uiso   1.00
O595   O     0.12843   0.77226   0.25000   0.00000  Uiso   1.00
O596   O     0.10661   0.83334   0.31613   0.00000  Uiso   1.00
O597   O     0.22672   0.83333   0.18388   0.00000  Uiso   1.00
O598   O     0.18305   0.83333   0.31612   0.00000  Uiso   1.00
O599   O     0.15028   0.83334   0.18388   0.00000  Uiso   1.00
O600   O     0.01773   0.77726   0.45097   0.00000  Uiso   1.00
Zn601  Zn    0.11562   0.83334   0.25000   0.00000  Uiso   1.00
Zn602  Zn    0.21771   0.83333   0.25000   0.00000  Uiso   1.00
C603   C     0.49995   0.91323   0.24949   0.00000  Uiso   1.00
C604   C     0.47065   0.97928   0.22685   0.00000  Uiso   1.00
C605   C     0.50042   0.70929   0.25051   0.00000  Uiso   1.00
C606   C     0.49960   0.95743   0.24935   0.00000  Uiso   1.00
C607   C     0.64947   0.80628   0.22324   0.00000  Uiso   1.00
C608   C     0.35054   0.86038   0.27675   0.00000  Uiso   1.00
C609   C     0.36390   0.80630   0.22324   0.00000  Uiso   1.00
C610   C     0.63611   0.86036   0.27676   0.00000  Uiso   1.00
C611   C     0.47348   0.82623   0.33566   0.00000  Uiso   1.00
C612   C     0.52684   0.83160   0.16290   0.00000  Uiso   1.00
C613   C     0.46188   0.80322   0.37816   0.00000  Uiso   1.00
C614   C     0.50007   0.75345   0.25042   0.00000  Uiso   1.00
C615   C     0.53900   0.81904   0.11572   0.00000  Uiso   1.00
C616   C     0.39861   0.77725   0.43549   0.00000  Uiso   1.00
C617   C     0.60050   0.79768   0.05289   0.00000  Uiso   1.00
C618   C     0.41801   0.78638   0.39046   0.00000  Uiso   1.00
C619   C     0.58562   0.81522   0.09539   0.00000  Uiso   1.00
C620   C     0.49277   0.79556   0.40533   0.00000  Uiso   1.00
C621   C     0.50572   0.80539   0.09323   0.00000  Uiso   1.00
C622   C     0.47641   0.77725   0.44830   0.00000  Uiso   1.00
C623   C     0.51960   0.78554   0.05087   0.00000  Uiso   1.00
C624   C     0.42829   0.77157   0.46515   0.00000  Uiso   1.00
C625   C     0.44020   0.76649   0.04166   0.00000  Uiso   1.00
C626   C     0.56765   0.78003   0.03187   0.00000  Uiso   1.00
C627   C     0.50598   0.77006   0.47726   0.00000  Uiso   1.00
C628   C     0.48804   0.77417   0.02444   0.00000  Uiso   1.00
C629   C     0.66336   0.81054   0.43144   0.00000  Uiso   1.00
C630   C     0.33420   0.83712   0.03460   0.00000  Uiso   1.00
C631   C     0.42988   0.72032   0.09990   0.00000  Uiso   1.00
C632   C     0.55788   0.70041   0.41622   0.00000  Uiso   1.00
C633   C     0.60239   0.70226   0.27963   0.00000  Uiso   1.00
C634   C     0.39749   0.96521   0.21991   0.00000  Uiso   1.00
C635   C     0.55233   0.75735   0.46135   0.00000  Uiso   1.00
C636   C     0.41166   0.76202   0.01123   0.00000  Uiso   1.00
C637   C     0.58153   0.75873   0.49083   0.00000  Uiso   1.00
C638   C     0.52801   0.97776   0.27288   0.00000  Uiso   1.00
C639   C     0.47205   0.68899   0.22694   0.00000  Uiso   1.00
C640   C     0.52933   0.68746   0.27303   0.00000  Uiso   1.00
H641   H     0.37645   0.75236   0.02420   0.00000  Uiso   1.00
H642   H     0.36307   0.88213   0.29823   0.00000  Uiso   1.00
H643   H     0.38717   0.78461   0.20172   0.00000  Uiso   1.00
H644   H     0.61286   0.88207   0.29823   0.00000  Uiso   1.00
H645   H     0.65357   0.79958   0.40034   0.00000  Uiso   1.00
H646   H     0.35192   0.83901   0.42419   0.00000  Uiso   1.00
H647   H     0.63133   0.82119   0.45525   0.00000  Uiso   1.00
H648   H     0.34652   0.83926   0.06628   0.00000  Uiso   1.00
H649   H     0.64409   0.86375   0.03175   0.00000  Uiso   1.00
H650   H     0.36514   0.84035   0.00627   0.00000  Uiso   1.00
H651   H     0.46757   0.71464   0.09563   0.00000  Uiso   1.00
H652   H     0.61552   0.74542   0.48036   0.00000  Uiso   1.00
H653   H     0.41504   0.69686   0.08042   0.00000  Uiso   1.00
H654   H     0.41312   0.71595   0.13630   0.00000  Uiso   1.00
H655   H     0.57379   0.68812   0.38196   0.00000  Uiso   1.00
H656   H     0.57182   0.68159   0.44093   0.00000  Uiso   1.00
H657   H     0.51984   0.69625   0.42225   0.00000  Uiso   1.00
H658   H     0.62208   0.72411   0.29613   0.00000  Uiso   1.00
H659   H     0.61165   0.70923   0.24264   0.00000  Uiso   1.00
H660   H     0.61342   0.67004   0.28603   0.00000  Uiso   1.00
H661   H     0.38789   0.95905   0.25707   0.00000  Uiso   1.00
H662   H     0.37761   0.94316   0.20385   0.00000  Uiso   1.00
H663   H     0.46969   0.81113   0.10868   0.00000  Uiso   1.00
H664   H     0.38697   0.99736   0.21259   0.00000  Uiso   1.00
H665   H     0.52821   0.80594   0.39433   0.00000  Uiso   1.00
H666   H     0.61123   0.82549   0.11293   0.00000  Uiso   1.00
H667   H     0.39605   0.78605   0.36672   0.00000  Uiso   1.00
H668   H     0.54842   0.96022   0.29182   0.00000  Uiso   1.00
H669   H     0.45174   0.70658   0.20795   0.00000  Uiso   1.00
H670   H     0.63695   0.78456   0.20173   0.00000  Uiso   1.00
N671   N     0.38093   0.83334   0.25001   0.00000  Uiso   1.00
N672   N     0.61907   0.83332   0.24999   0.00000  Uiso   1.00
O673   O     0.46179   0.89442   0.25001   0.00000  Uiso   1.00
O674   O     0.64696   0.79764   0.03159   0.00000  Uiso   1.00
O675   O     0.42088   0.76141   0.08739   0.00000  Uiso   1.00
O676   O     0.56934   0.74295   0.41767   0.00000  Uiso   1.00
O677   O     0.55478   0.70839   0.29874   0.00000  Uiso   1.00
O678   O     0.44507   0.95837   0.20124   0.00000  Uiso   1.00
O679   O     0.53821   0.77225   0.25000   0.00000  Uiso   1.00
O680   O     0.53823   0.89441   0.25000   0.00000  Uiso   1.00
O681   O     0.46177   0.77226   0.25000   0.00000  Uiso   1.00
O682   O     0.43994   0.83334   0.31613   0.00000  Uiso   1.00
O683   O     0.56006   0.83333   0.18388   0.00000  Uiso   1.00
O684   O     0.51639   0.83333   0.31612   0.00000  Uiso   1.00
O685   O     0.48361   0.83334   0.18388   0.00000  Uiso   1.00
O686   O     0.35106   0.77726   0.45097   0.00000  Uiso   1.00
Zn687  Zn    0.44896   0.83334   0.25000   0.00000  Uiso   1.00
Zn688  Zn    0.55104   0.83333   0.25000   0.00000  Uiso   1.00
C689   C     0.83328   0.91323   0.24949   0.00000  Uiso   1.00
C690   C     0.80398   0.97928   0.22685   0.00000  Uiso   1.00
C691   C     0.83376   0.70929   0.25051   0.00000  Uiso   1.00
C692   C     0.83293   0.95743   0.24935   0.00000  Uiso   1.00
C693   C     0.98280   0.80628   0.22324   0.00000  Uiso   1.00
C694   C     0.68387   0.86038   0.27675   0.00000  Uiso   1.00
C695   C     0.69723   0.80630   0.22324   0.00000  Uiso   1.00
C696   C     0.96945   0.86036   0.27676   0.00000  Uiso   1.00
C697   C     0.80681   0.82623   0.33566   0.00000  Uiso   1.00
C698   C     0.86018   0.83160   0.16290   0.00000  Uiso   1.00
C699   C     0.79521   0.80322   0.37816   0.00000  Uiso   1.00
C700   C     0.83340   0.75345   0.25042   0.00000  Uiso   1.00
C701   C     0.87234   0.81904   0.11572   0.00000  Uiso   1.00
C702   C     0.73194   0.77725   0.43549   0.00000  Uiso   1.00
C703   C     0.93383   0.79768   0.05289   0.00000  Uiso   1.00
C704   C     0.75134   0.78638   0.39046   0.00000  Uiso   1.00
C705   C     0.91896   0.81522   0.09539   0.00000  Uiso   1.00
C706   C     0.82610   0.79556   0.40533   0.00000  Uiso   1.00
C707   C     0.83905   0.80539   0.09323   0.00000  Uiso   1.00
C708   C     0.80974   0.77725   0.44830   0.00000  Uiso   1.00
C709   C     0.85293   0.78554   0.05087   0.00000  Uiso   1.00
C710   C     0.76162   0.77157   0.46515   0.00000  Uiso   1.00
C711   C     0.77353   0.76649   0.04166   0.00000  Uiso   1.00
C712   C     0.90098   0.78003   0.03187   0.00000  Uiso   1.00
C713   C     0.83931   0.77006   0.47726   0.00000  Uiso   1.00
C714   C     0.82138   0.77417   0.02444   0.00000  Uiso   1.00
C715   C     0.99669   0.81054   0.43144   0.00000  Uiso   1.00
C716   C     0.66753   0.83712   0.03460   0.00000  Uiso   1.00
C717   C     0.76322   0.72032   0.09990   0.00000  Uiso   1.00
C718   C     0.89121   0.70041   0.41622   0.00000  Uiso   1.00
C719   C     0.93572   0.70226   0.27963   0.00000  Uiso   1.00
C720   C     0.73082   0.96521   0.21991   0.00000  Uiso   1.00
C721   C     0.88566   0.75735   0.46135   0.00000  Uiso   1.00
C722   C     0.74499   0.76202   0.01123   0.00000  Uiso   1.00
C723   C     0.91487   0.75873   0.49083   0.00000  Uiso   1.00
C724   C     0.86135   0.97776   0.27288   0.00000  Uiso   1.00
C725   C     0.80539   0.68899   0.22694   0.00000  Uiso   1.00
C726   C     0.86267   0.68746   0.27303   0.00000  Uiso   1.00
H727   H     0.70978   0.75236   0.02420   0.00000  Uiso   1.00
H728   H     0.69640   0.88213   0.29823   0.00000  Uiso   1.00
H729   H     0.72050   0.78461   0.20172   0.00000  Uiso   1.00
H730   H     0.94619   0.88207   0.29823   0.00000  Uiso   1.00
H731   H     0.98690   0.79958   0.40034   0.00000  Uiso   1.00
H732   H     0.68526   0.83901   0.42419   0.00000  Uiso   1.00
H733   H     0.96466   0.82119   0.45525   0.00000  Uiso   1.00
H734   H     0.67985   0.83926   0.06628   0.00000  Uiso   1.00
H735   H     0.97742   0.86375   0.03175   0.00000  Uiso   1.00
H736   H     0.69848   0.84035   0.00627   0.00000  Uiso   1.00
H737   H     0.80090   0.71464   0.09563   0.00000  Uiso   1.00
H738   H     0.94885   0.74542   0.48036   0.00000  Uiso   1.00
H739   H     0.74837   0.69686   0.08042   0.00000  Uiso   1.00
H740   H     0.74646   0.71595   0.13630   0.00000  Uiso   1.00
H741   H     0.90713   0.68812   0.38196   0.00000  Uiso   1.00
H742   H     0.90515   0.68159   0.44093   0.00000  Uiso   1.00
H743   H     0.85317   0.69625   0.42225   0.00000  Uiso   1.00
H744   H     0.95542   0.72411   0.29613   0.00000  Uiso   1.00
H745   H     0.94498   0.70923   0.24264   0.00000  Uiso   1.00
H746   H     0.94676   0.67004   0.28603   0.00000  Uiso   1.00
H747   H     0.72122   0.95905   0.25707   0.00000  Uiso   1.00
H748   H     0.71094   0.94316   0.20385   0.00000  Uiso   1.00
H749   H     0.80303   0.81113   0.10868   0.00000  Uiso   1.00
H750   H     0.72030   0.99736   0.21259   0.00000  Uiso   1.00
H751   H     0.86155   0.80594   0.39433   0.00000  Uiso   1.00
H752   H     0.94456   0.82549   0.11293   0.00000  Uiso   1.00
H753   H     0.72938   0.78605   0.36672   0.00000  Uiso   1.00
H754   H     0.88175   0.96022   0.29182   0.00000  Uiso   1.00
H755   H     0.78507   0.70658   0.20795   0.00000  Uiso   1.00
H756   H     0.97028   0.78456   0.20173   0.00000  Uiso   1.00
N757   N     0.71426   0.83334   0.25001   0.00000  Uiso   1.00
N758   N     0.95241   0.83332   0.24999   0.00000  Uiso   1.00
O759   O     0.79512   0.89442   0.25001   0.00000  Uiso   1.00
O760   O     0.98029   0.79764   0.03159   0.00000  Uiso   1.00
O761   O     0.75421   0.76141   0.08739   0.00000  Uiso   1.00
O762   O     0.90267   0.74295   0.41767   0.00000  Uiso   1.00
O763   O     0.88811   0.70839   0.29874   0.00000  Uiso   1.00
O764   O     0.77840   0.95837   0.20124   0.00000  Uiso   1.00
O765   O     0.87154   0.77225   0.25000   0.00000  Uiso   1.00
O766   O     0.87157   0.89441   0.25000   0.00000  Uiso   1.00
O767   O     0.79510   0.77226   0.25000   0.00000  Uiso   1.00
O768   O     0.77328   0.83334   0.31613   0.00000  Uiso   1.00
O769   O     0.89339   0.83333   0.18388   0.00000  Uiso   1.00
O770   O     0.84972   0.83333   0.31612   0.00000  Uiso   1.00
O771   O     0.81695   0.83334   0.18388   0.00000  Uiso   1.00
O772   O     0.68440   0.77726   0.45097   0.00000  Uiso   1.00
Zn773  Zn    0.78229   0.83334   0.25000   0.00000  Uiso   1.00
Zn774  Zn    0.88438   0.83333   0.25000   0.00000  Uiso   1.00
C775   C     0.16661   0.24656   0.74949   0.00000  Uiso   1.00
C776   C     0.13731   0.31261   0.72685   0.00000  Uiso   1.00
C777   C     0.16709   0.04262   0.75051   0.00000  Uiso   1.00
C778   C     0.16626   0.29077   0.74935   0.00000  Uiso   1.00
C779   C     0.31613   0.13961   0.72324   0.00000  Uiso   1.00
C780   C     0.01720   0.19372   0.77675   0.00000  Uiso   1.00
C781   C     0.03056   0.13963   0.72324   0.00000  Uiso   1.00
C782   C     0.30278   0.19370   0.77676   0.00000  Uiso   1.00
C783   C     0.14014   0.15956   0.83566   0.00000  Uiso   1.00
C784   C     0.19351   0.16494   0.66290   0.00000  Uiso   1.00
C785   C     0.12854   0.13656   0.87816   0.00000  Uiso   1.00
C786   C     0.16674   0.08678   0.75042   0.00000  Uiso   1.00
C787   C     0.20567   0.15237   0.61572   0.00000  Uiso   1.00
C788   C     0.06528   0.11058   0.93549   0.00000  Uiso   1.00
C789   C     0.26717   0.13101   0.55289   0.00000  Uiso   1.00
C790   C     0.08467   0.11971   0.89046   0.00000  Uiso   1.00
C791   C     0.25229   0.14855   0.59539   0.00000  Uiso   1.00
C792   C     0.15944   0.12890   0.90533   0.00000  Uiso   1.00
C793   C     0.17238   0.13872   0.59323   0.00000  Uiso   1.00
C794   C     0.14308   0.11058   0.94830   0.00000  Uiso   1.00
C795   C     0.18627   0.11887   0.55087   0.00000  Uiso   1.00
C796   C     0.09496   0.10491   0.96515   0.00000  Uiso   1.00
C797   C     0.10687   0.09983   0.54166   0.00000  Uiso   1.00
C798   C     0.23431   0.11336   0.53187   0.00000  Uiso   1.00
C799   C     0.17265   0.10340   0.97726   0.00000  Uiso   1.00
C800   C     0.15471   0.10751   0.52444   0.00000  Uiso   1.00
C801   C     0.33003   0.14387   0.93144   0.00000  Uiso   1.00
C802   C     0.00087   0.17045   0.53460   0.00000  Uiso   1.00
C803   C     0.09655   0.05366   0.59990   0.00000  Uiso   1.00
C804   C     0.22454   0.03374   0.91622   0.00000  Uiso   1.00
C805   C     0.26906   0.03559   0.77963   0.00000  Uiso   1.00
C806   C     0.06415   0.29855   0.71991   0.00000  Uiso   1.00
C807   C     0.21900   0.09068   0.96135   0.00000  Uiso   1.00
C808   C     0.07832   0.09535   0.51123   0.00000  Uiso   1.00
C809   C     0.24820   0.09207   0.99083   0.00000  Uiso   1.00
C810   C     0.19468   0.31110   0.77288   0.00000  Uiso   1.00
C811   C     0.13872   0.02232   0.72694   0.00000  Uiso   1.00
C812   C     0.19600   0.02080   0.77303   0.00000  Uiso   1.00
H813   H     0.04312   0.08570   0.52420   0.00000  Uiso   1.00
H814   H     0.02973   0.21546   0.79823   0.00000  Uiso   1.00
H815   H     0.05383   0.11794   0.70172   0.00000  Uiso   1.00
H816   H     0.27952   0.21541   0.79823   0.00000  Uiso   1.00
H817   H     0.32023   0.13291   0.90034   0.00000  Uiso   1.00
H818   H     0.01859   0.17234   0.92419   0.00000  Uiso   1.00
H819   H     0.29800   0.15452   0.95525   0.00000  Uiso   1.00
H820   H     0.01318   0.17260   0.56628   0.00000  Uiso   1.00
H821   H     0.31075   0.19708   0.53175   0.00000  Uiso   1.00
H822   H     0.03181   0.17368   0.50627   0.00000  Uiso   1.00
H823   H     0.13424   0.04798   0.59563   0.00000  Uiso   1.00
H824   H     0.28219   0.07875   0.98036   0.00000  Uiso   1.00
H825   H     0.08170   0.03019   0.58042   0.00000  Uiso   1.00
H826   H     0.07979   0.04928   0.63630   0.00000  Uiso   1.00
H827   H     0.24046   0.02145   0.88196   0.00000  Uiso   1.00
H828   H     0.23848   0.01493   0.94093   0.00000  Uiso   1.00
H829   H     0.18651   0.02958   0.92225   0.00000  Uiso   1.00
H830   H     0.28875   0.05745   0.79613   0.00000  Uiso   1.00
H831   H     0.27831   0.04257   0.74264   0.00000  Uiso   1.00
H832   H     0.28009   0.00337   0.78603   0.00000  Uiso   1.00
H833   H     0.05456   0.29238   0.75707   0.00000  Uiso   1.00
H834   H     0.04427   0.27650   0.70385   0.00000  Uiso   1.00
H835   H     0.13636   0.14446   0.60868   0.00000  Uiso   1.00
H836   H     0.05364   0.33070   0.71259   0.00000  Uiso   1.00
H837   H     0.19488   0.13927   0.89433   0.00000  Uiso   1.00
H838   H     0.27789   0.15882   0.61293   0.00000  Uiso   1.00
H839   H     0.06271   0.11938   0.86672   0.00000  Uiso   1.00
H840   H     0.21508   0.29355   0.79182   0.00000  Uiso   1.00
H841   H     0.11840   0.03991   0.70795   0.00000  Uiso   1.00
H842   H     0.30361   0.11789   0.70173   0.00000  Uiso   1.00
N843   N     0.04759   0.16668   0.75001   0.00000  Uiso   1.00
N844   N     0.28574   0.16666   0.74999   0.00000  Uiso   1.00
O845   O     0.12846   0.22775   0.75001   0.00000  Uiso   1.00
O846   O     0.31363   0.13097   0.53159   0.00000  Uiso   1.00
O847   O     0.08755   0.09474   0.58739   0.00000  Uiso   1.00
O848   O     0.23601   0.07628   0.91767   0.00000  Uiso   1.00
O849   O     0.22145   0.04172   0.79874   0.00000  Uiso   1.00
O850   O     0.11174   0.29170   0.70124   0.00000  Uiso   1.00
O851   O     0.20488   0.10558   0.75000   0.00000  Uiso   1.00
O852   O     0.20490   0.22774   0.75000   0.00000  Uiso   1.00
O853   O     0.12843   0.10559   0.75000   0.00000  Uiso   1.00
O854   O     0.10661   0.16667   0.81613   0.00000  Uiso   1.00
O855   O     0.22672   0.16666   0.68388   0.00000  Uiso   1.00
O856   O     0.18305   0.16666   0.81612   0.00000  Uiso   1.00
O857   O     0.15028   0.16667   0.68388   0.00000  Uiso   1.00
O858   O     0.01773   0.11059   0.95097   0.00000  Uiso   1.00
Zn859  Zn    0.11562   0.16667   0.75000   0.00000  Uiso   1.00
Zn860  Zn    0.21771   0.16666   0.75000   0.00000  Uiso   1.00
C861   C     0.49995   0.24656   0.74949   0.00000  Uiso   1.00
C862   C     0.47065   0.31261   0.72685   0.00000  Uiso   1.00
C863   C     0.50042   0.04262   0.75051   0.00000  Uiso   1.00
C864   C     0.49960   0.29077   0.74935   0.00000  Uiso   1.00
C865   C     0.64947   0.13961   0.72324   0.00000  Uiso   1.00
C866   C     0.35054   0.19372   0.77675   0.00000  Uiso   1.00
C867   C     0.36390   0.13963   0.72324   0.00000  Uiso   1.00
C868   C     0.63611   0.19370   0.77676   0.00000  Uiso   1.00
C869   C     0.47348   0.15956   0.83566   0.00000  Uiso   1.00
C870   C     0.52684   0.16494   0.66290   0.00000  Uiso   1.00
C871   C     0.46188   0.13656   0.87816   0.00000  Uiso   1.00
C872   C     0.50007   0.08678   0.75042   0.00000  Uiso   1.00
C873   C     0.53900   0.15237   0.61572   0.00000  Uiso   1.00
C874   C     0.39861   0.11058   0.93549   0.00000  Uiso   1.00
C875   C     0.60050   0.13101   0.55289   0.00000  Uiso   1.00
C876   C     0.41801   0.11971   0.89046   0.00000  Uiso   1.00
C877   C     0.58562   0.14855   0.59539   0.00000  Uiso   1.00
C878   C     0.49277   0.12890   0.90533   0.00000  Uiso   1.00
C879   C     0.50572   0.13872   0.59323   0.00000  Uiso   1.00
C880   C     0.47641   0.11058   0.94830   0.00000  Uiso   1.00
C881   C     0.51960   0.11887   0.55087   0.00000  Uiso   1.00
C882   C     0.42829   0.10491   0.96515   0.00000  Uiso   1.00
C883   C     0.44020   0.09983   0.54166   0.00000  Uiso   1.00
C884   C     0.56765   0.11336   0.53187   0.00000  Uiso   1.00
C885   C     0.50598   0.10340   0.97726   0.00000  Uiso   1.00
C886   C     0.48804   0.10751   0.52444   0.00000  Uiso   1.00
C887   C     0.66336   0.14387   0.93144   0.00000  Uiso   1.00
C888   C     0.33420   0.17045   0.53460   0.00000  Uiso   1.00
C889   C     0.42988   0.05366   0.59990   0.00000  Uiso   1.00
C890   C     0.55788   0.03374   0.91622   0.00000  Uiso   1.00
C891   C     0.60239   0.03559   0.77963   0.00000  Uiso   1.00
C892   C     0.39749   0.29855   0.71991   0.00000  Uiso   1.00
C893   C     0.55233   0.09068   0.96135   0.00000  Uiso   1.00
C894   C     0.41166   0.09535   0.51123   0.00000  Uiso   1.00
C895   C     0.58153   0.09207   0.99083   0.00000  Uiso   1.00
C896   C     0.52801   0.31110   0.77288   0.00000  Uiso   1.00
C897   C     0.47205   0.02232   0.72694   0.00000  Uiso   1.00
C898   C     0.52933   0.02080   0.77303   0.00000  Uiso   1.00
H899   H     0.37645   0.08570   0.52420   0.00000  Uiso   1.00
H900   H     0.36307   0.21546   0.79823   0.00000  Uiso   1.00
H901   H     0.38717   0.11794   0.70172   0.00000  Uiso   1.00
H902   H     0.61286   0.21541   0.79823   0.00000  Uiso   1.00
H903   H     0.65357   0.13291   0.90034   0.00000  Uiso   1.00
H904   H     0.35192   0.17234   0.92419   0.00000  Uiso   1.00
H905   H     0.63133   0.15452   0.95525   0.00000  Uiso   1.00
H906   H     0.34652   0.17260   0.56628   0.00000  Uiso   1.00
H907   H     0.64409   0.19708   0.53175   0.00000  Uiso   1.00
H908   H     0.36514   0.17368   0.50627   0.00000  Uiso   1.00
H909   H     0.46757   0.04798   0.59563   0.00000  Uiso   1.00
H910   H     0.61552   0.07875   0.98036   0.00000  Uiso   1.00
H911   H     0.41504   0.03019   0.58042   0.00000  Uiso   1.00
H912   H     0.41312   0.04928   0.63630   0.00000  Uiso   1.00
H913   H     0.57379   0.02145   0.88196   0.00000  Uiso   1.00
H914   H     0.57182   0.01493   0.94093   0.00000  Uiso   1.00
H915   H     0.51984   0.02958   0.92225   0.00000  Uiso   1.00
H916   H     0.62208   0.05745   0.79613   0.00000  Uiso   1.00
H917   H     0.61165   0.04257   0.74264   0.00000  Uiso   1.00
H918   H     0.61342   0.00337   0.78603   0.00000  Uiso   1.00
H919   H     0.38789   0.29238   0.75707   0.00000  Uiso   1.00
H920   H     0.37761   0.27650   0.70385   0.00000  Uiso   1.00
H921   H     0.46969   0.14446   0.60868   0.00000  Uiso   1.00
H922   H     0.38697   0.33070   0.71259   0.00000  Uiso   1.00
H923   H     0.52821   0.13927   0.89433   0.00000  Uiso   1.00
H924   H     0.61123   0.15882   0.61293   0.00000  Uiso   1.00
H925   H     0.39605   0.11938   0.86672   0.00000  Uiso   1.00
H926   H     0.54842   0.29355   0.79182   0.00000  Uiso   1.00
H927   H     0.45174   0.03991   0.70795   0.00000  Uiso   1.00
H928   H     0.63695   0.11789   0.70173   0.00000  Uiso   1.00
N929   N     0.38093   0.16668   0.75001   0.00000  Uiso   1.00
N930   N     0.61907   0.16666   0.74999   0.00000  Uiso   1.00
O931   O     0.46179   0.22775   0.75001   0.00000  Uiso   1.00
O932   O     0.64696   0.13097   0.53159   0.00000  Uiso   1.00
O933   O     0.42088   0.09474   0.58739   0.00000  Uiso   1.00
O934   O     0.56934   0.07628   0.91767   0.00000  Uiso   1.00
O935   O     0.55478   0.04172   0.79874   0.00000  Uiso   1.00
O936   O     0.44507   0.29170   0.70124   0.00000  Uiso   1.00
O937   O     0.53821   0.10558   0.75000   0.00000  Uiso   1.00
O938   O     0.53823   0.22774   0.75000   0.00000  Uiso   1.00
O939   O     0.46177   0.10559   0.75000   0.00000  Uiso   1.00
O940   O     0.43994   0.16667   0.81613   0.00000  Uiso   1.00
O941   O     0.56006   0.16666   0.68388   0.00000  Uiso   1.00
O942   O     0.51639   0.16666   0.81612   0.00000  Uiso   1.00
O943   O     0.48361   0.16667   0.68388   0.00000  Uiso   1.00
O944   O     0.35106   0.11059   0.95097   0.00000  Uiso   1.00
Zn945  Zn    0.44896   0.16667   0.75000   0.00000  Uiso   1.00
Zn946  Zn    0.55104   0.16666   0.75000   0.00000  Uiso   1.00
C947   C     0.83328   0.24656   0.74949   0.00000  Uiso   1.00
C948   C     0.80398   0.31261   0.72685   0.00000  Uiso   1.00
C949   C     0.83376   0.04262   0.75051   0.00000  Uiso   1.00
C950   C     0.83293   0.29077   0.74935   0.00000  Uiso   1.00
C951   C     0.98280   0.13961   0.72324   0.00000  Uiso   1.00
C952   C     0.68387   0.19372   0.77675   0.00000  Uiso   1.00
C953   C     0.69723   0.13963   0.72324   0.00000  Uiso   1.00
C954   C     0.96945   0.19370   0.77676   0.00000  Uiso   1.00
C955   C     0.80681   0.15956   0.83566   0.00000  Uiso   1.00
C956   C     0.86018   0.16494   0.66290   0.00000  Uiso   1.00
C957   C     0.79521   0.13656   0.87816   0.00000  Uiso   1.00
C958   C     0.83340   0.08678   0.75042   0.00000  Uiso   1.00
C959   C     0.87234   0.15237   0.61572   0.00000  Uiso   1.00
C960   C     0.73194   0.11058   0.93549   0.00000  Uiso   1.00
C961   C     0.93383   0.13101   0.55289   0.00000  Uiso   1.00
C962   C     0.75134   0.11971   0.89046   0.00000  Uiso   1.00
C963   C     0.91896   0.14855   0.59539   0.00000  Uiso   1.00
C964   C     0.82610   0.12890   0.90533   0.00000  Uiso   1.00
C965   C     0.83905   0.13872   0.59323   0.00000  Uiso   1.00
C966   C     0.80974   0.11058   0.94830   0.00000  Uiso   1.00
C967   C     0.85293   0.11887   0.55087   0.00000  Uiso   1.00
C968   C     0.76162   0.10491   0.96515   0.00000  Uiso   1.00
C969   C     0.77353   0.09983   0.54166   0.00000  Uiso   1.00
C970   C     0.90098   0.11336   0.53187   0.00000  Uiso   1.00
C971   C     0.83931   0.10340   0.97726   0.00000  Uiso   1.00
C972   C     0.82138   0.10751   0.52444   0.00000  Uiso   1.00
C973   C     0.99669   0.14387   0.93144   0.00000  Uiso   1.00
C974   C     0.66753   0.17045   0.53460   0.00000  Uiso   1.00
C975   C     0.76322   0.05366   0.59990   0.00000  Uiso   1.00
C976   C     0.89121   0.03374   0.91622   0.00000  Uiso   1.00
C977   C     0.93572   0.03559   0.77963   0.00000  Uiso   1.00
C978   C     0.73082   0.29855   0.71991   0.00000  Uiso   1.00
C979   C     0.88566   0.09068   0.96135   0.00000  Uiso   1.00
C980   C     0.74499   0.09535   0.51123   0.00000  Uiso   1.00
C981   C     0.91487   0.09207   0.99083   0.00000  Uiso   1.00
C982   C     0.86135   0.31110   0.77288   0.00000  Uiso   1.00
C983   C     0.80539   0.02232   0.72694   0.00000  Uiso   1.00
C984   C     0.86267   0.02080   0.77303   0.00000  Uiso   1.00
H985   H     0.70978   0.08570   0.52420   0.00000  Uiso   1.00
H986   H     0.69640   0.21546   0.79823   0.00000  Uiso   1.00
H987   H     0.72050   0.11794   0.70172   0.00000  Uiso   1.00
H988   H     0.94619   0.21541   0.79823   0.00000  Uiso   1.00
H989   H     0.98690   0.13291   0.90034   0.00000  Uiso   1.00
H990   H     0.68526   0.17234   0.92419   0.00000  Uiso   1.00
H991   H     0.96466   0.15452   0.95525   0.00000  Uiso   1.00
H992   H     0.67985   0.17260   0.56628   0.00000  Uiso   1.00
H993   H     0.97742   0.19708   0.53175   0.00000  Uiso   1.00
H994   H     0.69848   0.17368   0.50627   0.00000  Uiso   1.00
H995   H     0.80090   0.04798   0.59563   0.00000  Uiso   1.00
H996   H     0.94885   0.07875   0.98036   0.00000  Uiso   1.00
H997   H     0.74837   0.03019   0.58042   0.00000  Uiso   1.00
H998   H     0.74646   0.04928   0.63630   0.00000  Uiso   1.00
H999   H     0.90713   0.02145   0.88196   0.00000  Uiso   1.00
H1000  H     0.90515   0.01493   0.94093   0.00000  Uiso   1.00
H1001  H     0.85317   0.02958   0.92225   0.00000  Uiso   1.00
H1002  H     0.95542   0.05745   0.79613   0.00000  Uiso   1.00
H1003  H     0.94498   0.04257   0.74264   0.00000  Uiso   1.00
H1004  H     0.94676   0.00337   0.78603   0.00000  Uiso   1.00
H1005  H     0.72122   0.29238   0.75707   0.00000  Uiso   1.00
H1006  H     0.71094   0.27650   0.70385   0.00000  Uiso   1.00
H1007  H     0.80303   0.14446   0.60868   0.00000  Uiso   1.00
H1008  H     0.72030   0.33070   0.71259   0.00000  Uiso   1.00
H1009  H     0.86155   0.13927   0.89433   0.00000  Uiso   1.00
H1010  H     0.94456   0.15882   0.61293   0.00000  Uiso   1.00
H1011  H     0.72938   0.11938   0.86672   0.00000  Uiso   1.00
H1012  H     0.88175   0.29355   0.79182   0.00000  Uiso   1.00
H1013  H     0.78507   0.03991   0.70795   0.00000  Uiso   1.00
H1014  H     0.97028   0.11789   0.70173   0.00000  Uiso   1.00
N1015  N     0.71426   0.16668   0.75001   0.00000  Uiso   1.00
N1016  N     0.95241   0.16666   0.74999   0.00000  Uiso   1.00
O1017  O     0.79512   0.22775   0.75001   0.00000  Uiso   1.00
O1018  O     0.98029   0.13097   0.53159   0.00000  Uiso   1.00
O1019  O     0.75421   0.09474   0.58739   0.00000  Uiso   1.00
O1020  O     0.90267   0.07628   0.91767   0.00000  Uiso   1.00
O1021  O     0.88811   0.04172   0.79874   0.00000  Uiso   1.00
O1022  O     0.77840   0.29170   0.70124   0.00000  Uiso   1.00
O1023  O     0.87154   0.10558   0.75000   0.00000  Uiso   1.00
O1024  O     0.87157   0.22774   0.75000   0.00000  Uiso   1.00
O1025  O     0.79510   0.10559   0.75000   0.00000  Uiso   1.00
O1026  O     0.77328   0.16667   0.81613   0.00000  Uiso   1.00
O1027  O     0.89339   0.16666   0.68388   0.00000  Uiso   1.00
O1028  O     0.84972   0.16666   0.81612   0.00000  Uiso   1.00
O1029  O     0.81695   0.16667   0.68388   0.00000  Uiso   1.00
O1030  O     0.68440   0.11059   0.95097   0.00000  Uiso   1.00
Zn1031 Zn    0.78229   0.16667   0.75000   0.00000  Uiso   1.00
Zn1032 Zn    0.88438   0.16666   0.75000   0.00000  Uiso   1.00
C1033  C     0.16661   0.57989   0.74949   0.00000  Uiso   1.00
C1034  C     0.13731   0.64595   0.72685   0.00000  Uiso   1.00
C1035  C     0.16709   0.37595   0.75051   0.00000  Uiso   1.00
C1036  C     0.16626   0.62410   0.74935   0.00000  Uiso   1.00
C1037  C     0.31613   0.47294   0.72324   0.00000  Uiso   1.00
C1038  C     0.01720   0.52705   0.77675   0.00000  Uiso   1.00
C1039  C     0.03056   0.47296   0.72324   0.00000  Uiso   1.00
C1040  C     0.30278   0.52703   0.77676   0.00000  Uiso   1.00
C1041  C     0.14014   0.49290   0.83566   0.00000  Uiso   1.00
C1042  C     0.19351   0.49827   0.66290   0.00000  Uiso   1.00
C1043  C     0.12854   0.46989   0.87816   0.00000  Uiso   1.00
C1044  C     0.16674   0.42012   0.75042   0.00000  Uiso   1.00
C1045  C     0.20567   0.48570   0.61572   0.00000  Uiso   1.00
C1046  C     0.06528   0.44391   0.93549   0.00000  Uiso   1.00
C1047  C     0.26717   0.46434   0.55289   0.00000  Uiso   1.00
C1048  C     0.08467   0.45305   0.89046   0.00000  Uiso   1.00
C1049  C     0.25229   0.48188   0.59539   0.00000  Uiso   1.00
C1050  C     0.15944   0.46223   0.90533   0.00000  Uiso   1.00
C1051  C     0.17238   0.47206   0.59323   0.00000  Uiso   1.00
C1052  C     0.14308   0.44392   0.94830   0.00000  Uiso   1.00
C1053  C     0.18627   0.45221   0.55087   0.00000  Uiso   1.00
C1054  C     0.09496   0.43824   0.96515   0.00000  Uiso   1.00
C1055  C     0.10687   0.43316   0.54166   0.00000  Uiso   1.00
C1056  C     0.23431   0.44670   0.53187   0.00000  Uiso   1.00
C1057  C     0.17265   0.43673   0.97726   0.00000  Uiso   1.00
C1058  C     0.15471   0.44084   0.52444   0.00000  Uiso   1.00
C1059  C     0.33003   0.47721   0.93144   0.00000  Uiso   1.00
C1060  C     0.00087   0.50379   0.53460   0.00000  Uiso   1.00
C1061  C     0.09655   0.38699   0.59990   0.00000  Uiso   1.00
C1062  C     0.22454   0.36708   0.91622   0.00000  Uiso   1.00
C1063  C     0.26906   0.36892   0.77963   0.00000  Uiso   1.00
C1064  C     0.06415   0.63188   0.71991   0.00000  Uiso   1.00
C1065  C     0.21900   0.42401   0.96135   0.00000  Uiso   1.00
C1066  C     0.07832   0.42869   0.51123   0.00000  Uiso   1.00
C1067  C     0.24820   0.42540   0.99083   0.00000  Uiso   1.00
C1068  C     0.19468   0.64443   0.77288   0.00000  Uiso   1.00
C1069  C     0.13872   0.35565   0.72694   0.00000  Uiso   1.00
C1070  C     0.19600   0.35413   0.77303   0.00000  Uiso   1.00
H1071  H     0.04312   0.41903   0.52420   0.00000  Uiso   1.00
H1072  H     0.02973   0.54879   0.79823   0.00000  Uiso   1.00
H1073  H     0.05383   0.45127   0.70172   0.00000  Uiso   1.00
H1074  H     0.27952   0.54874   0.79823   0.00000  Uiso   1.00
H1075  H     0.32023   0.46625   0.90034   0.00000  Uiso   1.00
H1076  H     0.01859   0.50567   0.92419   0.00000  Uiso   1.00
H1077  H     0.29800   0.48785   0.95525   0.00000  Uiso   1.00
H1078  H     0.01318   0.50593   0.56628   0.00000  Uiso   1.00
H1079  H     0.31075   0.53042   0.53175   0.00000  Uiso   1.00
H1080  H     0.03181   0.50701   0.50627   0.00000  Uiso   1.00
H1081  H     0.13424   0.38131   0.59563   0.00000  Uiso   1.00
H1082  H     0.28219   0.41209   0.98036   0.00000  Uiso   1.00
H1083  H     0.08170   0.36353   0.58042   0.00000  Uiso   1.00
H1084  H     0.07979   0.38262   0.63630   0.00000  Uiso   1.00
H1085  H     0.24046   0.35479   0.88196   0.00000  Uiso   1.00
H1086  H     0.23848   0.34826   0.94093   0.00000  Uiso   1.00
H1087  H     0.18651   0.36291   0.92225   0.00000  Uiso   1.00
H1088  H     0.28875   0.39078   0.79613   0.00000  Uiso   1.00
H1089  H     0.27831   0.37590   0.74264   0.00000  Uiso   1.00
H1090  H     0.28009   0.33670   0.78603   0.00000  Uiso   1.00
H1091  H     0.05456   0.62571   0.75707   0.00000  Uiso   1.00
H1092  H     0.04427   0.60983   0.70385   0.00000  Uiso   1.00
H1093  H     0.13636   0.47780   0.60868   0.00000  Uiso   1.00
H1094  H     0.05364   0.66403   0.71259   0.00000  Uiso   1.00
H1095  H     0.19488   0.47261   0.89433   0.00000  Uiso   1.00
H1096  H     0.27789   0.49216   0.61293   0.00000  Uiso   1.00
H1097  H     0.06271   0.45272   0.86672   0.00000  Uiso   1.00
H1098  H     0.21508   0.62689   0.79182   0.00000  Uiso   1.00
H1099  H     0.11840   0.37324   0.70795   0.00000  Uiso   1.00
H1100  H     0.30361   0.45122   0.70173   0.00000  Uiso   1.00
N1101  N     0.04759   0.50001   0.75001   0.00000  Uiso   1.00
N1102  N     0.28574   0.49999   0.74999   0.00000  Uiso   1.00
O1103  O     0.12846   0.56108   0.75001   0.00000  Uiso   1.00
O1104  O     0.31363   0.46430   0.53159   0.00000  Uiso   1.00
O1105  O     0.08755   0.42807   0.58739   0.00000  Uiso   1.00
O1106  O     0.23601   0.40962   0.91767   0.00000  Uiso   1.00
O1107  O     0.22145   0.37505   0.79874   0.00000  Uiso   1.00
O1108  O     0.11174   0.62503   0.70124   0.00000  Uiso   1.00
O1109  O     0.20488   0.43892   0.75000   0.00000  Uiso   1.00
O1110  O     0.20490   0.56107   0.75000   0.00000  Uiso   1.00
O1111  O     0.12843   0.43893   0.75000   0.00000  Uiso   1.00
O1112  O     0.10661   0.50001   0.81613   0.00000  Uiso   1.00
O1113  O     0.22672   0.49999   0.68388   0.00000  Uiso   1.00
O1114  O     0.18305   0.50000   0.81612   0.00000  Uiso   1.00
O1115  O     0.15028   0.50000   0.68388   0.00000  Uiso   1.00
O1116  O     0.01773   0.44392   0.95097   0.00000  Uiso   1.00
Zn1117 Zn    0.11562   0.50001   0.75000   0.00000  Uiso   1.00
Zn1118 Zn    0.21771   0.49999   0.75000   0.00000  Uiso   1.00
C1119  C     0.49995   0.57989   0.74949   0.00000  Uiso   1.00
C1120  C     0.47065   0.64595   0.72685   0.00000  Uiso   1.00
C1121  C     0.50042   0.37595   0.75051   0.00000  Uiso   1.00
C1122  C     0.49960   0.62410   0.74935   0.00000  Uiso   1.00
C1123  C     0.64947   0.47294   0.72324   0.00000  Uiso   1.00
C1124  C     0.35054   0.52705   0.77675   0.00000  Uiso   1.00
C1125  C     0.36390   0.47296   0.72324   0.00000  Uiso   1.00
C1126  C     0.63611   0.52703   0.77676   0.00000  Uiso   1.00
C1127  C     0.47348   0.49290   0.83566   0.00000  Uiso   1.00
C1128  C     0.52684   0.49827   0.66290   0.00000  Uiso   1.00
C1129  C     0.46188   0.46989   0.87816   0.00000  Uiso   1.00
C1130  C     0.50007   0.42012   0.75042   0.00000  Uiso   1.00
C1131  C     0.53900   0.48570   0.61572   0.00000  Uiso   1.00
C1132  C     0.39861   0.44391   0.93549   0.00000  Uiso   1.00
C1133  C     0.60050   0.46434   0.55289   0.00000  Uiso   1.00
C1134  C     0.41801   0.45305   0.89046   0.00000  Uiso   1.00
C1135  C     0.58562   0.48188   0.59539   0.00000  Uiso   1.00
C1136  C     0.49277   0.46223   0.90533   0.00000  Uiso   1.00
C1137  C     0.50572   0.47206   0.59323   0.00000  Uiso   1.00
C1138  C     0.47641   0.44392   0.94830   0.00000  Uiso   1.00
C1139  C     0.51960   0.45221   0.55087   0.00000  Uiso   1.00
C1140  C     0.42829   0.43824   0.96515   0.00000  Uiso   1.00
C1141  C     0.44020   0.43316   0.54166   0.00000  Uiso   1.00
C1142  C     0.56765   0.44670   0.53187   0.00000  Uiso   1.00
C1143  C     0.50598   0.43673   0.97726   0.00000  Uiso   1.00
C1144  C     0.48804   0.44084   0.52444   0.00000  Uiso   1.00
C1145  C     0.66336   0.47721   0.93144   0.00000  Uiso   1.00
C1146  C     0.33420   0.50379   0.53460   0.00000  Uiso   1.00
C1147  C     0.42988   0.38699   0.59990   0.00000  Uiso   1.00
C1148  C     0.55788   0.36708   0.91622   0.00000  Uiso   1.00
C1149  C     0.60239   0.36892   0.77963   0.00000  Uiso   1.00
C1150  C     0.39749   0.63188   0.71991   0.00000  Uiso   1.00
C1151  C     0.55233   0.42401   0.96135   0.00000  Uiso   1.00
C1152  C     0.41166   0.42869   0.51123   0.00000  Uiso   1.00
C1153  C     0.58153   0.42540   0.99083   0.00000  Uiso   1.00
C1154  C     0.52801   0.64443   0.77288   0.00000  Uiso   1.00
C1155  C     0.47205   0.35565   0.72694   0.00000  Uiso   1.00
C1156  C     0.52933   0.35413   0.77303   0.00000  Uiso   1.00
H1157  H     0.37645   0.41903   0.52420   0.00000  Uiso   1.00
H1158  H     0.36307   0.54879   0.79823   0.00000  Uiso   1.00
H1159  H     0.38717   0.45127   0.70172   0.00000  Uiso   1.00
H1160  H     0.61286   0.54874   0.79823   0.00000  Uiso   1.00
H1161  H     0.65357   0.46625   0.90034   0.00000  Uiso   1.00
H1162  H     0.35192   0.50567   0.92419   0.00000  Uiso   1.00
H1163  H     0.63133   0.48785   0.95525   0.00000  Uiso   1.00
H1164  H     0.34652   0.50593   0.56628   0.00000  Uiso   1.00
H1165  H     0.64409   0.53042   0.53175   0.00000  Uiso   1.00
H1166  H     0.36514   0.50701   0.50627   0.00000  Uiso   1.00
H1167  H     0.46757   0.38131   0.59563   0.00000  Uiso   1.00
H1168  H     0.61552   0.41209   0.98036   0.00000  Uiso   1.00
H1169  H     0.41504   0.36353   0.58042   0.00000  Uiso   1.00
H1170  H     0.41312   0.38262   0.63630   0.00000  Uiso   1.00
H1171  H     0.57379   0.35479   0.88196   0.00000  Uiso   1.00
H1172  H     0.57182   0.34826   0.94093   0.00000  Uiso   1.00
H1173  H     0.51984   0.36291   0.92225   0.00000  Uiso   1.00
H1174  H     0.62208   0.39078   0.79613   0.00000  Uiso   1.00
H1175  H     0.61165   0.37590   0.74264   0.00000  Uiso   1.00
H1176  H     0.61342   0.33670   0.78603   0.00000  Uiso   1.00
H1177  H     0.38789   0.62571   0.75707   0.00000  Uiso   1.00
H1178  H     0.37761   0.60983   0.70385   0.00000  Uiso   1.00
H1179  H     0.46969   0.47780   0.60868   0.00000  Uiso   1.00
H1180  H     0.38697   0.66403   0.71259   0.00000  Uiso   1.00
H1181  H     0.52821   0.47261   0.89433   0.00000  Uiso   1.00
H1182  H     0.61123   0.49216   0.61293   0.00000  Uiso   1.00
H1183  H     0.39605   0.45272   0.86672   0.00000  Uiso   1.00
H1184  H     0.54842   0.62689   0.79182   0.00000  Uiso   1.00
H1185  H     0.45174   0.37324   0.70795   0.00000  Uiso   1.00
H1186  H     0.63695   0.45122   0.70173   0.00000  Uiso   1.00
N1187  N     0.38093   0.50001   0.75001   0.00000  Uiso   1.00
N1188  N     0.61907   0.49999   0.74999   0.00000  Uiso   1.00
O1189  O     0.46179   0.56108   0.75001   0.00000  Uiso   1.00
O1190  O     0.64696   0.46430   0.53159   0.00000  Uiso   1.00
O1191  O     0.42088   0.42807   0.58739   0.00000  Uiso   1.00
O1192  O     0.56934   0.40962   0.91767   0.00000  Uiso   1.00
O1193  O     0.55478   0.37505   0.79874   0.00000  Uiso   1.00
O1194  O     0.44507   0.62503   0.70124   0.00000  Uiso   1.00
O1195  O     0.53821   0.43892   0.75000   0.00000  Uiso   1.00
O1196  O     0.53823   0.56107   0.75000   0.00000  Uiso   1.00
O1197  O     0.46177   0.43893   0.75000   0.00000  Uiso   1.00
O1198  O     0.43994   0.50001   0.81613   0.00000  Uiso   1.00
O1199  O     0.56006   0.49999   0.68388   0.00000  Uiso   1.00
O1200  O     0.51639   0.50000   0.81612   0.00000  Uiso   1.00
O1201  O     0.48361   0.50000   0.68388   0.00000  Uiso   1.00
O1202  O     0.35106   0.44392   0.95097   0.00000  Uiso   1.00
Zn1203 Zn    0.44896   0.50001   0.75000   0.00000  Uiso   1.00
Zn1204 Zn    0.55104   0.49999   0.75000   0.00000  Uiso   1.00
C1205  C     0.83328   0.57989   0.74949   0.00000  Uiso   1.00
C1206  C     0.80398   0.64595   0.72685   0.00000  Uiso   1.00
C1207  C     0.83376   0.37595   0.75051   0.00000  Uiso   1.00
C1208  C     0.83293   0.62410   0.74935   0.00000  Uiso   1.00
C1209  C     0.98280   0.47294   0.72324   0.00000  Uiso   1.00
C1210  C     0.68387   0.52705   0.77675   0.00000  Uiso   1.00
C1211  C     0.69723   0.47296   0.72324   0.00000  Uiso   1.00
C1212  C     0.96945   0.52703   0.77676   0.00000  Uiso   1.00
C1213  C     0.80681   0.49290   0.83566   0.00000  Uiso   1.00
C1214  C     0.86018   0.49827   0.66290   0.00000  Uiso   1.00
C1215  C     0.79521   0.46989   0.87816   0.00000  Uiso   1.00
C1216  C     0.83340   0.42012   0.75042   0.00000  Uiso   1.00
C1217  C     0.87234   0.48570   0.61572   0.00000  Uiso   1.00
C1218  C     0.73194   0.44391   0.93549   0.00000  Uiso   1.00
C1219  C     0.93383   0.46434   0.55289   0.00000  Uiso   1.00
C1220  C     0.75134   0.45305   0.89046   0.00000  Uiso   1.00
C1221  C     0.91896   0.48188   0.59539   0.00000  Uiso   1.00
C1222  C     0.82610   0.46223   0.90533   0.00000  Uiso   1.00
C1223  C     0.83905   0.47206   0.59323   0.00000  Uiso   1.00
C1224  C     0.80974   0.44392   0.94830   0.00000  Uiso   1.00
C1225  C     0.85293   0.45221   0.55087   0.00000  Uiso   1.00
C1226  C     0.76162   0.43824   0.96515   0.00000  Uiso   1.00
C1227  C     0.77353   0.43316   0.54166   0.00000  Uiso   1.00
C1228  C     0.90098   0.44670   0.53187   0.00000  Uiso   1.00
C1229  C     0.83931   0.43673   0.97726   0.00000  Uiso   1.00
C1230  C     0.82138   0.44084   0.52444   0.00000  Uiso   1.00
C1231  C     0.99669   0.47721   0.93144   0.00000  Uiso   1.00
C1232  C     0.66753   0.50379   0.53460   0.00000  Uiso   1.00
C1233  C     0.76322   0.38699   0.59990   0.00000  Uiso   1.00
C1234  C     0.89121   0.36708   0.91622   0.00000  Uiso   1.00
C1235  C     0.93572   0.36892   0.77963   0.00000  Uiso   1.00
C1236  C     0.73082   0.63188   0.71991   0.00000  Uiso   1.00
C1237  C     0.88566   0.42401   0.96135   0.00000  Uiso   1.00
C1238  C     0.74499   0.42869   0.51123   0.00000  Uiso   1.00
C1239  C     0.91487   0.42540   0.99083   0.00000  Uiso   1.00
C1240  C     0.86135   0.64443   0.77288   0.00000  Uiso   1.00
C1241  C     0.80539   0.35565   0.72694   0.00000  Uiso   1.00
C1242  C     0.86267   0.35413   0.77303   0.00000  Uiso   1.00
H1243  H     0.70978   0.41903   0.52420   0.00000  Uiso   1.00
H1244  H     0.69640   0.54879   0.79823   0.00000  Uiso   1.00
H1245  H     0.72050   0.45127   0.70172   0.00000  Uiso   1.00
H1246  H     0.94619   0.54874   0.79823   0.00000  Uiso   1.00
H1247  H     0.98690   0.46625   0.90034   0.00000  Uiso   1.00
H1248  H     0.68526   0.50567   0.92419   0.00000  Uiso   1.00
H1249  H     0.96466   0.48785   0.95525   0.00000  Uiso   1.00
H1250  H     0.67985   0.50593   0.56628   0.00000  Uiso   1.00
H1251  H     0.97742   0.53042   0.53175   0.00000  Uiso   1.00
H1252  H     0.69848   0.50701   0.50627   0.00000  Uiso   1.00
H1253  H     0.80090   0.38131   0.59563   0.00000  Uiso   1.00
H1254  H     0.94885   0.41209   0.98036   0.00000  Uiso   1.00
H1255  H     0.74837   0.36353   0.58042   0.00000  Uiso   1.00
H1256  H     0.74646   0.38262   0.63630   0.00000  Uiso   1.00
H1257  H     0.90713   0.35479   0.88196   0.00000  Uiso   1.00
H1258  H     0.90515   0.34826   0.94093   0.00000  Uiso   1.00
H1259  H     0.85317   0.36291   0.92225   0.00000  Uiso   1.00
H1260  H     0.95542   0.39078   0.79613   0.00000  Uiso   1.00
H1261  H     0.94498   0.37590   0.74264   0.00000  Uiso   1.00
H1262  H     0.94676   0.33670   0.78603   0.00000  Uiso   1.00
H1263  H     0.72122   0.62571   0.75707   0.00000  Uiso   1.00
H1264  H     0.71094   0.60983   0.70385   0.00000  Uiso   1.00
H1265  H     0.80303   0.47780   0.60868   0.00000  Uiso   1.00
H1266  H     0.72030   0.66403   0.71259   0.00000  Uiso   1.00
H1267  H     0.86155   0.47261   0.89433   0.00000  Uiso   1.00
H1268  H     0.94456   0.49216   0.61293   0.00000  Uiso   1.00
H1269  H     0.72938   0.45272   0.86672   0.00000  Uiso   1.00
H1270  H     0.88175   0.62689   0.79182   0.00000  Uiso   1.00
H1271  H     0.78507   0.37324   0.70795   0.00000  Uiso   1.00
H1272  H     0.97028   0.45122   0.70173   0.00000  Uiso   1.00
N1273  N     0.71426   0.50001   0.75001   0.00000  Uiso   1.00
N1274  N     0.95241   0.49999   0.74999   0.00000  Uiso   1.00
O1275  O     0.79512   0.56108   0.75001   0.00000  Uiso   1.00
O1276  O     0.98029   0.46430   0.53159   0.00000  Uiso   1.00
O1277  O     0.75421   0.42807   0.58739   0.00000  Uiso   1.00
O1278  O     0.90267   0.40962   0.91767   0.00000  Uiso   1.00
O1279  O     0.88811   0.37505   0.79874   0.00000  Uiso   1.00
O1280  O     0.77840   0.62503   0.70124   0.00000  Uiso   1.00
O1281  O     0.87154   0.43892   0.75000   0.00000  Uiso   1.00
O1282  O     0.87157   0.56107   0.75000   0.00000  Uiso   1.00
O1283  O     0.79510   0.43893   0.75000   0.00000  Uiso   1.00
O1284  O     0.77328   0.50001   0.81613   0.00000  Uiso   1.00
O1285  O     0.89339   0.49999   0.68388   0.00000  Uiso   1.00
O1286  O     0.84972   0.50000   0.81612   0.00000  Uiso   1.00
O1287  O     0.81695   0.50000   0.68388   0.00000  Uiso   1.00
O1288  O     0.68440   0.44392   0.95097   0.00000  Uiso   1.00
Zn1289 Zn    0.78229   0.50001   0.75000   0.00000  Uiso   1.00
Zn1290 Zn    0.88438   0.49999   0.75000   0.00000  Uiso   1.00
C1291  C     0.16661   0.91323   0.74949   0.00000  Uiso   1.00
C1292  C     0.13731   0.97928   0.72685   0.00000  Uiso   1.00
C1293  C     0.16709   0.70929   0.75051   0.00000  Uiso   1.00
C1294  C     0.16626   0.95743   0.74935   0.00000  Uiso   1.00
C1295  C     0.31613   0.80628   0.72324   0.00000  Uiso   1.00
C1296  C     0.01720   0.86038   0.77675   0.00000  Uiso   1.00
C1297  C     0.03056   0.80630   0.72324   0.00000  Uiso   1.00
C1298  C     0.30278   0.86036   0.77676   0.00000  Uiso   1.00
C1299  C     0.14014   0.82623   0.83566   0.00000  Uiso   1.00
C1300  C     0.19351   0.83160   0.66290   0.00000  Uiso   1.00
C1301  C     0.12854   0.80322   0.87816   0.00000  Uiso   1.00
C1302  C     0.16674   0.75345   0.75042   0.00000  Uiso   1.00
C1303  C     0.20567   0.81904   0.61572   0.00000  Uiso   1.00
C1304  C     0.06528   0.77725   0.93549   0.00000  Uiso   1.00
C1305  C     0.26717   0.79768   0.55289   0.00000  Uiso   1.00
C1306  C     0.08467   0.78638   0.89046   0.00000  Uiso   1.00
C1307  C     0.25229   0.81522   0.59539   0.00000  Uiso   1.00
C1308  C     0.15944   0.79556   0.90533   0.00000  Uiso   1.00
C1309  C     0.17238   0.80539   0.59323   0.00000  Uiso   1.00
C1310  C     0.14308   0.77725   0.94830   0.00000  Uiso   1.00
C1311  C     0.18627   0.78554   0.55087   0.00000  Uiso   1.00
C1312  C     0.09496   0.77157   0.96515   0.00000  Uiso   1.00
C1313  C     0.10687   0.76649   0.54166   0.00000  Uiso   1.00
C1314  C     0.23431   0.78003   0.53187   0.00000  Uiso   1.00
C1315  C     0.17265   0.77006   0.97726   0.00000  Uiso   1.00
C1316  C     0.15471   0.77417   0.52444   0.00000  Uiso   1.00
C1317  C     0.33003   0.81054   0.93144   0.00000  Uiso   1.00
C1318  C     0.00087   0.83712   0.53460   0.00000  Uiso   1.00
C1319  C     0.09655   0.72032   0.59990   0.00000  Uiso   1.00
C1320  C     0.22454   0.70041   0.91622   0.00000  Uiso   1.00
C1321  C     0.26906   0.70226   0.77963   0.00000  Uiso   1.00
C1322  C     0.06415   0.96521   0.71991   0.00000  Uiso   1.00
C1323  C     0.21900   0.75735   0.96135   0.00000  Uiso   1.00
C1324  C     0.07832   0.76202   0.51123   0.00000  Uiso   1.00
C1325  C     0.24820   0.75873   0.99083   0.00000  Uiso   1.00
C1326  C     0.19468   0.97776   0.77288   0.00000  Uiso   1.00
C1327  C     0.13872   0.68899   0.72694   0.00000  Uiso   1.00
C1328  C     0.19600   0.68746   0.77303   0.00000  Uiso   1.00
H1329  H     0.04312   0.75236   0.52420   0.00000  Uiso   1.00
H1330  H     0.02973   0.88213   0.79823   0.00000  Uiso   1.00
H1331  H     0.05383   0.78461   0.70172   0.00000  Uiso   1.00
H1332  H     0.27952   0.88207   0.79823   0.00000  Uiso   1.00
H1333  H     0.32023   0.79958   0.90034   0.00000  Uiso   1.00
H1334  H     0.01859   0.83901   0.92419   0.00000  Uiso   1.00
H1335  H     0.29800   0.82119   0.95525   0.00000  Uiso   1.00
H1336  H     0.01318   0.83926   0.56628   0.00000  Uiso   1.00
H1337  H     0.31075   0.86375   0.53175   0.00000  Uiso   1.00
H1338  H     0.03181   0.84035   0.50627   0.00000  Uiso   1.00
H1339  H     0.13424   0.71464   0.59563   0.00000  Uiso   1.00
H1340  H     0.28219   0.74542   0.98036   0.00000  Uiso   1.00
H1341  H     0.08170   0.69686   0.58042   0.00000  Uiso   1.00
H1342  H     0.07979   0.71595   0.63630   0.00000  Uiso   1.00
H1343  H     0.24046   0.68812   0.88196   0.00000  Uiso   1.00
H1344  H     0.23848   0.68159   0.94093   0.00000  Uiso   1.00
H1345  H     0.18651   0.69625   0.92225   0.00000  Uiso   1.00
H1346  H     0.28875   0.72411   0.79613   0.00000  Uiso   1.00
H1347  H     0.27831   0.70923   0.74264   0.00000  Uiso   1.00
H1348  H     0.28009   0.67004   0.78603   0.00000  Uiso   1.00
H1349  H     0.05456   0.95905   0.75707   0.00000  Uiso   1.00
H1350  H     0.04427   0.94316   0.70385   0.00000  Uiso   1.00
H1351  H     0.13636   0.81113   0.60868   0.00000  Uiso   1.00
H1352  H     0.05364   0.99736   0.71259   0.00000  Uiso   1.00
H1353  H     0.19488   0.80594   0.89433   0.00000  Uiso   1.00
H1354  H     0.27789   0.82549   0.61293   0.00000  Uiso   1.00
H1355  H     0.06271   0.78605   0.86672   0.00000  Uiso   1.00
H1356  H     0.21508   0.96022   0.79182   0.00000  Uiso   1.00
H1357  H     0.11840   0.70658   0.70795   0.00000  Uiso   1.00
H1358  H     0.30361   0.78456   0.70173   0.00000  Uiso   1.00
N1359  N     0.04759   0.83334   0.75001   0.00000  Uiso   1.00
N1360  N     0.28574   0.83332   0.74999   0.00000  Uiso   1.00
O1361  O     0.12846   0.89442   0.75001   0.00000  Uiso   1.00
O1362  O     0.31363   0.79764   0.53159   0.00000  Uiso   1.00
O1363  O     0.08755   0.76141   0.58739   0.00000  Uiso   1.00
O1364  O     0.23601   0.74295   0.91767   0.00000  Uiso   1.00
O1365  O     0.22145   0.70839   0.79874   0.00000  Uiso   1.00
O1366  O     0.11174   0.95837   0.70124   0.00000  Uiso   1.00
O1367  O     0.20488   0.77225   0.75000   0.00000  Uiso   1.00
O1368  O     0.20490   0.89441   0.75000   0.00000  Uiso   1.00
O1369  O     0.12843   0.77226   0.75000   0.00000  Uiso   1.00
O1370  O     0.10661   0.83334   0.81613   0.00000  Uiso   1.00
O1371  O     0.22672   0.83333   0.68388   0.00000  Uiso   1.00
O1372  O     0.18305   0.83333   0.81612   0.00000  Uiso   1.00
O1373  O     0.15028   0.83334   0.68388   0.00000  Uiso   1.00
O1374  O     0.01773   0.77726   0.95097   0.00000  Uiso   1.00
Zn1375 Zn    0.11562   0.83334   0.75000   0.00000  Uiso   1.00
Zn1376 Zn    0.21771   0.83333   0.75000   0.00000  Uiso   1.00
C1377  C     0.49995   0.91323   0.74949   0.00000  Uiso   1.00
C1378  C     0.47065   0.97928   0.72685   0.00000  Uiso   1.00
C1379  C     0.50042   0.70929   0.75051   0.00000  Uiso   1.00
C1380  C     0.49960   0.95743   0.74935   0.00000  Uiso   1.00
C1381  C     0.64947   0.80628   0.72324   0.00000  Uiso   1.00
C1382  C     0.35054   0.86038   0.77675   0.00000  Uiso   1.00
C1383  C     0.36390   0.80630   0.72324   0.00000  Uiso   1.00
C1384  C     0.63611   0.86036   0.77676   0.00000  Uiso   1.00
C1385  C     0.47348   0.82623   0.83566   0.00000  Uiso   1.00
C1386  C     0.52684   0.83160   0.66290   0.00000  Uiso   1.00
C1387  C     0.46188   0.80322   0.87816   0.00000  Uiso   1.00
C1388  C     0.50007   0.75345   0.75042   0.00000  Uiso   1.00
C1389  C     0.53900   0.81904   0.61572   0.00000  Uiso   1.00
C1390  C     0.39861   0.77725   0.93549   0.00000  Uiso   1.00
C1391  C     0.60050   0.79768   0.55289   0.00000  Uiso   1.00
C1392  C     0.41801   0.78638   0.89046   0.00000  Uiso   1.00
C1393  C     0.58562   0.81522   0.59539   0.00000  Uiso   1.00
C1394  C     0.49277   0.79556   0.90533   0.00000  Uiso   1.00
C1395  C     0.50572   0.80539   0.59323   0.00000  Uiso   1.00
C1396  C     0.47641   0.77725   0.94830   0.00000  Uiso   1.00
C1397  C     0.51960   0.78554   0.55087   0.00000  Uiso   1.00
C1398  C     0.42829   0.77157   0.96515   0.00000  Uiso   1.00
C1399  C     0.44020   0.76649   0.54166   0.00000  Uiso   1.00
C1400  C     0.56765   0.78003   0.53187   0.00000  Uiso   1.00
C1401  C     0.50598   0.77006   0.97726   0.00000  Uiso   1.00
C1402  C     0.48804   0.77417   0.52444   0.00000  Uiso   1.00
C1403  C     0.66336   0.81054   0.93144   0.00000  Uiso   1.00
C1404  C     0.33420   0.83712   0.53460   0.00000  Uiso   1.00
C1405  C     0.42988   0.72032   0.59990   0.00000  Uiso   1.00
C1406  C     0.55788   0.70041   0.91622   0.00000  Uiso   1.00
C1407  C     0.60239   0.70226   0.77963   0.00000  Uiso   1.00
C1408  C     0.39749   0.96521   0.71991   0.00000  Uiso   1.00
C1409  C     0.55233   0.75735   0.96135   0.00000  Uiso   1.00
C1410  C     0.41166   0.76202   0.51123   0.00000  Uiso   1.00
C1411  C     0.58153   0.75873   0.99083   0.00000  Uiso   1.00
C1412  C     0.52801   0.97776   0.77288   0.00000  Uiso   1.00
C1413  C     0.47205   0.68899   0.72694   0.00000  Uiso   1.00
C1414  C     0.52933   0.68746   0.77303   0.00000  Uiso   1.00
H1415  H     0.37645   0.75236   0.52420   0.00000  Uiso   1.00
H1416  H     0.36307   0.88213   0.79823   0.00000  Uiso   1.00
H1417  H     0.38717   0.78461   0.70172   0.00000  Uiso   1.00
H1418  H     0.61286   0.88207   0.79823   0.00000  Uiso   1.00
H1419  H     0.65357   0.79958   0.90034   0.00000  Uiso   1.00
H1420  H     0.35192   0.83901   0.92419   0.00000  Uiso   1.00
H1421  H     0.63133   0.82119   0.95525   0.00000  Uiso   1.00
H1422  H     0.34652   0.83926   0.56628   0.00000  Uiso   1.00
H1423  H     0.64409   0.86375   0.53175   0.00000  Uiso   1.00
H1424  H     0.36514   0.84035   0.50627   0.00000  Uiso   1.00
H1425  H     0.46757   0.71464   0.59563   0.00000  Uiso   1.00
H1426  H     0.61552   0.74542   0.98036   0.00000  Uiso   1.00
H1427  H     0.41504   0.69686   0.58042   0.00000  Uiso   1.00
H1428  H     0.41312   0.71595   0.63630   0.00000  Uiso   1.00
H1429  H     0.57379   0.68812   0.88196   0.00000  Uiso   1.00
H1430  H     0.57182   0.68159   0.94093   0.00000  Uiso   1.00
H1431  H     0.51984   0.69625   0.92225   0.00000  Uiso   1.00
H1432  H     0.62208   0.72411   0.79613   0.00000  Uiso   1.00
H1433  H     0.61165   0.70923   0.74264   0.00000  Uiso   1.00
H1434  H     0.61342   0.67004   0.78603   0.00000  Uiso   1.00
H1435  H     0.38789   0.95905   0.75707   0.00000  Uiso   1.00
H1436  H     0.37761   0.94316   0.70385   0.00000  Uiso   1.00
H1437  H     0.46969   0.81113   0.60868   0.00000  Uiso   1.00
H1438  H     0.38697   0.99736   0.71259   0.00000  Uiso   1.00
H1439  H     0.52821   0.80594   0.89433   0.00000  Uiso   1.00
H1440  H     0.61123   0.82549   0.61293   0.00000  Uiso   1.00
H1441  H     0.39605   0.78605   0.86672   0.00000  Uiso   1.00
H1442  H     0.54842   0.96022   0.79182   0.00000  Uiso   1.00
H1443  H     0.45174   0.70658   0.70795   0.00000  Uiso   1.00
H1444  H     0.63695   0.78456   0.70173   0.00000  Uiso   1.00
N1445  N     0.38093   0.83334   0.75001   0.00000  Uiso   1.00
N1446  N     0.61907   0.83332   0.74999   0.00000  Uiso   1.00
O1447  O     0.46179   0.89442   0.75001   0.00000  Uiso   1.00
O1448  O     0.64696   0.79764   0.53159   0.00000  Uiso   1.00
O1449  O     0.42088   0.76141   0.58739   0.00000  Uiso   1.00
O1450  O     0.56934   0.74295   0.91767   0.00000  Uiso   1.00
O1451  O     0.55478   0.70839   0.79874   0.00000  Uiso   1.00
O1452  O     0.44507   0.95837   0.70124   0.00000  Uiso   1.00
O1453  O     0.53821   0.77225   0.75000   0.00000  Uiso   1.00
O1454  O     0.53823   0.89441   0.75000   0.00000  Uiso   1.00
O1455  O     0.46177   0.77226   0.75000   0.00000  Uiso   1.00
O1456  O     0.43994   0.83334   0.81613   0.00000  Uiso   1.00
O1457  O     0.56006   0.83333   0.68388   0.00000  Uiso   1.00
O1458  O     0.51639   0.83333   0.81612   0.00000  Uiso   1.00
O1459  O     0.48361   0.83334   0.68388   0.00000  Uiso   1.00
O1460  O     0.35106   0.77726   0.95097   0.00000  Uiso   1.00
Zn1461 Zn    0.44896   0.83334   0.75000   0.00000  Uiso   1.00
Zn1462 Zn    0.55104   0.83333   0.75000   0.00000  Uiso   1.00
C1463  C     0.83328   0.91323   0.74949   0.00000  Uiso   1.00
C1464  C     0.80398   0.97928   0.72685   0.00000  Uiso   1.00
C1465  C     0.83376   0.70929   0.75051   0.00000  Uiso   1.00
C1466  C     0.83293   0.95743   0.74935   0.00000  Uiso   1.00
C1467  C     0.98280   0.80628   0.72324   0.00000  Uiso   1.00
C1468  C     0.68387   0.86038   0.77675   0.00000  Uiso   1.00
C1469  C     0.69723   0.80630   0.72324   0.00000  Uiso   1.00
C1470  C     0.96945   0.86036   0.77676   0.00000  Uiso   1.00
C1471  C     0.80681   0.82623   0.83566   0.00000  Uiso   1.00
C1472  C     0.86018   0.83160   0.66290   0.00000  Uiso   1.00
C1473  C     0.79521   0.80322   0.87816   0.00000  Uiso   1.00
C1474  C     0.83340   0.75345   0.75042   0.00000  Uiso   1.00
C1475  C     0.87234   0.81904   0.61572   0.00000  Uiso   1.00
C1476  C     0.73194   0.77725   0.93549   0.00000  Uiso   1.00
C1477  C     0.93383   0.79768   0.55289   0.00000  Uiso   1.00
C1478  C     0.75134   0.78638   0.89046   0.00000  Uiso   1.00
C1479  C     0.91896   0.81522   0.59539   0.00000  Uiso   1.00
C1480  C     0.82610   0.79556   0.90533   0.00000  Uiso   1.00
C1481  C     0.83905   0.80539   0.59323   0.00000  Uiso   1.00
C1482  C     0.80974   0.77725   0.94830   0.00000  Uiso   1.00
C1483  C     0.85293   0.78554   0.55087   0.00000  Uiso   1.00
C1484  C     0.76162   0.77157   0.96515   0.00000  Uiso   1.00
C1485  C     0.77353   0.76649   0.54166   0.00000  Uiso   1.00
C1486  C     0.90098   0.78003   0.53187   0.00000  Uiso   1.00
C1487  C     0.83931   0.77006   0.97726   0.00000  Uiso   1.00
C1488  C     0.82138   0.77417   0.52444   0.00000  Uiso   1.00
C1489  C     0.99669   0.81054   0.93144   0.00000  Uiso   1.00
C1490  C     0.66753   0.83712   0.53460   0.00000  Uiso   1.00
C1491  C     0.76322   0.72032   0.59990   0.00000  Uiso   1.00
C1492  C     0.89121   0.70041   0.91622   0.00000  Uiso   1.00
C1493  C     0.93572   0.70226   0.77963   0.00000  Uiso   1.00
C1494  C     0.73082   0.96521   0.71991   0.00000  Uiso   1.00
C1495  C     0.88566   0.75735   0.96135   0.00000  Uiso   1.00
C1496  C     0.74499   0.76202   0.51123   0.00000  Uiso   1.00
C1497  C     0.91487   0.75873   0.99083   0.00000  Uiso   1.00
C1498  C     0.86135   0.97776   0.77288   0.00000  Uiso   1.00
C1499  C     0.80539   0.68899   0.72694   0.00000  Uiso   1.00
C1500  C     0.86267   0.68746   0.77303   0.00000  Uiso   1.00
H1501  H     0.70978   0.75236   0.52420   0.00000  Uiso   1.00
H1502  H     0.69640   0.88213   0.79823   0.00000  Uiso   1.00
H1503  H     0.72050   0.78461   0.70172   0.00000  Uiso   1.00
H1504  H     0.94619   0.88207   0.79823   0.00000  Uiso   1.00
H1505  H     0.98690   0.79958   0.90034   0.00000  Uiso   1.00
H1506  H     0.68526   0.83901   0.92419   0.00000  Uiso   1.00
H1507  H     0.96466   0.82119   0.95525   0.00000  Uiso   1.00
H1508  H     0.67985   0.83926   0.56628   0.00000  Uiso   1.00
H1509  H     0.97742   0.86375   0.53175   0.00000  Uiso   1.00
H1510  H     0.69848   0.84035   0.50627   0.00000  Uiso   1.00
H1511  H     0.80090   0.71464   0.59563   0.00000  Uiso   1.00
H1512  H     0.94885   0.74542   0.98036   0.00000  Uiso   1.00
H1513  H     0.74837   0.69686   0.58042   0.00000  Uiso   1.00
H1514  H     0.74646   0.71595   0.63630   0.00000  Uiso   1.00
H1515  H     0.90713   0.68812   0.88196   0.00000  Uiso   1.00
H1516  H     0.90515   0.68159   0.94093   0.00000  Uiso   1.00
H1517  H     0.85317   0.69625   0.92225   0.00000  Uiso   1.00
H1518  H     0.95542   0.72411   0.79613   0.00000  Uiso   1.00
H1519  H     0.94498   0.70923   0.74264   0.00000  Uiso   1.00
H1520  H     0.94676   0.67004   0.78603   0.00000  Uiso   1.00
H1521  H     0.72122   0.95905   0.75707   0.00000  Uiso   1.00
H1522  H     0.71094   0.94316   0.70385   0.00000  Uiso   1.00
H1523  H     0.80303   0.81113   0.60868   0.00000  Uiso   1.00
H1524  H     0.72030   0.99736   0.71259   0.00000  Uiso   1.00
H1525  H     0.86155   0.80594   0.89433   0.00000  Uiso   1.00
H1526  H     0.94456   0.82549   0.61293   0.00000  Uiso   1.00
H1527  H     0.72938   0.78605   0.86672   0.00000  Uiso   1.00
H1528  H     0.88175   0.96022   0.79182   0.00000  Uiso   1.00
H1529  H     0.78507   0.70658   0.70795   0.00000  Uiso   1.00
H1530  H     0.97028   0.78456   0.70173   0.00000  Uiso   1.00
N1531  N     0.71426   0.83334   0.75001   0.00000  Uiso   1.00
N1532  N     0.95241   0.83332   0.74999   0.00000  Uiso   1.00
O1533  O     0.79512   0.89442   0.75001   0.00000  Uiso   1.00
O1534  O     0.98029   0.79764   0.53159   0.00000  Uiso   1.00
O1535  O     0.75421   0.76141   0.58739   0.00000  Uiso   1.00
O1536  O     0.90267   0.74295   0.91767   0.00000  Uiso   1.00
O1537  O     0.88811   0.70839   0.79874   0.00000  Uiso   1.00
O1538  O     0.77840   0.95837   0.70124   0.00000  Uiso   1.00
O1539  O     0.87154   0.77225   0.75000   0.00000  Uiso   1.00
O1540  O     0.87157   0.89441   0.75000   0.00000  Uiso   1.00
O1541  O     0.79510   0.77226   0.75000   0.00000  Uiso   1.00
O1542  O     0.77328   0.83334   0.81613   0.00000  Uiso   1.00
O1543  O     0.89339   0.83333   0.68388   0.00000  Uiso   1.00
O1544  O     0.84972   0.83333   0.81612   0.00000  Uiso   1.00
O1545  O     0.81695   0.83334   0.68388   0.00000  Uiso   1.00
O1546  O     0.68440   0.77726   0.95097   0.00000  Uiso   1.00
Zn1547 Zn    0.78229   0.83334   0.75000   0.00000  Uiso   1.00
Zn1548 Zn    0.88438   0.83333   0.75000   0.00000  Uiso   1.00
loop_
_geom_bond_atom_site_label_1
_geom_bond_atom_site_label_2
_geom_bond_distance
_geom_bond_site_symmetry_2
_ccdc_geom_bond_type
C1     O71     1.287   .     A
C1     O78     1.289   .     A
C1     C4      1.415   .     S
C2     O76     1.387   .     S
C2     C4      1.403   .     A
C2     C295    1.379   .     S
C3     C12     1.414   .     S
C3     C38     1.402   .     A
C3     C37     1.395   .     A
C4     C36     1.395   .     A
C5     H68     1.082   .     S
C5     N70     1.369   .     A
C5     C93     1.422   .     S
C6     N69     1.369   .     A
C6     H40     1.082   .     S
C6     C180    1.422   1_455 S
C7     N69     1.369   .     A
C7     H41     1.082   .     S
C7     C177    1.422   1_455 S
C8     H42     1.082   .     S
C8     N70     1.368   .     A
C8     C92     1.422   .     S
C9     O82     1.297   .     A
C9     O80     1.295   .     A
C9     C11     1.455   .     S
C10    O83     1.295   .     A
C10    C13     1.450   .     S
C10    O81     1.299   .     A
C11    C18     1.394   .     A
C11    C16     1.384   .     A
C12    O79     1.289   .     A
C12    O77     1.286   .     A
C13    C19     1.403   .     A
C13    C17     1.384   .     A
C14    O84     1.382   .     S
C14    C16     1.385   .     A
C14    C22     1.414   .     A
C15    O72     1.382   .     S
C15    C24     1.410   .     A
C15    C17     1.381   .     A
C16    H65     1.082   .     S
C17    H64     1.082   .     S
C18    H63     1.083   .     S
C18    C20     1.409   .     A
C19    C21     1.407   .     A
C19    H61     1.079   .     S
C20    C25     1.402   .     A
C20    C22     1.416   .     A
C21    C26     1.422   .     A
C21    C24     1.421   .     A
C22    C808    1.404   .     S
C23    C26     1.420   .     A
C23    O73     1.382   .     S
C23    C34     1.404   .     A
C24    C809    1.395   1_554 S
C25    C33     1.408   .     A
C25    C800    1.413   .     S
C26    C799    1.413   1_554 S
C27    H45     1.104   .     S
C27    H43     1.111   .     S
C27    H130    1.115   .     S
C27    O170    1.430   .     S
C28    H46     1.110   .     S
C28    H48     1.107   .     S
C28    H219    1.115   1_455 S
C28    O244    1.421   1_455 S
C29    H49     1.113   .     S
C29    O73     1.410   .     S
C29    H51     1.114   .     S
C29    H52     1.109   .     S
C30    H54     1.114   .     S
C30    O74     1.410   .     S
C30    H53     1.108   .     S
C30    H55     1.113   .     S
C31    H58     1.111   .     S
C31    H56     1.110   .     S
C31    O75     1.412   .     S
C31    H57     1.114   .     S
C32    H60     1.109   .     S
C32    O76     1.412   .     S
C32    H62     1.111   .     S
C32    H59     1.115   .     S
C33    C35     1.389   .     A
C33    O74     1.383   .     S
C34    H39     1.076   .     S
C34    C796    1.404   1_554 S
C35    H50     1.072   .     S
C35    C798    1.395   .     S
C36    H66     1.084   .     S
C36    C296    1.379   .     S
C37    H67     1.084   .     S
C37    C518    1.379   1_545 S
C38    O75     1.387   .     S
C38    C552    1.379   1_545 S
H44    C199    1.115   1_455 S
H47    C114    1.115   .     S
N69    Zn85    2.026   .     S
N70    Zn86    2.026   .     S
O71    Zn85    1.995   .     S
O72    C114    1.421   .     S
O77    Zn86    1.995   .     S
O78    Zn86    1.990   .     S
O79    Zn85    1.990   .     S
O80    Zn85    1.963   .     S
O81    Zn86    1.963   .     S
O82    Zn86    2.030   .     S
O83    Zn85    2.030   .     S
O84    C199    1.430   1_455 S
C87    O157    1.287   .     A
C87    O164    1.289   .     A
C87    C90     1.415   .     S
C88    O162    1.387   .     S
C88    C90     1.403   .     A
C88    C381    1.379   .     S
C89    C98     1.414   .     S
C89    C124    1.402   .     A
C89    C123    1.395   .     A
C90    C122    1.395   .     A
C91    H154    1.082   .     S
C91    N156    1.369   .     A
C91    C179    1.422   .     S
C92    N155    1.369   .     A
C92    H126    1.082   .     S
C93    N155    1.369   .     A
C93    H127    1.082   .     S
C94    H128    1.082   .     S
C94    N156    1.368   .     A
C94    C178    1.422   .     S
C95    O168    1.297   .     A
C95    O166    1.295   .     A
C95    C97     1.455   .     S
C96    O169    1.295   .     A
C96    C99     1.450   .     S
C96    O167    1.299   .     A
C97    C104    1.394   .     A
C97    C102    1.384   .     A
C98    O165    1.289   .     A
C98    O163    1.286   .     A
C99    C105    1.403   .     A
C99    C103    1.384   .     A
C100   O170    1.382   .     S
C100   C102    1.385   .     A
C100   C108    1.414   .     A
C101   O158    1.382   .     S
C101   C110    1.410   .     A
C101   C103    1.381   .     A
C102   H151    1.082   .     S
C103   H150    1.082   .     S
C104   H149    1.083   .     S
C104   C106    1.409   .     A
C105   C107    1.407   .     A
C105   H147    1.079   .     S
C106   C111    1.402   .     A
C106   C108    1.416   .     A
C107   C112    1.422   .     A
C107   C110    1.421   .     A
C108   C894    1.404   .     S
C109   C112    1.420   .     A
C109   O159    1.382   .     S
C109   C120    1.404   .     A
C110   C895    1.395   1_554 S
C111   C119    1.408   .     A
C111   C886    1.413   .     S
C112   C885    1.413   1_554 S
C113   H131    1.104   .     S
C113   H129    1.111   .     S
C113   H216    1.115   .     S
C113   O256    1.430   .     S
C114   H132    1.110   .     S
C114   H134    1.107   .     S
C115   H135    1.113   .     S
C115   O159    1.410   .     S
C115   H137    1.114   .     S
C115   H138    1.109   .     S
C116   H140    1.114   .     S
C116   O160    1.410   .     S
C116   H139    1.108   .     S
C116   H141    1.113   .     S
C117   H144    1.111   .     S
C117   H142    1.110   .     S
C117   O161    1.412   .     S
C117   H143    1.114   .     S
C118   H146    1.109   .     S
C118   O162    1.412   .     S
C118   H148    1.111   .     S
C118   H145    1.115   .     S
C119   C121    1.389   .     A
C119   O160    1.383   .     S
C120   H125    1.076   .     S
C120   C882    1.404   1_554 S
C121   H136    1.072   .     S
C121   C884    1.395   .     S
C122   H152    1.084   .     S
C122   C382    1.379   .     S
C123   H153    1.084   .     S
C123   C604    1.379   1_545 S
C124   O161    1.387   .     S
C124   C638    1.379   1_545 S
H133   C200    1.115   .     S
N155   Zn171   2.026   .     S
N156   Zn172   2.026   .     S
O157   Zn171   1.995   .     S
O158   C200    1.421   .     S
O163   Zn172   1.995   .     S
O164   Zn172   1.990   .     S
O165   Zn171   1.990   .     S
O166   Zn171   1.963   .     S
O167   Zn172   1.963   .     S
O168   Zn172   2.030   .     S
O169   Zn171   2.030   .     S
C173   O243    1.287   .     A
C173   O250    1.289   .     A
C173   C176    1.415   .     S
C174   O248    1.387   .     S
C174   C176    1.403   .     A
C174   C467    1.379   .     S
C175   C184    1.414   .     S
C175   C210    1.402   .     A
C175   C209    1.395   .     A
C176   C208    1.395   .     A
C177   H240    1.082   .     S
C177   N242    1.369   .     A
C177   C7      1.422   1_655 S
C178   N241    1.369   .     A
C178   H212    1.082   .     S
C179   N241    1.369   .     A
C179   H213    1.082   .     S
C180   H214    1.082   .     S
C180   N242    1.368   .     A
C180   C6      1.422   1_655 S
C181   O254    1.297   .     A
C181   O252    1.295   .     A
C181   C183    1.455   .     S
C182   O255    1.295   .     A
C182   C185    1.450   .     S
C182   O253    1.299   .     A
C183   C190    1.394   .     A
C183   C188    1.384   .     A
C184   O251    1.289   .     A
C184   O249    1.286   .     A
C185   C191    1.403   .     A
C185   C189    1.384   .     A
C186   O256    1.382   .     S
C186   C188    1.385   .     A
C186   C194    1.414   .     A
C187   O244    1.382   .     S
C187   C196    1.410   .     A
C187   C189    1.381   .     A
C188   H237    1.082   .     S
C189   H236    1.082   .     S
C190   H235    1.083   .     S
C190   C192    1.409   .     A
C191   C193    1.407   .     A
C191   H233    1.079   .     S
C192   C197    1.402   .     A
C192   C194    1.416   .     A
C193   C198    1.422   .     A
C193   C196    1.421   .     A
C194   C980    1.404   .     S
C195   C198    1.420   .     A
C195   O245    1.382   .     S
C195   C206    1.404   .     A
C196   C981    1.395   1_554 S
C197   C205    1.408   .     A
C197   C972    1.413   .     S
C198   C971    1.413   1_554 S
C199   H217    1.104   .     S
C199   H215    1.111   .     S
C199   H44     1.115   1_655 S
C199   O84     1.430   1_655 S
C200   H218    1.110   .     S
C200   H220    1.107   .     S
C201   H221    1.113   .     S
C201   O245    1.410   .     S
C201   H223    1.114   .     S
C201   H224    1.109   .     S
C202   H226    1.114   .     S
C202   O246    1.410   .     S
C202   H225    1.108   .     S
C202   H227    1.113   .     S
C203   H230    1.111   .     S
C203   H228    1.110   .     S
C203   O247    1.412   .     S
C203   H229    1.114   .     S
C204   H232    1.109   .     S
C204   O248    1.412   .     S
C204   H234    1.111   .     S
C204   H231    1.115   .     S
C205   C207    1.389   .     A
C205   O246    1.383   .     S
C206   H211    1.076   .     S
C206   C968    1.404   1_554 S
C207   H222    1.072   .     S
C207   C970    1.395   .     S
C208   H238    1.084   .     S
C208   C468    1.379   .     S
C209   H239    1.084   .     S
C209   C690    1.379   1_545 S
C210   O247    1.387   .     S
C210   C724    1.379   1_545 S
H219   C28     1.115   1_655 S
N241   Zn257   2.026   .     S
N242   Zn258   2.026   .     S
O243   Zn257   1.995   .     S
O244   C28     1.421   1_655 S
O249   Zn258   1.995   .     S
O250   Zn258   1.990   .     S
O251   Zn257   1.990   .     S
O252   Zn257   1.963   .     S
O253   Zn258   1.963   .     S
O254   Zn258   2.030   .     S
O255   Zn257   2.030   .     S
C259   O329    1.287   .     A
C259   O336    1.289   .     A
C259   C262    1.415   .     S
C260   O334    1.387   .     S
C260   C262    1.403   .     A
C260   C553    1.379   .     S
C261   C270    1.414   .     S
C261   C296    1.402   .     A
C261   C295    1.395   .     A
C262   C294    1.395   .     A
C263   H326    1.082   .     S
C263   N328    1.369   .     A
C263   C351    1.422   .     S
C264   N327    1.369   .     A
C264   H298    1.082   .     S
C264   C438    1.422   1_455 S
C265   N327    1.369   .     A
C265   H299    1.082   .     S
C265   C435    1.422   1_455 S
C266   H300    1.082   .     S
C266   N328    1.368   .     A
C266   C350    1.422   .     S
C267   O340    1.297   .     A
C267   O338    1.295   .     A
C267   C269    1.455   .     S
C268   O341    1.295   .     A
C268   C271    1.450   .     S
C268   O339    1.299   .     A
C269   C276    1.394   .     A
C269   C274    1.384   .     A
C270   O337    1.289   .     A
C270   O335    1.286   .     A
C271   C277    1.403   .     A
C271   C275    1.384   .     A
C272   O342    1.382   .     S
C272   C274    1.385   .     A
C272   C280    1.414   .     A
C273   O330    1.382   .     S
C273   C282    1.410   .     A
C273   C275    1.381   .     A
C274   H323    1.082   .     S
C275   H322    1.082   .     S
C276   H321    1.083   .     S
C276   C278    1.409   .     A
C277   C279    1.407   .     A
C277   H319    1.079   .     S
C278   C283    1.402   .     A
C278   C280    1.416   .     A
C279   C284    1.422   .     A
C279   C282    1.421   .     A
C280   C1066   1.404   .     S
C281   C284    1.420   .     A
C281   O331    1.382   .     S
C281   C292    1.404   .     A
C282   C1067   1.395   1_554 S
C283   C291    1.408   .     A
C283   C1058   1.413   .     S
C284   C1057   1.413   1_554 S
C285   H303    1.104   .     S
C285   H301    1.111   .     S
C285   H388    1.115   .     S
C285   O428    1.430   .     S
C286   H304    1.110   .     S
C286   H306    1.107   .     S
C286   H477    1.115   1_455 S
C286   O502    1.421   1_455 S
C287   H307    1.113   .     S
C287   O331    1.410   .     S
C287   H309    1.114   .     S
C287   H310    1.109   .     S
C288   H312    1.114   .     S
C288   O332    1.410   .     S
C288   H311    1.108   .     S
C288   H313    1.113   .     S
C289   H316    1.111   .     S
C289   H314    1.110   .     S
C289   O333    1.412   .     S
C289   H315    1.114   .     S
C290   H318    1.109   .     S
C290   O334    1.412   .     S
C290   H320    1.111   .     S
C290   H317    1.115   .     S
C291   C293    1.389   .     A
C291   O332    1.383   .     S
C292   H297    1.076   .     S
C292   C1054   1.404   1_554 S
C293   H308    1.072   .     S
C293   C1056   1.395   .     S
C294   H324    1.084   .     S
C294   C554    1.379   .     S
C295   H325    1.084   .     S
C296   O333    1.387   .     S
H302   C457    1.115   1_455 S
H305   C372    1.115   .     S
N327   Zn343   2.026   .     S
N328   Zn344   2.026   .     S
O329   Zn343   1.995   .     S
O330   C372    1.421   .     S
O335   Zn344   1.995   .     S
O336   Zn344   1.990   .     S
O337   Zn343   1.990   .     S
O338   Zn343   1.963   .     S
O339   Zn344   1.963   .     S
O340   Zn344   2.030   .     S
O341   Zn343   2.030   .     S
O342   C457    1.430   1_455 S
C345   O415    1.287   .     A
C345   O422    1.289   .     A
C345   C348    1.415   .     S
C346   O420    1.387   .     S
C346   C348    1.403   .     A
C346   C639    1.379   .     S
C347   C356    1.414   .     S
C347   C382    1.402   .     A
C347   C381    1.395   .     A
C348   C380    1.395   .     A
C349   H412    1.082   .     S
C349   N414    1.369   .     A
C349   C437    1.422   .     S
C350   N413    1.369   .     A
C350   H384    1.082   .     S
C351   N413    1.369   .     A
C351   H385    1.082   .     S
C352   H386    1.082   .     S
C352   N414    1.368   .     A
C352   C436    1.422   .     S
C353   O426    1.297   .     A
C353   O424    1.295   .     A
C353   C355    1.455   .     S
C354   O427    1.295   .     A
C354   C357    1.450   .     S
C354   O425    1.299   .     A
C355   C362    1.394   .     A
C355   C360    1.384   .     A
C356   O423    1.289   .     A
C356   O421    1.286   .     A
C357   C363    1.403   .     A
C357   C361    1.384   .     A
C358   O428    1.382   .     S
C358   C360    1.385   .     A
C358   C366    1.414   .     A
C359   O416    1.382   .     S
C359   C368    1.410   .     A
C359   C361    1.381   .     A
C360   H409    1.082   .     S
C361   H408    1.082   .     S
C362   H407    1.083   .     S
C362   C364    1.409   .     A
C363   C365    1.407   .     A
C363   H405    1.079   .     S
C364   C369    1.402   .     A
C364   C366    1.416   .     A
C365   C370    1.422   .     A
C365   C368    1.421   .     A
C366   C1152   1.404   .     S
C367   C370    1.420   .     A
C367   O417    1.382   .     S
C367   C378    1.404   .     A
C368   C1153   1.395   1_554 S
C369   C377    1.408   .     A
C369   C1144   1.413   .     S
C370   C1143   1.413   1_554 S
C371   H389    1.104   .     S
C371   H387    1.111   .     S
C371   H474    1.115   .     S
C371   O514    1.430   .     S
C372   H390    1.110   .     S
C372   H392    1.107   .     S
C373   H393    1.113   .     S
C373   O417    1.410   .     S
C373   H395    1.114   .     S
C373   H396    1.109   .     S
C374   H398    1.114   .     S
C374   O418    1.410   .     S
C374   H397    1.108   .     S
C374   H399    1.113   .     S
C375   H402    1.111   .     S
C375   H400    1.110   .     S
C375   O419    1.412   .     S
C375   H401    1.114   .     S
C376   H404    1.109   .     S
C376   O420    1.412   .     S
C376   H406    1.111   .     S
C376   H403    1.115   .     S
C377   C379    1.389   .     A
C377   O418    1.383   .     S
C378   H383    1.076   .     S
C378   C1140   1.404   1_554 S
C379   H394    1.072   .     S
C379   C1142   1.395   .     S
C380   H410    1.084   .     S
C380   C640    1.379   .     S
C381   H411    1.084   .     S
C382   O419    1.387   .     S
H391   C458    1.115   .     S
N413   Zn429   2.026   .     S
N414   Zn430   2.026   .     S
O415   Zn429   1.995   .     S
O416   C458    1.421   .     S
O421   Zn430   1.995   .     S
O422   Zn430   1.990   .     S
O423   Zn429   1.990   .     S
O424   Zn429   1.963   .     S
O425   Zn430   1.963   .     S
O426   Zn430   2.030   .     S
O427   Zn429   2.030   .     S
C431   O501    1.287   .     A
C431   O508    1.289   .     A
C431   C434    1.415   .     S
C432   O506    1.387   .     S
C432   C434    1.403   .     A
C432   C725    1.379   .     S
C433   C442    1.414   .     S
C433   C468    1.402   .     A
C433   C467    1.395   .     A
C434   C466    1.395   .     A
C435   H498    1.082   .     S
C435   N500    1.369   .     A
C435   C265    1.422   1_655 S
C436   N499    1.369   .     A
C436   H470    1.082   .     S
C437   N499    1.369   .     A
C437   H471    1.082   .     S
C438   H472    1.082   .     S
C438   N500    1.368   .     A
C438   C264    1.422   1_655 S
C439   O512    1.297   .     A
C439   O510    1.295   .     A
C439   C441    1.455   .     S
C440   O513    1.295   .     A
C440   C443    1.450   .     S
C440   O511    1.299   .     A
C441   C448    1.394   .     A
C441   C446    1.384   .     A
C442   O509    1.289   .     A
C442   O507    1.286   .     A
C443   C449    1.403   .     A
C443   C447    1.384   .     A
C444   O514    1.382   .     S
C444   C446    1.385   .     A
C444   C452    1.414   .     A
C445   O502    1.382   .     S
C445   C454    1.410   .     A
C445   C447    1.381   .     A
C446   H495    1.082   .     S
C447   H494    1.082   .     S
C448   H493    1.083   .     S
C448   C450    1.409   .     A
C449   C451    1.407   .     A
C449   H491    1.079   .     S
C450   C455    1.402   .     A
C450   C452    1.416   .     A
C451   C456    1.422   .     A
C451   C454    1.421   .     A
C452   C1238   1.404   .     S
C453   C456    1.420   .     A
C453   O503    1.382   .     S
C453   C464    1.404   .     A
C454   C1239   1.395   1_554 S
C455   C463    1.408   .     A
C455   C1230   1.413   .     S
C456   C1229   1.413   1_554 S
C457   H475    1.104   .     S
C457   H473    1.111   .     S
C457   H302    1.115   1_655 S
C457   O342    1.430   1_655 S
C458   H476    1.110   .     S
C458   H478    1.107   .     S
C459   H479    1.113   .     S
C459   O503    1.410   .     S
C459   H481    1.114   .     S
C459   H482    1.109   .     S
C460   H484    1.114   .     S
C460   O504    1.410   .     S
C460   H483    1.108   .     S
C460   H485    1.113   .     S
C461   H488    1.111   .     S
C461   H486    1.110   .     S
C461   O505    1.412   .     S
C461   H487    1.114   .     S
C462   H490    1.109   .     S
C462   O506    1.412   .     S
C462   H492    1.111   .     S
C462   H489    1.115   .     S
C463   C465    1.389   .     A
C463   O504    1.383   .     S
C464   H469    1.076   .     S
C464   C1226   1.404   1_554 S
C465   H480    1.072   .     S
C465   C1228   1.395   .     S
C466   H496    1.084   .     S
C466   C726    1.379   .     S
C467   H497    1.084   .     S
C468   O505    1.387   .     S
H477   C286    1.115   1_655 S
N499   Zn515   2.026   .     S
N500   Zn516   2.026   .     S
O501   Zn515   1.995   .     S
O502   C286    1.421   1_655 S
O507   Zn516   1.995   .     S
O508   Zn516   1.990   .     S
O509   Zn515   1.990   .     S
O510   Zn515   1.963   .     S
O511   Zn516   1.963   .     S
O512   Zn516   2.030   .     S
O513   Zn515   2.030   .     S
C517   O587    1.287   .     A
C517   O594    1.289   .     A
C517   C520    1.415   .     S
C518   O592    1.387   .     S
C518   C520    1.403   .     A
C518   C37     1.379   1_565 S
C519   C528    1.414   .     S
C519   C554    1.402   .     A
C519   C553    1.395   .     A
C520   C552    1.395   .     A
C521   H584    1.082   .     S
C521   N586    1.369   .     A
C521   C609    1.422   .     S
C522   N585    1.369   .     A
C522   H556    1.082   .     S
C522   C696    1.422   1_455 S
C523   N585    1.369   .     A
C523   H557    1.082   .     S
C523   C693    1.422   1_455 S
C524   H558    1.082   .     S
C524   N586    1.368   .     A
C524   C608    1.422   .     S
C525   O598    1.297   .     A
C525   O596    1.295   .     A
C525   C527    1.455   .     S
C526   O599    1.295   .     A
C526   C529    1.450   .     S
C526   O597    1.299   .     A
C527   C534    1.394   .     A
C527   C532    1.384   .     A
C528   O595    1.289   .     A
C528   O593    1.286   .     A
C529   C535    1.403   .     A
C529   C533    1.384   .     A
C530   O600    1.382   .     S
C530   C532    1.385   .     A
C530   C538    1.414   .     A
C531   O588    1.382   .     S
C531   C540    1.410   .     A
C531   C533    1.381   .     A
C532   H581    1.082   .     S
C533   H580    1.082   .     S
C534   H579    1.083   .     S
C534   C536    1.409   .     A
C535   C537    1.407   .     A
C535   H577    1.079   .     S
C536   C541    1.402   .     A
C536   C538    1.416   .     A
C537   C542    1.422   .     A
C537   C540    1.421   .     A
C538   C1324   1.404   .     S
C539   C542    1.420   .     A
C539   O589    1.382   .     S
C539   C550    1.404   .     A
C540   C1325   1.395   1_554 S
C541   C549    1.408   .     A
C541   C1316   1.413   .     S
C542   C1315   1.413   1_554 S
C543   H561    1.104   .     S
C543   H559    1.111   .     S
C543   H646    1.115   .     S
C543   O686    1.430   .     S
C544   H562    1.110   .     S
C544   H564    1.107   .     S
C544   H735    1.115   1_455 S
C544   O760    1.421   1_455 S
C545   H565    1.113   .     S
C545   O589    1.410   .     S
C545   H567    1.114   .     S
C545   H568    1.109   .     S
C546   H570    1.114   .     S
C546   O590    1.410   .     S
C546   H569    1.108   .     S
C546   H571    1.113   .     S
C547   H574    1.111   .     S
C547   H572    1.110   .     S
C547   O591    1.412   .     S
C547   H573    1.114   .     S
C548   H576    1.109   .     S
C548   O592    1.412   .     S
C548   H578    1.111   .     S
C548   H575    1.115   .     S
C549   C551    1.389   .     A
C549   O590    1.383   .     S
C550   H555    1.076   .     S
C550   C1312   1.404   1_554 S
C551   H566    1.072   .     S
C551   C1314   1.395   .     S
C552   H582    1.084   .     S
C552   C38     1.379   1_565 S
C553   H583    1.084   .     S
C554   O591    1.387   .     S
H560   C715    1.115   1_455 S
H563   C630    1.115   .     S
N585   Zn601   2.026   .     S
N586   Zn602   2.026   .     S
O587   Zn601   1.995   .     S
O588   C630    1.421   .     S
O593   Zn602   1.995   .     S
O594   Zn602   1.990   .     S
O595   Zn601   1.990   .     S
O596   Zn601   1.963   .     S
O597   Zn602   1.963   .     S
O598   Zn602   2.030   .     S
O599   Zn601   2.030   .     S
O600   C715    1.430   1_455 S
C603   O673    1.287   .     A
C603   O680    1.289   .     A
C603   C606    1.415   .     S
C604   O678    1.387   .     S
C604   C606    1.403   .     A
C604   C123    1.379   1_565 S
C605   C614    1.414   .     S
C605   C640    1.402   .     A
C605   C639    1.395   .     A
C606   C638    1.395   .     A
C607   H670    1.082   .     S
C607   N672    1.369   .     A
C607   C695    1.422   .     S
C608   N671    1.369   .     A
C608   H642    1.082   .     S
C609   N671    1.369   .     A
C609   H643    1.082   .     S
C610   H644    1.082   .     S
C610   N672    1.368   .     A
C610   C694    1.422   .     S
C611   O684    1.297   .     A
C611   O682    1.295   .     A
C611   C613    1.455   .     S
C612   O685    1.295   .     A
C612   C615    1.450   .     S
C612   O683    1.299   .     A
C613   C620    1.394   .     A
C613   C618    1.384   .     A
C614   O681    1.289   .     A
C614   O679    1.286   .     A
C615   C621    1.403   .     A
C615   C619    1.384   .     A
C616   O686    1.382   .     S
C616   C618    1.385   .     A
C616   C624    1.414   .     A
C617   O674    1.382   .     S
C617   C626    1.410   .     A
C617   C619    1.381   .     A
C618   H667    1.082   .     S
C619   H666    1.082   .     S
C620   H665    1.083   .     S
C620   C622    1.409   .     A
C621   C623    1.407   .     A
C621   H663    1.079   .     S
C622   C627    1.402   .     A
C622   C624    1.416   .     A
C623   C628    1.422   .     A
C623   C626    1.421   .     A
C624   C1410   1.404   .     S
C625   C628    1.420   .     A
C625   O675    1.382   .     S
C625   C636    1.404   .     A
C626   C1411   1.395   1_554 S
C627   C635    1.408   .     A
C627   C1402   1.413   .     S
C628   C1401   1.413   1_554 S
C629   H647    1.104   .     S
C629   H645    1.111   .     S
C629   H732    1.115   .     S
C629   O772    1.430   .     S
C630   H648    1.110   .     S
C630   H650    1.107   .     S
C631   H651    1.113   .     S
C631   O675    1.410   .     S
C631   H653    1.114   .     S
C631   H654    1.109   .     S
C632   H656    1.114   .     S
C632   O676    1.410   .     S
C632   H655    1.108   .     S
C632   H657    1.113   .     S
C633   H660    1.111   .     S
C633   H658    1.110   .     S
C633   O677    1.412   .     S
C633   H659    1.114   .     S
C634   H662    1.109   .     S
C634   O678    1.412   .     S
C634   H664    1.111   .     S
C634   H661    1.115   .     S
C635   C637    1.389   .     A
C635   O676    1.383   .     S
C636   H641    1.076   .     S
C636   C1398   1.404   1_554 S
C637   H652    1.072   .     S
C637   C1400   1.395   .     S
C638   H668    1.084   .     S
C638   C124    1.379   1_565 S
C639   H669    1.084   .     S
C640   O677    1.387   .     S
H649   C716    1.115   .     S
N671   Zn687   2.026   .     S
N672   Zn688   2.026   .     S
O673   Zn687   1.995   .     S
O674   C716    1.421   .     S
O679   Zn688   1.995   .     S
O680   Zn688   1.990   .     S
O681   Zn687   1.990   .     S
O682   Zn687   1.963   .     S
O683   Zn688   1.963   .     S
O684   Zn688   2.030   .     S
O685   Zn687   2.030   .     S
C689   O759    1.287   .     A
C689   O766    1.289   .     A
C689   C692    1.415   .     S
C690   O764    1.387   .     S
C690   C692    1.403   .     A
C690   C209    1.379   1_565 S
C691   C700    1.414   .     S
C691   C726    1.402   .     A
C691   C725    1.395   .     A
C692   C724    1.395   .     A
C693   H756    1.082   .     S
C693   N758    1.369   .     A
C693   C523    1.422   1_655 S
C694   N757    1.369   .     A
C694   H728    1.082   .     S
C695   N757    1.369   .     A
C695   H729    1.082   .     S
C696   H730    1.082   .     S
C696   N758    1.368   .     A
C696   C522    1.422   1_655 S
C697   O770    1.297   .     A
C697   O768    1.295   .     A
C697   C699    1.455   .     S
C698   O771    1.295   .     A
C698   C701    1.450   .     S
C698   O769    1.299   .     A
C699   C706    1.394   .     A
C699   C704    1.384   .     A
C700   O767    1.289   .     A
C700   O765    1.286   .     A
C701   C707    1.403   .     A
C701   C705    1.384   .     A
C702   O772    1.382   .     S
C702   C704    1.385   .     A
C702   C710    1.414   .     A
C703   O760    1.382   .     S
C703   C712    1.410   .     A
C703   C705    1.381   .     A
C704   H753    1.082   .     S
C705   H752    1.082   .     S
C706   H751    1.083   .     S
C706   C708    1.409   .     A
C707   C709    1.407   .     A
C707   H749    1.079   .     S
C708   C713    1.402   .     A
C708   C710    1.416   .     A
C709   C714    1.422   .     A
C709   C712    1.421   .     A
C710   C1496   1.404   .     S
C711   C714    1.420   .     A
C711   O761    1.382   .     S
C711   C722    1.404   .     A
C712   C1497   1.395   1_554 S
C713   C721    1.408   .     A
C713   C1488   1.413   .     S
C714   C1487   1.413   1_554 S
C715   H733    1.104   .     S
C715   H731    1.111   .     S
C715   H560    1.115   1_655 S
C715   O600    1.430   1_655 S
C716   H734    1.110   .     S
C716   H736    1.107   .     S
C717   H737    1.113   .     S
C717   O761    1.410   .     S
C717   H739    1.114   .     S
C717   H740    1.109   .     S
C718   H742    1.114   .     S
C718   O762    1.410   .     S
C718   H741    1.108   .     S
C718   H743    1.113   .     S
C719   H746    1.111   .     S
C719   H744    1.110   .     S
C719   O763    1.412   .     S
C719   H745    1.114   .     S
C720   H748    1.109   .     S
C720   O764    1.412   .     S
C720   H750    1.111   .     S
C720   H747    1.115   .     S
C721   C723    1.389   .     A
C721   O762    1.383   .     S
C722   H727    1.076   .     S
C722   C1484   1.404   1_554 S
C723   H738    1.072   .     S
C723   C1486   1.395   .     S
C724   H754    1.084   .     S
C724   C210    1.379   1_565 S
C725   H755    1.084   .     S
C726   O763    1.387   .     S
H735   C544    1.115   1_655 S
N757   Zn773   2.026   .     S
N758   Zn774   2.026   .     S
O759   Zn773   1.995   .     S
O760   C544    1.421   1_655 S
O765   Zn774   1.995   .     S
O766   Zn774   1.990   .     S
O767   Zn773   1.990   .     S
O768   Zn773   1.963   .     S
O769   Zn774   1.963   .     S
O770   Zn774   2.030   .     S
O771   Zn773   2.030   .     S
C775   O845    1.287   .     A
C775   O852    1.289   .     A
C775   C778    1.415   .     S
C776   O850    1.387   .     S
C776   C778    1.403   .     A
C776   C1069   1.379   .     S
C777   C786    1.414   .     S
C777   C812    1.402   .     A
C777   C811    1.395   .     A
C778   C810    1.395   .     A
C779   H842    1.082   .     S
C779   N844    1.369   .     A
C779   C867    1.422   .     S
C780   N843    1.369   .     A
C780   H814    1.082   .     S
C780   C954    1.422   1_455 S
C781   N843    1.369   .     A
C781   H815    1.082   .     S
C781   C951    1.422   1_455 S
C782   H816    1.082   .     S
C782   N844    1.368   .     A
C782   C866    1.422   .     S
C783   O856    1.297   .     A
C783   O854    1.295   .     A
C783   C785    1.455   .     S
C784   O857    1.295   .     A
C784   C787    1.450   .     S
C784   O855    1.299   .     A
C785   C792    1.394   .     A
C785   C790    1.384   .     A
C786   O853    1.289   .     A
C786   O851    1.286   .     A
C787   C793    1.403   .     A
C787   C791    1.384   .     A
C788   O858    1.382   .     S
C788   C790    1.385   .     A
C788   C796    1.414   .     A
C789   O846    1.382   .     S
C789   C798    1.410   .     A
C789   C791    1.381   .     A
C790   H839    1.082   .     S
C791   H838    1.082   .     S
C792   H837    1.083   .     S
C792   C794    1.409   .     A
C793   C795    1.407   .     A
C793   H835    1.079   .     S
C794   C799    1.402   .     A
C794   C796    1.416   .     A
C795   C800    1.422   .     A
C795   C798    1.421   .     A
C796   C34     1.404   1_556 S
C797   C800    1.420   .     A
C797   O847    1.382   .     S
C797   C808    1.404   .     A
C799   C807    1.408   .     A
C799   C26     1.413   1_556 S
C801   H819    1.104   .     S
C801   H817    1.111   .     S
C801   H904    1.115   .     S
C801   O944    1.430   .     S
C802   H820    1.110   .     S
C802   H822    1.107   .     S
C802   H993    1.115   1_455 S
C802   O1018   1.421   1_455 S
C803   H823    1.113   .     S
C803   O847    1.410   .     S
C803   H825    1.114   .     S
C803   H826    1.109   .     S
C804   H828    1.114   .     S
C804   O848    1.410   .     S
C804   H827    1.108   .     S
C804   H829    1.113   .     S
C805   H832    1.111   .     S
C805   H830    1.110   .     S
C805   O849    1.412   .     S
C805   H831    1.114   .     S
C806   H834    1.109   .     S
C806   O850    1.412   .     S
C806   H836    1.111   .     S
C806   H833    1.115   .     S
C807   C809    1.389   .     A
C807   O848    1.383   .     S
C808   H813    1.076   .     S
C809   H824    1.072   .     S
C809   C24     1.395   1_556 S
C810   H840    1.084   .     S
C810   C1070   1.379   .     S
C811   H841    1.084   .     S
C811   C1292   1.379   1_545 S
C812   O849    1.387   .     S
C812   C1326   1.379   1_545 S
H818   C973    1.115   1_455 S
H821   C888    1.115   .     S
N843   Zn859   2.026   .     S
N844   Zn860   2.026   .     S
O845   Zn859   1.995   .     S
O846   C888    1.421   .     S
O851   Zn860   1.995   .     S
O852   Zn860   1.990   .     S
O853   Zn859   1.990   .     S
O854   Zn859   1.963   .     S
O855   Zn860   1.963   .     S
O856   Zn860   2.030   .     S
O857   Zn859   2.030   .     S
O858   C973    1.430   1_455 S
C861   O931    1.287   .     A
C861   O938    1.289   .     A
C861   C864    1.415   .     S
C862   O936    1.387   .     S
C862   C864    1.403   .     A
C862   C1155   1.379   .     S
C863   C872    1.414   .     S
C863   C898    1.402   .     A
C863   C897    1.395   .     A
C864   C896    1.395   .     A
C865   H928    1.082   .     S
C865   N930    1.369   .     A
C865   C953    1.422   .     S
C866   N929    1.369   .     A
C866   H900    1.082   .     S
C867   N929    1.369   .     A
C867   H901    1.082   .     S
C868   H902    1.082   .     S
C868   N930    1.368   .     A
C868   C952    1.422   .     S
C869   O942    1.297   .     A
C869   O940    1.295   .     A
C869   C871    1.455   .     S
C870   O943    1.295   .     A
C870   C873    1.450   .     S
C870   O941    1.299   .     A
C871   C878    1.394   .     A
C871   C876    1.384   .     A
C872   O939    1.289   .     A
C872   O937    1.286   .     A
C873   C879    1.403   .     A
C873   C877    1.384   .     A
C874   O944    1.382   .     S
C874   C876    1.385   .     A
C874   C882    1.414   .     A
C875   O932    1.382   .     S
C875   C884    1.410   .     A
C875   C877    1.381   .     A
C876   H925    1.082   .     S
C877   H924    1.082   .     S
C878   H923    1.083   .     S
C878   C880    1.409   .     A
C879   C881    1.407   .     A
C879   H921    1.079   .     S
C880   C885    1.402   .     A
C880   C882    1.416   .     A
C881   C886    1.422   .     A
C881   C884    1.421   .     A
C882   C120    1.404   1_556 S
C883   C886    1.420   .     A
C883   O933    1.382   .     S
C883   C894    1.404   .     A
C885   C893    1.408   .     A
C885   C112    1.413   1_556 S
C887   H905    1.104   .     S
C887   H903    1.111   .     S
C887   H990    1.115   .     S
C887   O1030   1.430   .     S
C888   H906    1.110   .     S
C888   H908    1.107   .     S
C889   H909    1.113   .     S
C889   O933    1.410   .     S
C889   H911    1.114   .     S
C889   H912    1.109   .     S
C890   H914    1.114   .     S
C890   O934    1.410   .     S
C890   H913    1.108   .     S
C890   H915    1.113   .     S
C891   H918    1.111   .     S
C891   H916    1.110   .     S
C891   O935    1.412   .     S
C891   H917    1.114   .     S
C892   H920    1.109   .     S
C892   O936    1.412   .     S
C892   H922    1.111   .     S
C892   H919    1.115   .     S
C893   C895    1.389   .     A
C893   O934    1.383   .     S
C894   H899    1.076   .     S
C895   H910    1.072   .     S
C895   C110    1.395   1_556 S
C896   H926    1.084   .     S
C896   C1156   1.379   .     S
C897   H927    1.084   .     S
C897   C1378   1.379   1_545 S
C898   O935    1.387   .     S
C898   C1412   1.379   1_545 S
H907   C974    1.115   .     S
N929   Zn945   2.026   .     S
N930   Zn946   2.026   .     S
O931   Zn945   1.995   .     S
O932   C974    1.421   .     S
O937   Zn946   1.995   .     S
O938   Zn946   1.990   .     S
O939   Zn945   1.990   .     S
O940   Zn945   1.963   .     S
O941   Zn946   1.963   .     S
O942   Zn946   2.030   .     S
O943   Zn945   2.030   .     S
C947   O1017   1.287   .     A
C947   O1024   1.289   .     A
C947   C950    1.415   .     S
C948   O1022   1.387   .     S
C948   C950    1.403   .     A
C948   C1241   1.379   .     S
C949   C958    1.414   .     S
C949   C984    1.402   .     A
C949   C983    1.395   .     A
C950   C982    1.395   .     A
C951   H1014   1.082   .     S
C951   N1016   1.369   .     A
C951   C781    1.422   1_655 S
C952   N1015   1.369   .     A
C952   H986    1.082   .     S
C953   N1015   1.369   .     A
C953   H987    1.082   .     S
C954   H988    1.082   .     S
C954   N1016   1.368   .     A
C954   C780    1.422   1_655 S
C955   O1028   1.297   .     A
C955   O1026   1.295   .     A
C955   C957    1.455   .     S
C956   O1029   1.295   .     A
C956   C959    1.450   .     S
C956   O1027   1.299   .     A
C957   C964    1.394   .     A
C957   C962    1.384   .     A
C958   O1025   1.289   .     A
C958   O1023   1.286   .     A
C959   C965    1.403   .     A
C959   C963    1.384   .     A
C960   O1030   1.382   .     S
C960   C962    1.385   .     A
C960   C968    1.414   .     A
C961   O1018   1.382   .     S
C961   C970    1.410   .     A
C961   C963    1.381   .     A
C962   H1011   1.082   .     S
C963   H1010   1.082   .     S
C964   H1009   1.083   .     S
C964   C966    1.409   .     A
C965   C967    1.407   .     A
C965   H1007   1.079   .     S
C966   C971    1.402   .     A
C966   C968    1.416   .     A
C967   C972    1.422   .     A
C967   C970    1.421   .     A
C968   C206    1.404   1_556 S
C969   C972    1.420   .     A
C969   O1019   1.382   .     S
C969   C980    1.404   .     A
C971   C979    1.408   .     A
C971   C198    1.413   1_556 S
C973   H991    1.104   .     S
C973   H989    1.111   .     S
C973   H818    1.115   1_655 S
C973   O858    1.430   1_655 S
C974   H992    1.110   .     S
C974   H994    1.107   .     S
C975   H995    1.113   .     S
C975   O1019   1.410   .     S
C975   H997    1.114   .     S
C975   H998    1.109   .     S
C976   H1000   1.114   .     S
C976   O1020   1.410   .     S
C976   H999    1.108   .     S
C976   H1001   1.113   .     S
C977   H1004   1.111   .     S
C977   H1002   1.110   .     S
C977   O1021   1.412   .     S
C977   H1003   1.114   .     S
C978   H1006   1.109   .     S
C978   O1022   1.412   .     S
C978   H1008   1.111   .     S
C978   H1005   1.115   .     S
C979   C981    1.389   .     A
C979   O1020   1.383   .     S
C980   H985    1.076   .     S
C981   H996    1.072   .     S
C981   C196    1.395   1_556 S
C982   H1012   1.084   .     S
C982   C1242   1.379   .     S
C983   H1013   1.084   .     S
C983   C1464   1.379   1_545 S
C984   O1021   1.387   .     S
C984   C1498   1.379   1_545 S
H993   C802    1.115   1_655 S
N1015  Zn1031  2.026   .     S
N1016  Zn1032  2.026   .     S
O1017  Zn1031  1.995   .     S
O1018  C802    1.421   1_655 S
O1023  Zn1032  1.995   .     S
O1024  Zn1032  1.990   .     S
O1025  Zn1031  1.990   .     S
O1026  Zn1031  1.963   .     S
O1027  Zn1032  1.963   .     S
O1028  Zn1032  2.030   .     S
O1029  Zn1031  2.030   .     S
C1033  O1103   1.287   .     A
C1033  O1110   1.289   .     A
C1033  C1036   1.415   .     S
C1034  O1108   1.387   .     S
C1034  C1036   1.403   .     A
C1034  C1327   1.379   .     S
C1035  C1044   1.414   .     S
C1035  C1070   1.402   .     A
C1035  C1069   1.395   .     A
C1036  C1068   1.395   .     A
C1037  H1100   1.082   .     S
C1037  N1102   1.369   .     A
C1037  C1125   1.422   .     S
C1038  N1101   1.369   .     A
C1038  H1072   1.082   .     S
C1038  C1212   1.422   1_455 S
C1039  N1101   1.369   .     A
C1039  H1073   1.082   .     S
C1039  C1209   1.422   1_455 S
C1040  H1074   1.082   .     S
C1040  N1102   1.368   .     A
C1040  C1124   1.422   .     S
C1041  O1114   1.297   .     A
C1041  O1112   1.295   .     A
C1041  C1043   1.455   .     S
C1042  O1115   1.295   .     A
C1042  C1045   1.450   .     S
C1042  O1113   1.299   .     A
C1043  C1050   1.394   .     A
C1043  C1048   1.384   .     A
C1044  O1111   1.289   .     A
C1044  O1109   1.286   .     A
C1045  C1051   1.403   .     A
C1045  C1049   1.384   .     A
C1046  O1116   1.382   .     S
C1046  C1048   1.385   .     A
C1046  C1054   1.414   .     A
C1047  O1104   1.382   .     S
C1047  C1056   1.410   .     A
C1047  C1049   1.381   .     A
C1048  H1097   1.082   .     S
C1049  H1096   1.082   .     S
C1050  H1095   1.083   .     S
C1050  C1052   1.409   .     A
C1051  C1053   1.407   .     A
C1051  H1093   1.079   .     S
C1052  C1057   1.402   .     A
C1052  C1054   1.416   .     A
C1053  C1058   1.422   .     A
C1053  C1056   1.421   .     A
C1054  C292    1.404   1_556 S
C1055  C1058   1.420   .     A
C1055  O1105   1.382   .     S
C1055  C1066   1.404   .     A
C1057  C1065   1.408   .     A
C1057  C284    1.413   1_556 S
C1059  H1077   1.104   .     S
C1059  H1075   1.111   .     S
C1059  H1162   1.115   .     S
C1059  O1202   1.430   .     S
C1060  H1078   1.110   .     S
C1060  H1080   1.107   .     S
C1060  H1251   1.115   1_455 S
C1060  O1276   1.421   1_455 S
C1061  H1081   1.113   .     S
C1061  O1105   1.410   .     S
C1061  H1083   1.114   .     S
C1061  H1084   1.109   .     S
C1062  H1086   1.114   .     S
C1062  O1106   1.410   .     S
C1062  H1085   1.108   .     S
C1062  H1087   1.113   .     S
C1063  H1090   1.111   .     S
C1063  H1088   1.110   .     S
C1063  O1107   1.412   .     S
C1063  H1089   1.114   .     S
C1064  H1092   1.109   .     S
C1064  O1108   1.412   .     S
C1064  H1094   1.111   .     S
C1064  H1091   1.115   .     S
C1065  C1067   1.389   .     A
C1065  O1106   1.383   .     S
C1066  H1071   1.076   .     S
C1067  H1082   1.072   .     S
C1067  C282    1.395   1_556 S
C1068  H1098   1.084   .     S
C1068  C1328   1.379   .     S
C1069  H1099   1.084   .     S
C1070  O1107   1.387   .     S
H1076  C1231   1.115   1_455 S
H1079  C1146   1.115   .     S
N1101  Zn1117  2.026   .     S
N1102  Zn1118  2.026   .     S
O1103  Zn1117  1.995   .     S
O1104  C1146   1.421   .     S
O1109  Zn1118  1.995   .     S
O1110  Zn1118  1.990   .     S
O1111  Zn1117  1.990   .     S
O1112  Zn1117  1.963   .     S
O1113  Zn1118  1.963   .     S
O1114  Zn1118  2.030   .     S
O1115  Zn1117  2.030   .     S
O1116  C1231   1.430   1_455 S
C1119  O1189   1.287   .     A
C1119  O1196   1.289   .     A
C1119  C1122   1.415   .     S
C1120  O1194   1.387   .     S
C1120  C1122   1.403   .     A
C1120  C1413   1.379   .     S
C1121  C1130   1.414   .     S
C1121  C1156   1.402   .     A
C1121  C1155   1.395   .     A
C1122  C1154   1.395   .     A
C1123  H1186   1.082   .     S
C1123  N1188   1.369   .     A
C1123  C1211   1.422   .     S
C1124  N1187   1.369   .     A
C1124  H1158   1.082   .     S
C1125  N1187   1.369   .     A
C1125  H1159   1.082   .     S
C1126  H1160   1.082   .     S
C1126  N1188   1.368   .     A
C1126  C1210   1.422   .     S
C1127  O1200   1.297   .     A
C1127  O1198   1.295   .     A
C1127  C1129   1.455   .     S
C1128  O1201   1.295   .     A
C1128  C1131   1.450   .     S
C1128  O1199   1.299   .     A
C1129  C1136   1.394   .     A
C1129  C1134   1.384   .     A
C1130  O1197   1.289   .     A
C1130  O1195   1.286   .     A
C1131  C1137   1.403   .     A
C1131  C1135   1.384   .     A
C1132  O1202   1.382   .     S
C1132  C1134   1.385   .     A
C1132  C1140   1.414   .     A
C1133  O1190   1.382   .     S
C1133  C1142   1.410   .     A
C1133  C1135   1.381   .     A
C1134  H1183   1.082   .     S
C1135  H1182   1.082   .     S
C1136  H1181   1.083   .     S
C1136  C1138   1.409   .     A
C1137  C1139   1.407   .     A
C1137  H1179   1.079   .     S
C1138  C1143   1.402   .     A
C1138  C1140   1.416   .     A
C1139  C1144   1.422   .     A
C1139  C1142   1.421   .     A
C1140  C378    1.404   1_556 S
C1141  C1144   1.420   .     A
C1141  O1191   1.382   .     S
C1141  C1152   1.404   .     A
C1143  C1151   1.408   .     A
C1143  C370    1.413   1_556 S
C1145  H1163   1.104   .     S
C1145  H1161   1.111   .     S
C1145  H1248   1.115   .     S
C1145  O1288   1.430   .     S
C1146  H1164   1.110   .     S
C1146  H1166   1.107   .     S
C1147  H1167   1.113   .     S
C1147  O1191   1.410   .     S
C1147  H1169   1.114   .     S
C1147  H1170   1.109   .     S
C1148  H1172   1.114   .     S
C1148  O1192   1.410   .     S
C1148  H1171   1.108   .     S
C1148  H1173   1.113   .     S
C1149  H1176   1.111   .     S
C1149  H1174   1.110   .     S
C1149  O1193   1.412   .     S
C1149  H1175   1.114   .     S
C1150  H1178   1.109   .     S
C1150  O1194   1.412   .     S
C1150  H1180   1.111   .     S
C1150  H1177   1.115   .     S
C1151  C1153   1.389   .     A
C1151  O1192   1.383   .     S
C1152  H1157   1.076   .     S
C1153  H1168   1.072   .     S
C1153  C368    1.395   1_556 S
C1154  H1184   1.084   .     S
C1154  C1414   1.379   .     S
C1155  H1185   1.084   .     S
C1156  O1193   1.387   .     S
H1165  C1232   1.115   .     S
N1187  Zn1203  2.026   .     S
N1188  Zn1204  2.026   .     S
O1189  Zn1203  1.995   .     S
O1190  C1232   1.421   .     S
O1195  Zn1204  1.995   .     S
O1196  Zn1204  1.990   .     S
O1197  Zn1203  1.990   .     S
O1198  Zn1203  1.963   .     S
O1199  Zn1204  1.963   .     S
O1200  Zn1204  2.030   .     S
O1201  Zn1203  2.030   .     S
C1205  O1275   1.287   .     A
C1205  O1282   1.289   .     A
C1205  C1208   1.415   .     S
C1206  O1280   1.387   .     S
C1206  C1208   1.403   .     A
C1206  C1499   1.379   .     S
C1207  C1216   1.414   .     S
C1207  C1242   1.402   .     A
C1207  C1241   1.395   .     A
C1208  C1240   1.395   .     A
C1209  H1272   1.082   .     S
C1209  N1274   1.369   .     A
C1209  C1039   1.422   1_655 S
C1210  N1273   1.369   .     A
C1210  H1244   1.082   .     S
C1211  N1273   1.369   .     A
C1211  H1245   1.082   .     S
C1212  H1246   1.082   .     S
C1212  N1274   1.368   .     A
C1212  C1038   1.422   1_655 S
C1213  O1286   1.297   .     A
C1213  O1284   1.295   .     A
C1213  C1215   1.455   .     S
C1214  O1287   1.295   .     A
C1214  C1217   1.450   .     S
C1214  O1285   1.299   .     A
C1215  C1222   1.394   .     A
C1215  C1220   1.384   .     A
C1216  O1283   1.289   .     A
C1216  O1281   1.286   .     A
C1217  C1223   1.403   .     A
C1217  C1221   1.384   .     A
C1218  O1288   1.382   .     S
C1218  C1220   1.385   .     A
C1218  C1226   1.414   .     A
C1219  O1276   1.382   .     S
C1219  C1228   1.410   .     A
C1219  C1221   1.381   .     A
C1220  H1269   1.082   .     S
C1221  H1268   1.082   .     S
C1222  H1267   1.083   .     S
C1222  C1224   1.409   .     A
C1223  C1225   1.407   .     A
C1223  H1265   1.079   .     S
C1224  C1229   1.402   .     A
C1224  C1226   1.416   .     A
C1225  C1230   1.422   .     A
C1225  C1228   1.421   .     A
C1226  C464    1.404   1_556 S
C1227  C1230   1.420   .     A
C1227  O1277   1.382   .     S
C1227  C1238   1.404   .     A
C1229  C1237   1.408   .     A
C1229  C456    1.413   1_556 S
C1231  H1249   1.104   .     S
C1231  H1247   1.111   .     S
C1231  H1076   1.115   1_655 S
C1231  O1116   1.430   1_655 S
C1232  H1250   1.110   .     S
C1232  H1252   1.107   .     S
C1233  H1253   1.113   .     S
C1233  O1277   1.410   .     S
C1233  H1255   1.114   .     S
C1233  H1256   1.109   .     S
C1234  H1258   1.114   .     S
C1234  O1278   1.410   .     S
C1234  H1257   1.108   .     S
C1234  H1259   1.113   .     S
C1235  H1262   1.111   .     S
C1235  H1260   1.110   .     S
C1235  O1279   1.412   .     S
C1235  H1261   1.114   .     S
C1236  H1264   1.109   .     S
C1236  O1280   1.412   .     S
C1236  H1266   1.111   .     S
C1236  H1263   1.115   .     S
C1237  C1239   1.389   .     A
C1237  O1278   1.383   .     S
C1238  H1243   1.076   .     S
C1239  H1254   1.072   .     S
C1239  C454    1.395   1_556 S
C1240  H1270   1.084   .     S
C1240  C1500   1.379   .     S
C1241  H1271   1.084   .     S
C1242  O1279   1.387   .     S
H1251  C1060   1.115   1_655 S
N1273  Zn1289  2.026   .     S
N1274  Zn1290  2.026   .     S
O1275  Zn1289  1.995   .     S
O1276  C1060   1.421   1_655 S
O1281  Zn1290  1.995   .     S
O1282  Zn1290  1.990   .     S
O1283  Zn1289  1.990   .     S
O1284  Zn1289  1.963   .     S
O1285  Zn1290  1.963   .     S
O1286  Zn1290  2.030   .     S
O1287  Zn1289  2.030   .     S
C1291  O1361   1.287   .     A
C1291  O1368   1.289   .     A
C1291  C1294   1.415   .     S
C1292  O1366   1.387   .     S
C1292  C1294   1.403   .     A
C1292  C811    1.379   1_565 S
C1293  C1302   1.414   .     S
C1293  C1328   1.402   .     A
C1293  C1327   1.395   .     A
C1294  C1326   1.395   .     A
C1295  H1358   1.082   .     S
C1295  N1360   1.369   .     A
C1295  C1383   1.422   .     S
C1296  N1359   1.369   .     A
C1296  H1330   1.082   .     S
C1296  C1470   1.422   1_455 S
C1297  N1359   1.369   .     A
C1297  H1331   1.082   .     S
C1297  C1467   1.422   1_455 S
C1298  H1332   1.082   .     S
C1298  N1360   1.368   .     A
C1298  C1382   1.422   .     S
C1299  O1372   1.297   .     A
C1299  O1370   1.295   .     A
C1299  C1301   1.455   .     S
C1300  O1373   1.295   .     A
C1300  C1303   1.450   .     S
C1300  O1371   1.299   .     A
C1301  C1308   1.394   .     A
C1301  C1306   1.384   .     A
C1302  O1369   1.289   .     A
C1302  O1367   1.286   .     A
C1303  C1309   1.403   .     A
C1303  C1307   1.384   .     A
C1304  O1374   1.382   .     S
C1304  C1306   1.385   .     A
C1304  C1312   1.414   .     A
C1305  O1362   1.382   .     S
C1305  C1314   1.410   .     A
C1305  C1307   1.381   .     A
C1306  H1355   1.082   .     S
C1307  H1354   1.082   .     S
C1308  H1353   1.083   .     S
C1308  C1310   1.409   .     A
C1309  C1311   1.407   .     A
C1309  H1351   1.079   .     S
C1310  C1315   1.402   .     A
C1310  C1312   1.416   .     A
C1311  C1316   1.422   .     A
C1311  C1314   1.421   .     A
C1312  C550    1.404   1_556 S
C1313  C1316   1.420   .     A
C1313  O1363   1.382   .     S
C1313  C1324   1.404   .     A
C1315  C1323   1.408   .     A
C1315  C542    1.413   1_556 S
C1317  H1335   1.104   .     S
C1317  H1333   1.111   .     S
C1317  H1420   1.115   .     S
C1317  O1460   1.430   .     S
C1318  H1336   1.110   .     S
C1318  H1338   1.107   .     S
C1318  H1509   1.115   1_455 S
C1318  O1534   1.421   1_455 S
C1319  H1339   1.113   .     S
C1319  O1363   1.410   .     S
C1319  H1341   1.114   .     S
C1319  H1342   1.109   .     S
C1320  H1344   1.114   .     S
C1320  O1364   1.410   .     S
C1320  H1343   1.108   .     S
C1320  H1345   1.113   .     S
C1321  H1348   1.111   .     S
C1321  H1346   1.110   .     S
C1321  O1365   1.412   .     S
C1321  H1347   1.114   .     S
C1322  H1350   1.109   .     S
C1322  O1366   1.412   .     S
C1322  H1352   1.111   .     S
C1322  H1349   1.115   .     S
C1323  C1325   1.389   .     A
C1323  O1364   1.383   .     S
C1324  H1329   1.076   .     S
C1325  H1340   1.072   .     S
C1325  C540    1.395   1_556 S
C1326  H1356   1.084   .     S
C1326  C812    1.379   1_565 S
C1327  H1357   1.084   .     S
C1328  O1365   1.387   .     S
H1334  C1489   1.115   1_455 S
H1337  C1404   1.115   .     S
N1359  Zn1375  2.026   .     S
N1360  Zn1376  2.026   .     S
O1361  Zn1375  1.995   .     S
O1362  C1404   1.421   .     S
O1367  Zn1376  1.995   .     S
O1368  Zn1376  1.990   .     S
O1369  Zn1375  1.990   .     S
O1370  Zn1375  1.963   .     S
O1371  Zn1376  1.963   .     S
O1372  Zn1376  2.030   .     S
O1373  Zn1375  2.030   .     S
O1374  C1489   1.430   1_455 S
C1377  O1447   1.287   .     A
C1377  O1454   1.289   .     A
C1377  C1380   1.415   .     S
C1378  O1452   1.387   .     S
C1378  C1380   1.403   .     A
C1378  C897    1.379   1_565 S
C1379  C1388   1.414   .     S
C1379  C1414   1.402   .     A
C1379  C1413   1.395   .     A
C1380  C1412   1.395   .     A
C1381  H1444   1.082   .     S
C1381  N1446   1.369   .     A
C1381  C1469   1.422   .     S
C1382  N1445   1.369   .     A
C1382  H1416   1.082   .     S
C1383  N1445   1.369   .     A
C1383  H1417   1.082   .     S
C1384  H1418   1.082   .     S
C1384  N1446   1.368   .     A
C1384  C1468   1.422   .     S
C1385  O1458   1.297   .     A
C1385  O1456   1.295   .     A
C1385  C1387   1.455   .     S
C1386  O1459   1.295   .     A
C1386  C1389   1.450   .     S
C1386  O1457   1.299   .     A
C1387  C1394   1.394   .     A
C1387  C1392   1.384   .     A
C1388  O1455   1.289   .     A
C1388  O1453   1.286   .     A
C1389  C1395   1.403   .     A
C1389  C1393   1.384   .     A
C1390  O1460   1.382   .     S
C1390  C1392   1.385   .     A
C1390  C1398   1.414   .     A
C1391  O1448   1.382   .     S
C1391  C1400   1.410   .     A
C1391  C1393   1.381   .     A
C1392  H1441   1.082   .     S
C1393  H1440   1.082   .     S
C1394  H1439   1.083   .     S
C1394  C1396   1.409   .     A
C1395  C1397   1.407   .     A
C1395  H1437   1.079   .     S
C1396  C1401   1.402   .     A
C1396  C1398   1.416   .     A
C1397  C1402   1.422   .     A
C1397  C1400   1.421   .     A
C1398  C636    1.404   1_556 S
C1399  C1402   1.420   .     A
C1399  O1449   1.382   .     S
C1399  C1410   1.404   .     A
C1401  C1409   1.408   .     A
C1401  C628    1.413   1_556 S
C1403  H1421   1.104   .     S
C1403  H1419   1.111   .     S
C1403  H1506   1.115   .     S
C1403  O1546   1.430   .     S
C1404  H1422   1.110   .     S
C1404  H1424   1.107   .     S
C1405  H1425   1.113   .     S
C1405  O1449   1.410   .     S
C1405  H1427   1.114   .     S
C1405  H1428   1.109   .     S
C1406  H1430   1.114   .     S
C1406  O1450   1.410   .     S
C1406  H1429   1.108   .     S
C1406  H1431   1.113   .     S
C1407  H1434   1.111   .     S
C1407  H1432   1.110   .     S
C1407  O1451   1.412   .     S
C1407  H1433   1.114   .     S
C1408  H1436   1.109   .     S
C1408  O1452   1.412   .     S
C1408  H1438   1.111   .     S
C1408  H1435   1.115   .     S
C1409  C1411   1.389   .     A
C1409  O1450   1.383   .     S
C1410  H1415   1.076   .     S
C1411  H1426   1.072   .     S
C1411  C626    1.395   1_556 S
C1412  H1442   1.084   .     S
C1412  C898    1.379   1_565 S
C1413  H1443   1.084   .     S
C1414  O1451   1.387   .     S
H1423  C1490   1.115   .     S
N1445  Zn1461  2.026   .     S
N1446  Zn1462  2.026   .     S
O1447  Zn1461  1.995   .     S
O1448  C1490   1.421   .     S
O1453  Zn1462  1.995   .     S
O1454  Zn1462  1.990   .     S
O1455  Zn1461  1.990   .     S
O1456  Zn1461  1.963   .     S
O1457  Zn1462  1.963   .     S
O1458  Zn1462  2.030   .     S
O1459  Zn1461  2.030   .     S
C1463  O1533   1.287   .     A
C1463  O1540   1.289   .     A
C1463  C1466   1.415   .     S
C1464  O1538   1.387   .     S
C1464  C1466   1.403   .     A
C1464  C983    1.379   1_565 S
C1465  C1474   1.414   .     S
C1465  C1500   1.402   .     A
C1465  C1499   1.395   .     A
C1466  C1498   1.395   .     A
C1467  H1530   1.082   .     S
C1467  N1532   1.369   .     A
C1467  C1297   1.422   1_655 S
C1468  N1531   1.369   .     A
C1468  H1502   1.082   .     S
C1469  N1531   1.369   .     A
C1469  H1503   1.082   .     S
C1470  H1504   1.082   .     S
C1470  N1532   1.368   .     A
C1470  C1296   1.422   1_655 S
C1471  O1544   1.297   .     A
C1471  O1542   1.295   .     A
C1471  C1473   1.455   .     S
C1472  O1545   1.295   .     A
C1472  C1475   1.450   .     S
C1472  O1543   1.299   .     A
C1473  C1480   1.394   .     A
C1473  C1478   1.384   .     A
C1474  O1541   1.289   .     A
C1474  O1539   1.286   .     A
C1475  C1481   1.403   .     A
C1475  C1479   1.384   .     A
C1476  O1546   1.382   .     S
C1476  C1478   1.385   .     A
C1476  C1484   1.414   .     A
C1477  O1534   1.382   .     S
C1477  C1486   1.410   .     A
C1477  C1479   1.381   .     A
C1478  H1527   1.082   .     S
C1479  H1526   1.082   .     S
C1480  H1525   1.083   .     S
C1480  C1482   1.409   .     A
C1481  C1483   1.407   .     A
C1481  H1523   1.079   .     S
C1482  C1487   1.402   .     A
C1482  C1484   1.416   .     A
C1483  C1488   1.422   .     A
C1483  C1486   1.421   .     A
C1484  C722    1.404   1_556 S
C1485  C1488   1.420   .     A
C1485  O1535   1.382   .     S
C1485  C1496   1.404   .     A
C1487  C1495   1.408   .     A
C1487  C714    1.413   1_556 S
C1489  H1507   1.104   .     S
C1489  H1505   1.111   .     S
C1489  H1334   1.115   1_655 S
C1489  O1374   1.430   1_655 S
C1490  H1508   1.110   .     S
C1490  H1510   1.107   .     S
C1491  H1511   1.113   .     S
C1491  O1535   1.410   .     S
C1491  H1513   1.114   .     S
C1491  H1514   1.109   .     S
C1492  H1516   1.114   .     S
C1492  O1536   1.410   .     S
C1492  H1515   1.108   .     S
C1492  H1517   1.113   .     S
C1493  H1520   1.111   .     S
C1493  H1518   1.110   .     S
C1493  O1537   1.412   .     S
C1493  H1519   1.114   .     S
C1494  H1522   1.109   .     S
C1494  O1538   1.412   .     S
C1494  H1524   1.111   .     S
C1494  H1521   1.115   .     S
C1495  C1497   1.389   .     A
C1495  O1536   1.383   .     S
C1496  H1501   1.076   .     S
C1497  H1512   1.072   .     S
C1497  C712    1.395   1_556 S
C1498  H1528   1.084   .     S
C1498  C984    1.379   1_565 S
C1499  H1529   1.084   .     S
C1500  O1537   1.387   .     S
H1509  C1318   1.115   1_655 S
N1531  Zn1547  2.026   .     S
N1532  Zn1548  2.026   .     S
O1533  Zn1547  1.995   .     S
O1534  C1318   1.421   1_655 S
O1539  Zn1548  1.995   .     S
O1540  Zn1548  1.990   .     S
O1541  Zn1547  1.990   .     S
O1542  Zn1547  1.963   .     S
O1543  Zn1548  1.963   .     S
O1544  Zn1548  2.030   .     S
O1545  Zn1547  2.030   .     S
