data_str_m3_o1_o10_pcu_sym.176
_audit_creation_date              2020-01-03
_audit_creation_method            'Materials Studio'
_symmetry_space_group_name_H-M    'P1'
_symmetry_Int_Tables_number       1
_symmetry_cell_setting            triclinic
loop_
_symmetry_equiv_pos_as_xyz
  x,y,z
_cell_length_a                    26.1884
_cell_length_b                    31.9756
_cell_length_c                    29.4978
_cell_angle_alpha                 90.4186
_cell_angle_beta                  98.7708
_cell_angle_gamma                 88.9094
loop_
_atom_site_label
_atom_site_type_symbol
_atom_site_fract_x
_atom_site_fract_y
_atom_site_fract_z
_atom_site_U_iso_or_equiv
_atom_site_adp_type
_atom_site_occupancy
C1     C     0.16888   0.08672   0.16677   0.00000  Uiso   1.00
C2     C     0.16430   0.24662   0.16655   0.00000  Uiso   1.00
C3     C     0.06729   0.16631   0.15484   0.00000  Uiso   1.00
C4     C     0.26605   0.16671   0.17851   0.00000  Uiso   1.00
C5     C     0.01305   0.16280   0.14868   0.00000  Uiso   1.00
C6     C     0.32034   0.16965   0.18480   0.00000  Uiso   1.00
C7     C     0.20671   0.01920   0.14770   0.00000  Uiso   1.00
C8     C     0.12638   0.31418   0.18546   0.00000  Uiso   1.00
C9     C     0.20363   0.30961   0.14795   0.00000  Uiso   1.00
C10    C     0.12966   0.02377   0.18544   0.00000  Uiso   1.00
C11    C     0.16418   0.29078   0.16678   0.00000  Uiso   1.00
C12    C     0.16905   0.04258   0.16657   0.00000  Uiso   1.00
C13    C     0.19549   0.19465   0.02810   0.00000  Uiso   1.00
C14    C     0.13788   0.13866   0.30524   0.00000  Uiso   1.00
C15    C     0.19550   0.19463   0.31345   0.00000  Uiso   1.00
C16    C     0.13786   0.13869   0.01989   0.00000  Uiso   1.00
H17    H     0.23233   0.29054   0.13409   0.00000  Uiso   1.00
H18    H     0.10089   0.04289   0.19912   0.00000  Uiso   1.00
H19    H     0.21861   0.21697   0.04959   0.00000  Uiso   1.00
H20    H     0.11478   0.11632   0.28376   0.00000  Uiso   1.00
H21    H     0.21858   0.21694   0.29854   0.00000  Uiso   1.00
H22    H     0.11481   0.11635   0.03481   0.00000  Uiso   1.00
N23    N     0.16665   0.16666   0.28573   0.00000  Uiso   1.00
N24    N     0.16668   0.16668   0.04760   0.00000  Uiso   1.00
O25    O     0.16666   0.10558   0.20487   0.00000  Uiso   1.00
O26    O     0.16667   0.22775   0.12846   0.00000  Uiso   1.00
O27    O     0.16666   0.10559   0.12843   0.00000  Uiso   1.00
O28    O     0.16667   0.22774   0.20490   0.00000  Uiso   1.00
O29    O     0.09058   0.16666   0.19595   0.00000  Uiso   1.00
O30    O     0.24275   0.16667   0.13739   0.00000  Uiso   1.00
O31    O     0.09058   0.16667   0.11950   0.00000  Uiso   1.00
O32    O     0.24275   0.16666   0.21383   0.00000  Uiso   1.00
Zn33   Zn    0.16667   0.16666   0.21771   0.00000  Uiso   1.00
Zn34   Zn    0.16667   0.16667   0.11563   0.00000  Uiso   1.00
C35    C     0.32349   0.14918   0.10282   0.00000  Uiso   1.00
N36    N     0.30588   0.13853   0.06627   0.00000  Uiso   1.00
C37    C     0.00991   0.18307   0.23075   0.00000  Uiso   1.00
N38    N     0.02752   0.19358   0.26735   0.00000  Uiso   1.00
S39    S     0.25880   0.04218   0.12566   0.00000  Uiso   1.00
O40    O     0.28497   0.07254   0.16031   0.00000  Uiso   1.00
O41    O     0.29767   0.00949   0.11574   0.00000  Uiso   1.00
O42    O     0.23625   0.06781   0.07694   0.00000  Uiso   1.00
H43    H     0.21633   0.04683   0.05704   0.00000  Uiso   1.00
S44    S     0.07293   0.29137   0.20549   0.00000  Uiso   1.00
O45    O     0.09140   0.26584   0.24754   0.00000  Uiso   1.00
O46    O     0.03577   0.32472   0.21728   0.00000  Uiso   1.00
O47    O     0.04261   0.26039   0.16400   0.00000  Uiso   1.00
H48    H     0.00596   0.26069   0.16873   0.00000  Uiso   1.00
C49    C     0.50221   0.08672   0.16677   0.00000  Uiso   1.00
C50    C     0.49764   0.24662   0.16655   0.00000  Uiso   1.00
C51    C     0.40063   0.16631   0.15484   0.00000  Uiso   1.00
C52    C     0.59938   0.16671   0.17851   0.00000  Uiso   1.00
C53    C     0.34638   0.16280   0.14868   0.00000  Uiso   1.00
C54    C     0.65367   0.16965   0.18480   0.00000  Uiso   1.00
C55    C     0.54004   0.01920   0.14770   0.00000  Uiso   1.00
C56    C     0.45971   0.31418   0.18546   0.00000  Uiso   1.00
C57    C     0.53696   0.30961   0.14795   0.00000  Uiso   1.00
C58    C     0.46299   0.02377   0.18544   0.00000  Uiso   1.00
C59    C     0.49752   0.29078   0.16678   0.00000  Uiso   1.00
C60    C     0.50239   0.04258   0.16657   0.00000  Uiso   1.00
C61    C     0.52883   0.19465   0.02810   0.00000  Uiso   1.00
C62    C     0.47121   0.13866   0.30524   0.00000  Uiso   1.00
C63    C     0.52883   0.19463   0.31345   0.00000  Uiso   1.00
C64    C     0.47120   0.13869   0.01989   0.00000  Uiso   1.00
H65    H     0.56566   0.29054   0.13409   0.00000  Uiso   1.00
H66    H     0.43422   0.04289   0.19912   0.00000  Uiso   1.00
H67    H     0.55195   0.21697   0.04959   0.00000  Uiso   1.00
H68    H     0.44811   0.11632   0.28376   0.00000  Uiso   1.00
H69    H     0.55192   0.21694   0.29854   0.00000  Uiso   1.00
H70    H     0.44814   0.11635   0.03481   0.00000  Uiso   1.00
N71    N     0.49999   0.16666   0.28573   0.00000  Uiso   1.00
N72    N     0.50001   0.16668   0.04760   0.00000  Uiso   1.00
O73    O     0.50000   0.10558   0.20487   0.00000  Uiso   1.00
O74    O     0.50000   0.22775   0.12846   0.00000  Uiso   1.00
O75    O     0.50000   0.10559   0.12843   0.00000  Uiso   1.00
O76    O     0.50000   0.22774   0.20490   0.00000  Uiso   1.00
O77    O     0.42392   0.16666   0.19595   0.00000  Uiso   1.00
O78    O     0.57608   0.16667   0.13739   0.00000  Uiso   1.00
O79    O     0.42392   0.16667   0.11950   0.00000  Uiso   1.00
O80    O     0.57608   0.16666   0.21383   0.00000  Uiso   1.00
Zn81   Zn    0.50000   0.16666   0.21771   0.00000  Uiso   1.00
Zn82   Zn    0.50000   0.16667   0.11563   0.00000  Uiso   1.00
C83    C     0.65682   0.14918   0.10282   0.00000  Uiso   1.00
N84    N     0.63921   0.13853   0.06627   0.00000  Uiso   1.00
C85    C     0.34324   0.18307   0.23075   0.00000  Uiso   1.00
N86    N     0.36085   0.19358   0.26735   0.00000  Uiso   1.00
S87    S     0.59213   0.04218   0.12566   0.00000  Uiso   1.00
O88    O     0.61830   0.07254   0.16031   0.00000  Uiso   1.00
O89    O     0.63101   0.00949   0.11574   0.00000  Uiso   1.00
O90    O     0.56958   0.06781   0.07694   0.00000  Uiso   1.00
H91    H     0.54967   0.04683   0.05704   0.00000  Uiso   1.00
S92    S     0.40626   0.29137   0.20549   0.00000  Uiso   1.00
O93    O     0.42473   0.26584   0.24754   0.00000  Uiso   1.00
O94    O     0.36910   0.32472   0.21728   0.00000  Uiso   1.00
O95    O     0.37594   0.26039   0.16400   0.00000  Uiso   1.00
H96    H     0.33929   0.26069   0.16873   0.00000  Uiso   1.00
C97    C     0.83555   0.08672   0.16677   0.00000  Uiso   1.00
C98    C     0.83097   0.24662   0.16655   0.00000  Uiso   1.00
C99    C     0.73396   0.16631   0.15484   0.00000  Uiso   1.00
C100   C     0.93272   0.16671   0.17851   0.00000  Uiso   1.00
C101   C     0.67971   0.16280   0.14868   0.00000  Uiso   1.00
C102   C     0.98701   0.16965   0.18480   0.00000  Uiso   1.00
C103   C     0.87337   0.01920   0.14770   0.00000  Uiso   1.00
C104   C     0.79304   0.31418   0.18546   0.00000  Uiso   1.00
C105   C     0.87030   0.30961   0.14795   0.00000  Uiso   1.00
C106   C     0.79632   0.02377   0.18544   0.00000  Uiso   1.00
C107   C     0.83085   0.29078   0.16678   0.00000  Uiso   1.00
C108   C     0.83572   0.04258   0.16657   0.00000  Uiso   1.00
C109   C     0.86216   0.19465   0.02810   0.00000  Uiso   1.00
C110   C     0.80454   0.13866   0.30524   0.00000  Uiso   1.00
C111   C     0.86216   0.19463   0.31345   0.00000  Uiso   1.00
C112   C     0.80453   0.13869   0.01989   0.00000  Uiso   1.00
H113   H     0.89900   0.29054   0.13409   0.00000  Uiso   1.00
H114   H     0.76755   0.04289   0.19912   0.00000  Uiso   1.00
H115   H     0.88528   0.21697   0.04959   0.00000  Uiso   1.00
H116   H     0.78145   0.11632   0.28376   0.00000  Uiso   1.00
H117   H     0.88525   0.21694   0.29854   0.00000  Uiso   1.00
H118   H     0.78147   0.11635   0.03481   0.00000  Uiso   1.00
N119   N     0.83332   0.16666   0.28573   0.00000  Uiso   1.00
N120   N     0.83335   0.16668   0.04760   0.00000  Uiso   1.00
O121   O     0.83333   0.10558   0.20487   0.00000  Uiso   1.00
O122   O     0.83334   0.22775   0.12846   0.00000  Uiso   1.00
O123   O     0.83333   0.10559   0.12843   0.00000  Uiso   1.00
O124   O     0.83334   0.22774   0.20490   0.00000  Uiso   1.00
O125   O     0.75725   0.16666   0.19595   0.00000  Uiso   1.00
O126   O     0.90942   0.16667   0.13739   0.00000  Uiso   1.00
O127   O     0.75725   0.16667   0.11950   0.00000  Uiso   1.00
O128   O     0.90942   0.16666   0.21383   0.00000  Uiso   1.00
Zn129  Zn    0.83333   0.16666   0.21771   0.00000  Uiso   1.00
Zn130  Zn    0.83333   0.16667   0.11563   0.00000  Uiso   1.00
C131   C     0.99016   0.14918   0.10282   0.00000  Uiso   1.00
N132   N     0.97254   0.13853   0.06627   0.00000  Uiso   1.00
C133   C     0.67657   0.18307   0.23075   0.00000  Uiso   1.00
N134   N     0.69419   0.19358   0.26735   0.00000  Uiso   1.00
S135   S     0.92547   0.04218   0.12566   0.00000  Uiso   1.00
O136   O     0.95164   0.07254   0.16031   0.00000  Uiso   1.00
O137   O     0.96434   0.00949   0.11574   0.00000  Uiso   1.00
O138   O     0.90291   0.06781   0.07694   0.00000  Uiso   1.00
H139   H     0.88300   0.04683   0.05704   0.00000  Uiso   1.00
S140   S     0.73959   0.29137   0.20549   0.00000  Uiso   1.00
O141   O     0.75806   0.26584   0.24754   0.00000  Uiso   1.00
O142   O     0.70243   0.32472   0.21728   0.00000  Uiso   1.00
O143   O     0.70928   0.26039   0.16400   0.00000  Uiso   1.00
H144   H     0.67263   0.26069   0.16873   0.00000  Uiso   1.00
C145   C     0.16888   0.42005   0.16677   0.00000  Uiso   1.00
C146   C     0.16430   0.57995   0.16655   0.00000  Uiso   1.00
C147   C     0.06729   0.49964   0.15484   0.00000  Uiso   1.00
C148   C     0.26605   0.50005   0.17851   0.00000  Uiso   1.00
C149   C     0.01305   0.49613   0.14868   0.00000  Uiso   1.00
C150   C     0.32034   0.50298   0.18480   0.00000  Uiso   1.00
C151   C     0.20671   0.35253   0.14770   0.00000  Uiso   1.00
C152   C     0.12638   0.64752   0.18546   0.00000  Uiso   1.00
C153   C     0.20363   0.64294   0.14795   0.00000  Uiso   1.00
C154   C     0.12966   0.35710   0.18544   0.00000  Uiso   1.00
C155   C     0.16418   0.62411   0.16678   0.00000  Uiso   1.00
C156   C     0.16905   0.37591   0.16657   0.00000  Uiso   1.00
C157   C     0.19549   0.52799   0.02810   0.00000  Uiso   1.00
C158   C     0.13788   0.47199   0.30524   0.00000  Uiso   1.00
C159   C     0.19550   0.52796   0.31345   0.00000  Uiso   1.00
C160   C     0.13786   0.47202   0.01989   0.00000  Uiso   1.00
H161   H     0.23233   0.62387   0.13409   0.00000  Uiso   1.00
H162   H     0.10089   0.37622   0.19912   0.00000  Uiso   1.00
H163   H     0.21861   0.55030   0.04959   0.00000  Uiso   1.00
H164   H     0.11478   0.44966   0.28376   0.00000  Uiso   1.00
H165   H     0.21858   0.55028   0.29854   0.00000  Uiso   1.00
H166   H     0.11481   0.44968   0.03481   0.00000  Uiso   1.00
N167   N     0.16665   0.49999   0.28573   0.00000  Uiso   1.00
N168   N     0.16668   0.50001   0.04760   0.00000  Uiso   1.00
O169   O     0.16666   0.43892   0.20487   0.00000  Uiso   1.00
O170   O     0.16667   0.56108   0.12846   0.00000  Uiso   1.00
O171   O     0.16666   0.43893   0.12843   0.00000  Uiso   1.00
O172   O     0.16667   0.56107   0.20490   0.00000  Uiso   1.00
O173   O     0.09058   0.50000   0.19595   0.00000  Uiso   1.00
O174   O     0.24275   0.50000   0.13739   0.00000  Uiso   1.00
O175   O     0.09058   0.50000   0.11950   0.00000  Uiso   1.00
O176   O     0.24275   0.50000   0.21383   0.00000  Uiso   1.00
Zn177  Zn    0.16667   0.49999   0.21771   0.00000  Uiso   1.00
Zn178  Zn    0.16667   0.50001   0.11563   0.00000  Uiso   1.00
C179   C     0.32349   0.48252   0.10282   0.00000  Uiso   1.00
N180   N     0.30588   0.47187   0.06627   0.00000  Uiso   1.00
C181   C     0.00991   0.51640   0.23075   0.00000  Uiso   1.00
N182   N     0.02752   0.52692   0.26735   0.00000  Uiso   1.00
S183   S     0.25880   0.37551   0.12566   0.00000  Uiso   1.00
O184   O     0.28497   0.40587   0.16031   0.00000  Uiso   1.00
O185   O     0.29767   0.34282   0.11574   0.00000  Uiso   1.00
O186   O     0.23625   0.40115   0.07694   0.00000  Uiso   1.00
H187   H     0.21633   0.38016   0.05704   0.00000  Uiso   1.00
S188   S     0.07293   0.62471   0.20549   0.00000  Uiso   1.00
O189   O     0.09140   0.59918   0.24754   0.00000  Uiso   1.00
O190   O     0.03577   0.65805   0.21728   0.00000  Uiso   1.00
O191   O     0.04261   0.59373   0.16400   0.00000  Uiso   1.00
H192   H     0.00596   0.59402   0.16873   0.00000  Uiso   1.00
C193   C     0.50221   0.42005   0.16677   0.00000  Uiso   1.00
C194   C     0.49764   0.57995   0.16655   0.00000  Uiso   1.00
C195   C     0.40063   0.49964   0.15484   0.00000  Uiso   1.00
C196   C     0.59938   0.50005   0.17851   0.00000  Uiso   1.00
C197   C     0.34638   0.49613   0.14868   0.00000  Uiso   1.00
C198   C     0.65367   0.50298   0.18480   0.00000  Uiso   1.00
C199   C     0.54004   0.35253   0.14770   0.00000  Uiso   1.00
C200   C     0.45971   0.64752   0.18546   0.00000  Uiso   1.00
C201   C     0.53696   0.64294   0.14795   0.00000  Uiso   1.00
C202   C     0.46299   0.35710   0.18544   0.00000  Uiso   1.00
C203   C     0.49752   0.62411   0.16678   0.00000  Uiso   1.00
C204   C     0.50239   0.37591   0.16657   0.00000  Uiso   1.00
C205   C     0.52883   0.52799   0.02810   0.00000  Uiso   1.00
C206   C     0.47121   0.47199   0.30524   0.00000  Uiso   1.00
C207   C     0.52883   0.52796   0.31345   0.00000  Uiso   1.00
C208   C     0.47120   0.47202   0.01989   0.00000  Uiso   1.00
H209   H     0.56566   0.62387   0.13409   0.00000  Uiso   1.00
H210   H     0.43422   0.37622   0.19912   0.00000  Uiso   1.00
H211   H     0.55195   0.55030   0.04959   0.00000  Uiso   1.00
H212   H     0.44811   0.44966   0.28376   0.00000  Uiso   1.00
H213   H     0.55192   0.55028   0.29854   0.00000  Uiso   1.00
H214   H     0.44814   0.44968   0.03481   0.00000  Uiso   1.00
N215   N     0.49999   0.49999   0.28573   0.00000  Uiso   1.00
N216   N     0.50001   0.50001   0.04760   0.00000  Uiso   1.00
O217   O     0.50000   0.43892   0.20487   0.00000  Uiso   1.00
O218   O     0.50000   0.56108   0.12846   0.00000  Uiso   1.00
O219   O     0.50000   0.43893   0.12843   0.00000  Uiso   1.00
O220   O     0.50000   0.56107   0.20490   0.00000  Uiso   1.00
O221   O     0.42392   0.50000   0.19595   0.00000  Uiso   1.00
O222   O     0.57608   0.50000   0.13739   0.00000  Uiso   1.00
O223   O     0.42392   0.50000   0.11950   0.00000  Uiso   1.00
O224   O     0.57608   0.50000   0.21383   0.00000  Uiso   1.00
Zn225  Zn    0.50000   0.49999   0.21771   0.00000  Uiso   1.00
Zn226  Zn    0.50000   0.50001   0.11563   0.00000  Uiso   1.00
C227   C     0.65682   0.48252   0.10282   0.00000  Uiso   1.00
N228   N     0.63921   0.47187   0.06627   0.00000  Uiso   1.00
C229   C     0.34324   0.51640   0.23075   0.00000  Uiso   1.00
N230   N     0.36085   0.52692   0.26735   0.00000  Uiso   1.00
S231   S     0.59213   0.37551   0.12566   0.00000  Uiso   1.00
O232   O     0.61830   0.40587   0.16031   0.00000  Uiso   1.00
O233   O     0.63101   0.34282   0.11574   0.00000  Uiso   1.00
O234   O     0.56958   0.40115   0.07694   0.00000  Uiso   1.00
H235   H     0.54967   0.38016   0.05704   0.00000  Uiso   1.00
S236   S     0.40626   0.62471   0.20549   0.00000  Uiso   1.00
O237   O     0.42473   0.59918   0.24754   0.00000  Uiso   1.00
O238   O     0.36910   0.65805   0.21728   0.00000  Uiso   1.00
O239   O     0.37594   0.59373   0.16400   0.00000  Uiso   1.00
H240   H     0.33929   0.59402   0.16873   0.00000  Uiso   1.00
C241   C     0.83555   0.42005   0.16677   0.00000  Uiso   1.00
C242   C     0.83097   0.57995   0.16655   0.00000  Uiso   1.00
C243   C     0.73396   0.49964   0.15484   0.00000  Uiso   1.00
C244   C     0.93272   0.50005   0.17851   0.00000  Uiso   1.00
C245   C     0.67971   0.49613   0.14868   0.00000  Uiso   1.00
C246   C     0.98701   0.50298   0.18480   0.00000  Uiso   1.00
C247   C     0.87337   0.35253   0.14770   0.00000  Uiso   1.00
C248   C     0.79304   0.64752   0.18546   0.00000  Uiso   1.00
C249   C     0.87030   0.64294   0.14795   0.00000  Uiso   1.00
C250   C     0.79632   0.35710   0.18544   0.00000  Uiso   1.00
C251   C     0.83085   0.62411   0.16678   0.00000  Uiso   1.00
C252   C     0.83572   0.37591   0.16657   0.00000  Uiso   1.00
C253   C     0.86216   0.52799   0.02810   0.00000  Uiso   1.00
C254   C     0.80454   0.47199   0.30524   0.00000  Uiso   1.00
C255   C     0.86216   0.52796   0.31345   0.00000  Uiso   1.00
C256   C     0.80453   0.47202   0.01989   0.00000  Uiso   1.00
H257   H     0.89900   0.62387   0.13409   0.00000  Uiso   1.00
H258   H     0.76755   0.37622   0.19912   0.00000  Uiso   1.00
H259   H     0.88528   0.55030   0.04959   0.00000  Uiso   1.00
H260   H     0.78145   0.44966   0.28376   0.00000  Uiso   1.00
H261   H     0.88525   0.55028   0.29854   0.00000  Uiso   1.00
H262   H     0.78147   0.44968   0.03481   0.00000  Uiso   1.00
N263   N     0.83332   0.49999   0.28573   0.00000  Uiso   1.00
N264   N     0.83335   0.50001   0.04760   0.00000  Uiso   1.00
O265   O     0.83333   0.43892   0.20487   0.00000  Uiso   1.00
O266   O     0.83334   0.56108   0.12846   0.00000  Uiso   1.00
O267   O     0.83333   0.43893   0.12843   0.00000  Uiso   1.00
O268   O     0.83334   0.56107   0.20490   0.00000  Uiso   1.00
O269   O     0.75725   0.50000   0.19595   0.00000  Uiso   1.00
O270   O     0.90942   0.50000   0.13739   0.00000  Uiso   1.00
O271   O     0.75725   0.50000   0.11950   0.00000  Uiso   1.00
O272   O     0.90942   0.50000   0.21383   0.00000  Uiso   1.00
Zn273  Zn    0.83333   0.49999   0.21771   0.00000  Uiso   1.00
Zn274  Zn    0.83333   0.50001   0.11563   0.00000  Uiso   1.00
C275   C     0.99016   0.48252   0.10282   0.00000  Uiso   1.00
N276   N     0.97254   0.47187   0.06627   0.00000  Uiso   1.00
C277   C     0.67657   0.51640   0.23075   0.00000  Uiso   1.00
N278   N     0.69419   0.52692   0.26735   0.00000  Uiso   1.00
S279   S     0.92547   0.37551   0.12566   0.00000  Uiso   1.00
O280   O     0.95164   0.40587   0.16031   0.00000  Uiso   1.00
O281   O     0.96434   0.34282   0.11574   0.00000  Uiso   1.00
O282   O     0.90291   0.40115   0.07694   0.00000  Uiso   1.00
H283   H     0.88300   0.38016   0.05704   0.00000  Uiso   1.00
S284   S     0.73959   0.62471   0.20549   0.00000  Uiso   1.00
O285   O     0.75806   0.59918   0.24754   0.00000  Uiso   1.00
O286   O     0.70243   0.65805   0.21728   0.00000  Uiso   1.00
O287   O     0.70928   0.59373   0.16400   0.00000  Uiso   1.00
H288   H     0.67263   0.59402   0.16873   0.00000  Uiso   1.00
C289   C     0.16888   0.75339   0.16677   0.00000  Uiso   1.00
C290   C     0.16430   0.91328   0.16655   0.00000  Uiso   1.00
C291   C     0.06729   0.83298   0.15484   0.00000  Uiso   1.00
C292   C     0.26605   0.83338   0.17851   0.00000  Uiso   1.00
C293   C     0.01305   0.82947   0.14868   0.00000  Uiso   1.00
C294   C     0.32034   0.83632   0.18480   0.00000  Uiso   1.00
C295   C     0.20671   0.68586   0.14770   0.00000  Uiso   1.00
C296   C     0.12638   0.98085   0.18546   0.00000  Uiso   1.00
C297   C     0.20363   0.97627   0.14795   0.00000  Uiso   1.00
C298   C     0.12966   0.69043   0.18544   0.00000  Uiso   1.00
C299   C     0.16418   0.95745   0.16678   0.00000  Uiso   1.00
C300   C     0.16905   0.70924   0.16657   0.00000  Uiso   1.00
C301   C     0.19549   0.86132   0.02810   0.00000  Uiso   1.00
C302   C     0.13788   0.80532   0.30524   0.00000  Uiso   1.00
C303   C     0.19550   0.86130   0.31345   0.00000  Uiso   1.00
C304   C     0.13786   0.80535   0.01989   0.00000  Uiso   1.00
H305   H     0.23233   0.95720   0.13409   0.00000  Uiso   1.00
H306   H     0.10089   0.70956   0.19912   0.00000  Uiso   1.00
H307   H     0.21861   0.88364   0.04959   0.00000  Uiso   1.00
H308   H     0.11478   0.78299   0.28376   0.00000  Uiso   1.00
H309   H     0.21858   0.88361   0.29854   0.00000  Uiso   1.00
H310   H     0.11481   0.78302   0.03481   0.00000  Uiso   1.00
N311   N     0.16665   0.83332   0.28573   0.00000  Uiso   1.00
N312   N     0.16668   0.83334   0.04760   0.00000  Uiso   1.00
O313   O     0.16666   0.77225   0.20487   0.00000  Uiso   1.00
O314   O     0.16667   0.89442   0.12846   0.00000  Uiso   1.00
O315   O     0.16666   0.77226   0.12843   0.00000  Uiso   1.00
O316   O     0.16667   0.89441   0.20490   0.00000  Uiso   1.00
O317   O     0.09058   0.83333   0.19595   0.00000  Uiso   1.00
O318   O     0.24275   0.83334   0.13739   0.00000  Uiso   1.00
O319   O     0.09058   0.83334   0.11950   0.00000  Uiso   1.00
O320   O     0.24275   0.83333   0.21383   0.00000  Uiso   1.00
Zn321  Zn    0.16667   0.83333   0.21771   0.00000  Uiso   1.00
Zn322  Zn    0.16667   0.83334   0.11563   0.00000  Uiso   1.00
C323   C     0.32349   0.81585   0.10282   0.00000  Uiso   1.00
N324   N     0.30588   0.80520   0.06627   0.00000  Uiso   1.00
C325   C     0.00991   0.84974   0.23075   0.00000  Uiso   1.00
N326   N     0.02752   0.86025   0.26735   0.00000  Uiso   1.00
S327   S     0.25880   0.70885   0.12566   0.00000  Uiso   1.00
O328   O     0.28497   0.73920   0.16031   0.00000  Uiso   1.00
O329   O     0.29767   0.67615   0.11574   0.00000  Uiso   1.00
O330   O     0.23625   0.73448   0.07694   0.00000  Uiso   1.00
H331   H     0.21633   0.71349   0.05704   0.00000  Uiso   1.00
S332   S     0.07293   0.95804   0.20549   0.00000  Uiso   1.00
O333   O     0.09140   0.93251   0.24754   0.00000  Uiso   1.00
O334   O     0.03577   0.99139   0.21728   0.00000  Uiso   1.00
O335   O     0.04261   0.92706   0.16400   0.00000  Uiso   1.00
H336   H     0.00596   0.92735   0.16873   0.00000  Uiso   1.00
C337   C     0.50221   0.75339   0.16677   0.00000  Uiso   1.00
C338   C     0.49764   0.91328   0.16655   0.00000  Uiso   1.00
C339   C     0.40063   0.83298   0.15484   0.00000  Uiso   1.00
C340   C     0.59938   0.83338   0.17851   0.00000  Uiso   1.00
C341   C     0.34638   0.82947   0.14868   0.00000  Uiso   1.00
C342   C     0.65367   0.83632   0.18480   0.00000  Uiso   1.00
C343   C     0.54004   0.68586   0.14770   0.00000  Uiso   1.00
C344   C     0.45971   0.98085   0.18546   0.00000  Uiso   1.00
C345   C     0.53696   0.97627   0.14795   0.00000  Uiso   1.00
C346   C     0.46299   0.69043   0.18544   0.00000  Uiso   1.00
C347   C     0.49752   0.95745   0.16678   0.00000  Uiso   1.00
C348   C     0.50239   0.70924   0.16657   0.00000  Uiso   1.00
C349   C     0.52883   0.86132   0.02810   0.00000  Uiso   1.00
C350   C     0.47121   0.80532   0.30524   0.00000  Uiso   1.00
C351   C     0.52883   0.86130   0.31345   0.00000  Uiso   1.00
C352   C     0.47120   0.80535   0.01989   0.00000  Uiso   1.00
H353   H     0.56566   0.95720   0.13409   0.00000  Uiso   1.00
H354   H     0.43422   0.70956   0.19912   0.00000  Uiso   1.00
H355   H     0.55195   0.88364   0.04959   0.00000  Uiso   1.00
H356   H     0.44811   0.78299   0.28376   0.00000  Uiso   1.00
H357   H     0.55192   0.88361   0.29854   0.00000  Uiso   1.00
H358   H     0.44814   0.78302   0.03481   0.00000  Uiso   1.00
N359   N     0.49999   0.83332   0.28573   0.00000  Uiso   1.00
N360   N     0.50001   0.83334   0.04760   0.00000  Uiso   1.00
O361   O     0.50000   0.77225   0.20487   0.00000  Uiso   1.00
O362   O     0.50000   0.89442   0.12846   0.00000  Uiso   1.00
O363   O     0.50000   0.77226   0.12843   0.00000  Uiso   1.00
O364   O     0.50000   0.89441   0.20490   0.00000  Uiso   1.00
O365   O     0.42392   0.83333   0.19595   0.00000  Uiso   1.00
O366   O     0.57608   0.83334   0.13739   0.00000  Uiso   1.00
O367   O     0.42392   0.83334   0.11950   0.00000  Uiso   1.00
O368   O     0.57608   0.83333   0.21383   0.00000  Uiso   1.00
Zn369  Zn    0.50000   0.83333   0.21771   0.00000  Uiso   1.00
Zn370  Zn    0.50000   0.83334   0.11563   0.00000  Uiso   1.00
C371   C     0.65682   0.81585   0.10282   0.00000  Uiso   1.00
N372   N     0.63921   0.80520   0.06627   0.00000  Uiso   1.00
C373   C     0.34324   0.84974   0.23075   0.00000  Uiso   1.00
N374   N     0.36085   0.86025   0.26735   0.00000  Uiso   1.00
S375   S     0.59213   0.70885   0.12566   0.00000  Uiso   1.00
O376   O     0.61830   0.73920   0.16031   0.00000  Uiso   1.00
O377   O     0.63101   0.67615   0.11574   0.00000  Uiso   1.00
O378   O     0.56958   0.73448   0.07694   0.00000  Uiso   1.00
H379   H     0.54967   0.71349   0.05704   0.00000  Uiso   1.00
S380   S     0.40626   0.95804   0.20549   0.00000  Uiso   1.00
O381   O     0.42473   0.93251   0.24754   0.00000  Uiso   1.00
O382   O     0.36910   0.99139   0.21728   0.00000  Uiso   1.00
O383   O     0.37594   0.92706   0.16400   0.00000  Uiso   1.00
H384   H     0.33929   0.92735   0.16873   0.00000  Uiso   1.00
C385   C     0.83555   0.75339   0.16677   0.00000  Uiso   1.00
C386   C     0.83097   0.91328   0.16655   0.00000  Uiso   1.00
C387   C     0.73396   0.83298   0.15484   0.00000  Uiso   1.00
C388   C     0.93272   0.83338   0.17851   0.00000  Uiso   1.00
C389   C     0.67971   0.82947   0.14868   0.00000  Uiso   1.00
C390   C     0.98701   0.83632   0.18480   0.00000  Uiso   1.00
C391   C     0.87337   0.68586   0.14770   0.00000  Uiso   1.00
C392   C     0.79304   0.98085   0.18546   0.00000  Uiso   1.00
C393   C     0.87030   0.97627   0.14795   0.00000  Uiso   1.00
C394   C     0.79632   0.69043   0.18544   0.00000  Uiso   1.00
C395   C     0.83085   0.95745   0.16678   0.00000  Uiso   1.00
C396   C     0.83572   0.70924   0.16657   0.00000  Uiso   1.00
C397   C     0.86216   0.86132   0.02810   0.00000  Uiso   1.00
C398   C     0.80454   0.80532   0.30524   0.00000  Uiso   1.00
C399   C     0.86216   0.86130   0.31345   0.00000  Uiso   1.00
C400   C     0.80453   0.80535   0.01989   0.00000  Uiso   1.00
H401   H     0.89900   0.95720   0.13409   0.00000  Uiso   1.00
H402   H     0.76755   0.70956   0.19912   0.00000  Uiso   1.00
H403   H     0.88528   0.88364   0.04959   0.00000  Uiso   1.00
H404   H     0.78145   0.78299   0.28376   0.00000  Uiso   1.00
H405   H     0.88525   0.88361   0.29854   0.00000  Uiso   1.00
H406   H     0.78147   0.78302   0.03481   0.00000  Uiso   1.00
N407   N     0.83332   0.83332   0.28573   0.00000  Uiso   1.00
N408   N     0.83335   0.83334   0.04760   0.00000  Uiso   1.00
O409   O     0.83333   0.77225   0.20487   0.00000  Uiso   1.00
O410   O     0.83334   0.89442   0.12846   0.00000  Uiso   1.00
O411   O     0.83333   0.77226   0.12843   0.00000  Uiso   1.00
O412   O     0.83334   0.89441   0.20490   0.00000  Uiso   1.00
O413   O     0.75725   0.83333   0.19595   0.00000  Uiso   1.00
O414   O     0.90942   0.83334   0.13739   0.00000  Uiso   1.00
O415   O     0.75725   0.83334   0.11950   0.00000  Uiso   1.00
O416   O     0.90942   0.83333   0.21383   0.00000  Uiso   1.00
Zn417  Zn    0.83333   0.83333   0.21771   0.00000  Uiso   1.00
Zn418  Zn    0.83333   0.83334   0.11563   0.00000  Uiso   1.00
C419   C     0.99016   0.81585   0.10282   0.00000  Uiso   1.00
N420   N     0.97254   0.80520   0.06627   0.00000  Uiso   1.00
C421   C     0.67657   0.84974   0.23075   0.00000  Uiso   1.00
N422   N     0.69419   0.86025   0.26735   0.00000  Uiso   1.00
S423   S     0.92547   0.70885   0.12566   0.00000  Uiso   1.00
O424   O     0.95164   0.73920   0.16031   0.00000  Uiso   1.00
O425   O     0.96434   0.67615   0.11574   0.00000  Uiso   1.00
O426   O     0.90291   0.73448   0.07694   0.00000  Uiso   1.00
H427   H     0.88300   0.71349   0.05704   0.00000  Uiso   1.00
S428   S     0.73959   0.95804   0.20549   0.00000  Uiso   1.00
O429   O     0.75806   0.93251   0.24754   0.00000  Uiso   1.00
O430   O     0.70243   0.99139   0.21728   0.00000  Uiso   1.00
O431   O     0.70928   0.92706   0.16400   0.00000  Uiso   1.00
H432   H     0.67263   0.92735   0.16873   0.00000  Uiso   1.00
C433   C     0.16888   0.08672   0.50010   0.00000  Uiso   1.00
C434   C     0.16430   0.24662   0.49988   0.00000  Uiso   1.00
C435   C     0.06729   0.16631   0.48818   0.00000  Uiso   1.00
C436   C     0.26605   0.16671   0.51184   0.00000  Uiso   1.00
C437   C     0.01305   0.16280   0.48201   0.00000  Uiso   1.00
C438   C     0.32034   0.16965   0.51813   0.00000  Uiso   1.00
C439   C     0.20671   0.01920   0.48104   0.00000  Uiso   1.00
C440   C     0.12638   0.31418   0.51879   0.00000  Uiso   1.00
C441   C     0.20363   0.30961   0.48128   0.00000  Uiso   1.00
C442   C     0.12966   0.02377   0.51878   0.00000  Uiso   1.00
C443   C     0.16418   0.29078   0.50011   0.00000  Uiso   1.00
C444   C     0.16905   0.04258   0.49990   0.00000  Uiso   1.00
C445   C     0.19549   0.19465   0.36143   0.00000  Uiso   1.00
C446   C     0.13788   0.13866   0.63858   0.00000  Uiso   1.00
C447   C     0.19550   0.19463   0.64678   0.00000  Uiso   1.00
C448   C     0.13786   0.13869   0.35322   0.00000  Uiso   1.00
H449   H     0.23233   0.29054   0.46742   0.00000  Uiso   1.00
H450   H     0.10089   0.04289   0.53246   0.00000  Uiso   1.00
H451   H     0.21861   0.21697   0.38292   0.00000  Uiso   1.00
H452   H     0.11478   0.11632   0.61709   0.00000  Uiso   1.00
H453   H     0.21858   0.21694   0.63187   0.00000  Uiso   1.00
H454   H     0.11481   0.11635   0.36814   0.00000  Uiso   1.00
N455   N     0.16665   0.16666   0.61907   0.00000  Uiso   1.00
N456   N     0.16668   0.16668   0.38093   0.00000  Uiso   1.00
O457   O     0.16666   0.10558   0.53821   0.00000  Uiso   1.00
O458   O     0.16667   0.22775   0.46179   0.00000  Uiso   1.00
O459   O     0.16666   0.10559   0.46176   0.00000  Uiso   1.00
O460   O     0.16667   0.22774   0.53824   0.00000  Uiso   1.00
O461   O     0.09058   0.16666   0.52928   0.00000  Uiso   1.00
O462   O     0.24275   0.16667   0.47072   0.00000  Uiso   1.00
O463   O     0.09058   0.16667   0.45284   0.00000  Uiso   1.00
O464   O     0.24275   0.16666   0.54716   0.00000  Uiso   1.00
Zn465  Zn    0.16667   0.16666   0.55104   0.00000  Uiso   1.00
Zn466  Zn    0.16667   0.16667   0.44896   0.00000  Uiso   1.00
C467   C     0.32349   0.14918   0.43615   0.00000  Uiso   1.00
N468   N     0.30588   0.13853   0.39961   0.00000  Uiso   1.00
C469   C     0.00991   0.18307   0.56409   0.00000  Uiso   1.00
N470   N     0.02752   0.19358   0.60068   0.00000  Uiso   1.00
S471   S     0.25880   0.04218   0.45899   0.00000  Uiso   1.00
O472   O     0.28497   0.07254   0.49364   0.00000  Uiso   1.00
O473   O     0.29767   0.00949   0.44907   0.00000  Uiso   1.00
O474   O     0.23625   0.06781   0.41028   0.00000  Uiso   1.00
H475   H     0.21633   0.04683   0.39037   0.00000  Uiso   1.00
S476   S     0.07293   0.29137   0.53882   0.00000  Uiso   1.00
O477   O     0.09140   0.26584   0.58088   0.00000  Uiso   1.00
O478   O     0.03577   0.32472   0.55061   0.00000  Uiso   1.00
O479   O     0.04261   0.26039   0.49734   0.00000  Uiso   1.00
H480   H     0.00596   0.26069   0.50207   0.00000  Uiso   1.00
C481   C     0.50221   0.08672   0.50010   0.00000  Uiso   1.00
C482   C     0.49764   0.24662   0.49988   0.00000  Uiso   1.00
C483   C     0.40063   0.16631   0.48818   0.00000  Uiso   1.00
C484   C     0.59938   0.16671   0.51184   0.00000  Uiso   1.00
C485   C     0.34638   0.16280   0.48201   0.00000  Uiso   1.00
C486   C     0.65367   0.16965   0.51813   0.00000  Uiso   1.00
C487   C     0.54004   0.01920   0.48104   0.00000  Uiso   1.00
C488   C     0.45971   0.31418   0.51879   0.00000  Uiso   1.00
C489   C     0.53696   0.30961   0.48128   0.00000  Uiso   1.00
C490   C     0.46299   0.02377   0.51878   0.00000  Uiso   1.00
C491   C     0.49752   0.29078   0.50011   0.00000  Uiso   1.00
C492   C     0.50239   0.04258   0.49990   0.00000  Uiso   1.00
C493   C     0.52883   0.19465   0.36143   0.00000  Uiso   1.00
C494   C     0.47121   0.13866   0.63858   0.00000  Uiso   1.00
C495   C     0.52883   0.19463   0.64678   0.00000  Uiso   1.00
C496   C     0.47120   0.13869   0.35322   0.00000  Uiso   1.00
H497   H     0.56566   0.29054   0.46742   0.00000  Uiso   1.00
H498   H     0.43422   0.04289   0.53246   0.00000  Uiso   1.00
H499   H     0.55195   0.21697   0.38292   0.00000  Uiso   1.00
H500   H     0.44811   0.11632   0.61709   0.00000  Uiso   1.00
H501   H     0.55192   0.21694   0.63187   0.00000  Uiso   1.00
H502   H     0.44814   0.11635   0.36814   0.00000  Uiso   1.00
N503   N     0.49999   0.16666   0.61907   0.00000  Uiso   1.00
N504   N     0.50001   0.16668   0.38093   0.00000  Uiso   1.00
O505   O     0.50000   0.10558   0.53821   0.00000  Uiso   1.00
O506   O     0.50000   0.22775   0.46179   0.00000  Uiso   1.00
O507   O     0.50000   0.10559   0.46176   0.00000  Uiso   1.00
O508   O     0.50000   0.22774   0.53824   0.00000  Uiso   1.00
O509   O     0.42392   0.16666   0.52928   0.00000  Uiso   1.00
O510   O     0.57608   0.16667   0.47072   0.00000  Uiso   1.00
O511   O     0.42392   0.16667   0.45284   0.00000  Uiso   1.00
O512   O     0.57608   0.16666   0.54716   0.00000  Uiso   1.00
Zn513  Zn    0.50000   0.16666   0.55104   0.00000  Uiso   1.00
Zn514  Zn    0.50000   0.16667   0.44896   0.00000  Uiso   1.00
C515   C     0.65682   0.14918   0.43615   0.00000  Uiso   1.00
N516   N     0.63921   0.13853   0.39961   0.00000  Uiso   1.00
C517   C     0.34324   0.18307   0.56409   0.00000  Uiso   1.00
N518   N     0.36085   0.19358   0.60068   0.00000  Uiso   1.00
S519   S     0.59213   0.04218   0.45899   0.00000  Uiso   1.00
O520   O     0.61830   0.07254   0.49364   0.00000  Uiso   1.00
O521   O     0.63101   0.00949   0.44907   0.00000  Uiso   1.00
O522   O     0.56958   0.06781   0.41028   0.00000  Uiso   1.00
H523   H     0.54967   0.04683   0.39037   0.00000  Uiso   1.00
S524   S     0.40626   0.29137   0.53882   0.00000  Uiso   1.00
O525   O     0.42473   0.26584   0.58088   0.00000  Uiso   1.00
O526   O     0.36910   0.32472   0.55061   0.00000  Uiso   1.00
O527   O     0.37594   0.26039   0.49734   0.00000  Uiso   1.00
H528   H     0.33929   0.26069   0.50207   0.00000  Uiso   1.00
C529   C     0.83555   0.08672   0.50010   0.00000  Uiso   1.00
C530   C     0.83097   0.24662   0.49988   0.00000  Uiso   1.00
C531   C     0.73396   0.16631   0.48818   0.00000  Uiso   1.00
C532   C     0.93272   0.16671   0.51184   0.00000  Uiso   1.00
C533   C     0.67971   0.16280   0.48201   0.00000  Uiso   1.00
C534   C     0.98701   0.16965   0.51813   0.00000  Uiso   1.00
C535   C     0.87337   0.01920   0.48104   0.00000  Uiso   1.00
C536   C     0.79304   0.31418   0.51879   0.00000  Uiso   1.00
C537   C     0.87030   0.30961   0.48128   0.00000  Uiso   1.00
C538   C     0.79632   0.02377   0.51878   0.00000  Uiso   1.00
C539   C     0.83085   0.29078   0.50011   0.00000  Uiso   1.00
C540   C     0.83572   0.04258   0.49990   0.00000  Uiso   1.00
C541   C     0.86216   0.19465   0.36143   0.00000  Uiso   1.00
C542   C     0.80454   0.13866   0.63858   0.00000  Uiso   1.00
C543   C     0.86216   0.19463   0.64678   0.00000  Uiso   1.00
C544   C     0.80453   0.13869   0.35322   0.00000  Uiso   1.00
H545   H     0.89900   0.29054   0.46742   0.00000  Uiso   1.00
H546   H     0.76755   0.04289   0.53246   0.00000  Uiso   1.00
H547   H     0.88528   0.21697   0.38292   0.00000  Uiso   1.00
H548   H     0.78145   0.11632   0.61709   0.00000  Uiso   1.00
H549   H     0.88525   0.21694   0.63187   0.00000  Uiso   1.00
H550   H     0.78147   0.11635   0.36814   0.00000  Uiso   1.00
N551   N     0.83332   0.16666   0.61907   0.00000  Uiso   1.00
N552   N     0.83335   0.16668   0.38093   0.00000  Uiso   1.00
O553   O     0.83333   0.10558   0.53821   0.00000  Uiso   1.00
O554   O     0.83334   0.22775   0.46179   0.00000  Uiso   1.00
O555   O     0.83333   0.10559   0.46176   0.00000  Uiso   1.00
O556   O     0.83334   0.22774   0.53824   0.00000  Uiso   1.00
O557   O     0.75725   0.16666   0.52928   0.00000  Uiso   1.00
O558   O     0.90942   0.16667   0.47072   0.00000  Uiso   1.00
O559   O     0.75725   0.16667   0.45284   0.00000  Uiso   1.00
O560   O     0.90942   0.16666   0.54716   0.00000  Uiso   1.00
Zn561  Zn    0.83333   0.16666   0.55104   0.00000  Uiso   1.00
Zn562  Zn    0.83333   0.16667   0.44896   0.00000  Uiso   1.00
C563   C     0.99016   0.14918   0.43615   0.00000  Uiso   1.00
N564   N     0.97254   0.13853   0.39961   0.00000  Uiso   1.00
C565   C     0.67657   0.18307   0.56409   0.00000  Uiso   1.00
N566   N     0.69419   0.19358   0.60068   0.00000  Uiso   1.00
S567   S     0.92547   0.04218   0.45899   0.00000  Uiso   1.00
O568   O     0.95164   0.07254   0.49364   0.00000  Uiso   1.00
O569   O     0.96434   0.00949   0.44907   0.00000  Uiso   1.00
O570   O     0.90291   0.06781   0.41028   0.00000  Uiso   1.00
H571   H     0.88300   0.04683   0.39037   0.00000  Uiso   1.00
S572   S     0.73959   0.29137   0.53882   0.00000  Uiso   1.00
O573   O     0.75806   0.26584   0.58088   0.00000  Uiso   1.00
O574   O     0.70243   0.32472   0.55061   0.00000  Uiso   1.00
O575   O     0.70928   0.26039   0.49734   0.00000  Uiso   1.00
H576   H     0.67263   0.26069   0.50207   0.00000  Uiso   1.00
C577   C     0.16888   0.42005   0.50010   0.00000  Uiso   1.00
C578   C     0.16430   0.57995   0.49988   0.00000  Uiso   1.00
C579   C     0.06729   0.49964   0.48818   0.00000  Uiso   1.00
C580   C     0.26605   0.50005   0.51184   0.00000  Uiso   1.00
C581   C     0.01305   0.49613   0.48201   0.00000  Uiso   1.00
C582   C     0.32034   0.50298   0.51813   0.00000  Uiso   1.00
C583   C     0.20671   0.35253   0.48104   0.00000  Uiso   1.00
C584   C     0.12638   0.64752   0.51879   0.00000  Uiso   1.00
C585   C     0.20363   0.64294   0.48128   0.00000  Uiso   1.00
C586   C     0.12966   0.35710   0.51878   0.00000  Uiso   1.00
C587   C     0.16418   0.62411   0.50011   0.00000  Uiso   1.00
C588   C     0.16905   0.37591   0.49990   0.00000  Uiso   1.00
C589   C     0.19549   0.52799   0.36143   0.00000  Uiso   1.00
C590   C     0.13788   0.47199   0.63858   0.00000  Uiso   1.00
C591   C     0.19550   0.52796   0.64678   0.00000  Uiso   1.00
C592   C     0.13786   0.47202   0.35322   0.00000  Uiso   1.00
H593   H     0.23233   0.62387   0.46742   0.00000  Uiso   1.00
H594   H     0.10089   0.37622   0.53246   0.00000  Uiso   1.00
H595   H     0.21861   0.55030   0.38292   0.00000  Uiso   1.00
H596   H     0.11478   0.44966   0.61709   0.00000  Uiso   1.00
H597   H     0.21858   0.55028   0.63187   0.00000  Uiso   1.00
H598   H     0.11481   0.44968   0.36814   0.00000  Uiso   1.00
N599   N     0.16665   0.49999   0.61907   0.00000  Uiso   1.00
N600   N     0.16668   0.50001   0.38093   0.00000  Uiso   1.00
O601   O     0.16666   0.43892   0.53821   0.00000  Uiso   1.00
O602   O     0.16667   0.56108   0.46179   0.00000  Uiso   1.00
O603   O     0.16666   0.43893   0.46176   0.00000  Uiso   1.00
O604   O     0.16667   0.56107   0.53824   0.00000  Uiso   1.00
O605   O     0.09058   0.50000   0.52928   0.00000  Uiso   1.00
O606   O     0.24275   0.50000   0.47072   0.00000  Uiso   1.00
O607   O     0.09058   0.50000   0.45284   0.00000  Uiso   1.00
O608   O     0.24275   0.50000   0.54716   0.00000  Uiso   1.00
Zn609  Zn    0.16667   0.49999   0.55104   0.00000  Uiso   1.00
Zn610  Zn    0.16667   0.50001   0.44896   0.00000  Uiso   1.00
C611   C     0.32349   0.48252   0.43615   0.00000  Uiso   1.00
N612   N     0.30588   0.47187   0.39961   0.00000  Uiso   1.00
C613   C     0.00991   0.51640   0.56409   0.00000  Uiso   1.00
N614   N     0.02752   0.52692   0.60068   0.00000  Uiso   1.00
S615   S     0.25880   0.37551   0.45899   0.00000  Uiso   1.00
O616   O     0.28497   0.40587   0.49364   0.00000  Uiso   1.00
O617   O     0.29767   0.34282   0.44907   0.00000  Uiso   1.00
O618   O     0.23625   0.40115   0.41028   0.00000  Uiso   1.00
H619   H     0.21633   0.38016   0.39037   0.00000  Uiso   1.00
S620   S     0.07293   0.62471   0.53882   0.00000  Uiso   1.00
O621   O     0.09140   0.59918   0.58088   0.00000  Uiso   1.00
O622   O     0.03577   0.65805   0.55061   0.00000  Uiso   1.00
O623   O     0.04261   0.59373   0.49734   0.00000  Uiso   1.00
H624   H     0.00596   0.59402   0.50207   0.00000  Uiso   1.00
C625   C     0.50221   0.42005   0.50010   0.00000  Uiso   1.00
C626   C     0.49764   0.57995   0.49988   0.00000  Uiso   1.00
C627   C     0.40063   0.49964   0.48818   0.00000  Uiso   1.00
C628   C     0.59938   0.50005   0.51184   0.00000  Uiso   1.00
C629   C     0.34638   0.49613   0.48201   0.00000  Uiso   1.00
C630   C     0.65367   0.50298   0.51813   0.00000  Uiso   1.00
C631   C     0.54004   0.35253   0.48104   0.00000  Uiso   1.00
C632   C     0.45971   0.64752   0.51879   0.00000  Uiso   1.00
C633   C     0.53696   0.64294   0.48128   0.00000  Uiso   1.00
C634   C     0.46299   0.35710   0.51878   0.00000  Uiso   1.00
C635   C     0.49752   0.62411   0.50011   0.00000  Uiso   1.00
C636   C     0.50239   0.37591   0.49990   0.00000  Uiso   1.00
C637   C     0.52883   0.52799   0.36143   0.00000  Uiso   1.00
C638   C     0.47121   0.47199   0.63858   0.00000  Uiso   1.00
C639   C     0.52883   0.52796   0.64678   0.00000  Uiso   1.00
C640   C     0.47120   0.47202   0.35322   0.00000  Uiso   1.00
H641   H     0.56566   0.62387   0.46742   0.00000  Uiso   1.00
H642   H     0.43422   0.37622   0.53246   0.00000  Uiso   1.00
H643   H     0.55195   0.55030   0.38292   0.00000  Uiso   1.00
H644   H     0.44811   0.44966   0.61709   0.00000  Uiso   1.00
H645   H     0.55192   0.55028   0.63187   0.00000  Uiso   1.00
H646   H     0.44814   0.44968   0.36814   0.00000  Uiso   1.00
N647   N     0.49999   0.49999   0.61907   0.00000  Uiso   1.00
N648   N     0.50001   0.50001   0.38093   0.00000  Uiso   1.00
O649   O     0.50000   0.43892   0.53821   0.00000  Uiso   1.00
O650   O     0.50000   0.56108   0.46179   0.00000  Uiso   1.00
O651   O     0.50000   0.43893   0.46176   0.00000  Uiso   1.00
O652   O     0.50000   0.56107   0.53824   0.00000  Uiso   1.00
O653   O     0.42392   0.50000   0.52928   0.00000  Uiso   1.00
O654   O     0.57608   0.50000   0.47072   0.00000  Uiso   1.00
O655   O     0.42392   0.50000   0.45284   0.00000  Uiso   1.00
O656   O     0.57608   0.50000   0.54716   0.00000  Uiso   1.00
Zn657  Zn    0.50000   0.49999   0.55104   0.00000  Uiso   1.00
Zn658  Zn    0.50000   0.50001   0.44896   0.00000  Uiso   1.00
C659   C     0.65682   0.48252   0.43615   0.00000  Uiso   1.00
N660   N     0.63921   0.47187   0.39961   0.00000  Uiso   1.00
C661   C     0.34324   0.51640   0.56409   0.00000  Uiso   1.00
N662   N     0.36085   0.52692   0.60068   0.00000  Uiso   1.00
S663   S     0.59213   0.37551   0.45899   0.00000  Uiso   1.00
O664   O     0.61830   0.40587   0.49364   0.00000  Uiso   1.00
O665   O     0.63101   0.34282   0.44907   0.00000  Uiso   1.00
O666   O     0.56958   0.40115   0.41028   0.00000  Uiso   1.00
H667   H     0.54967   0.38016   0.39037   0.00000  Uiso   1.00
S668   S     0.40626   0.62471   0.53882   0.00000  Uiso   1.00
O669   O     0.42473   0.59918   0.58088   0.00000  Uiso   1.00
O670   O     0.36910   0.65805   0.55061   0.00000  Uiso   1.00
O671   O     0.37594   0.59373   0.49734   0.00000  Uiso   1.00
H672   H     0.33929   0.59402   0.50207   0.00000  Uiso   1.00
C673   C     0.83555   0.42005   0.50010   0.00000  Uiso   1.00
C674   C     0.83097   0.57995   0.49988   0.00000  Uiso   1.00
C675   C     0.73396   0.49964   0.48818   0.00000  Uiso   1.00
C676   C     0.93272   0.50005   0.51184   0.00000  Uiso   1.00
C677   C     0.67971   0.49613   0.48201   0.00000  Uiso   1.00
C678   C     0.98701   0.50298   0.51813   0.00000  Uiso   1.00
C679   C     0.87337   0.35253   0.48104   0.00000  Uiso   1.00
C680   C     0.79304   0.64752   0.51879   0.00000  Uiso   1.00
C681   C     0.87030   0.64294   0.48128   0.00000  Uiso   1.00
C682   C     0.79632   0.35710   0.51878   0.00000  Uiso   1.00
C683   C     0.83085   0.62411   0.50011   0.00000  Uiso   1.00
C684   C     0.83572   0.37591   0.49990   0.00000  Uiso   1.00
C685   C     0.86216   0.52799   0.36143   0.00000  Uiso   1.00
C686   C     0.80454   0.47199   0.63858   0.00000  Uiso   1.00
C687   C     0.86216   0.52796   0.64678   0.00000  Uiso   1.00
C688   C     0.80453   0.47202   0.35322   0.00000  Uiso   1.00
H689   H     0.89900   0.62387   0.46742   0.00000  Uiso   1.00
H690   H     0.76755   0.37622   0.53246   0.00000  Uiso   1.00
H691   H     0.88528   0.55030   0.38292   0.00000  Uiso   1.00
H692   H     0.78145   0.44966   0.61709   0.00000  Uiso   1.00
H693   H     0.88525   0.55028   0.63187   0.00000  Uiso   1.00
H694   H     0.78147   0.44968   0.36814   0.00000  Uiso   1.00
N695   N     0.83332   0.49999   0.61907   0.00000  Uiso   1.00
N696   N     0.83335   0.50001   0.38093   0.00000  Uiso   1.00
O697   O     0.83333   0.43892   0.53821   0.00000  Uiso   1.00
O698   O     0.83334   0.56108   0.46179   0.00000  Uiso   1.00
O699   O     0.83333   0.43893   0.46176   0.00000  Uiso   1.00
O700   O     0.83334   0.56107   0.53824   0.00000  Uiso   1.00
O701   O     0.75725   0.50000   0.52928   0.00000  Uiso   1.00
O702   O     0.90942   0.50000   0.47072   0.00000  Uiso   1.00
O703   O     0.75725   0.50000   0.45284   0.00000  Uiso   1.00
O704   O     0.90942   0.50000   0.54716   0.00000  Uiso   1.00
Zn705  Zn    0.83333   0.49999   0.55104   0.00000  Uiso   1.00
Zn706  Zn    0.83333   0.50001   0.44896   0.00000  Uiso   1.00
C707   C     0.99016   0.48252   0.43615   0.00000  Uiso   1.00
N708   N     0.97254   0.47187   0.39961   0.00000  Uiso   1.00
C709   C     0.67657   0.51640   0.56409   0.00000  Uiso   1.00
N710   N     0.69419   0.52692   0.60068   0.00000  Uiso   1.00
S711   S     0.92547   0.37551   0.45899   0.00000  Uiso   1.00
O712   O     0.95164   0.40587   0.49364   0.00000  Uiso   1.00
O713   O     0.96434   0.34282   0.44907   0.00000  Uiso   1.00
O714   O     0.90291   0.40115   0.41028   0.00000  Uiso   1.00
H715   H     0.88300   0.38016   0.39037   0.00000  Uiso   1.00
S716   S     0.73959   0.62471   0.53882   0.00000  Uiso   1.00
O717   O     0.75806   0.59918   0.58088   0.00000  Uiso   1.00
O718   O     0.70243   0.65805   0.55061   0.00000  Uiso   1.00
O719   O     0.70928   0.59373   0.49734   0.00000  Uiso   1.00
H720   H     0.67263   0.59402   0.50207   0.00000  Uiso   1.00
C721   C     0.16888   0.75339   0.50010   0.00000  Uiso   1.00
C722   C     0.16430   0.91328   0.49988   0.00000  Uiso   1.00
C723   C     0.06729   0.83298   0.48818   0.00000  Uiso   1.00
C724   C     0.26605   0.83338   0.51184   0.00000  Uiso   1.00
C725   C     0.01305   0.82947   0.48201   0.00000  Uiso   1.00
C726   C     0.32034   0.83632   0.51813   0.00000  Uiso   1.00
C727   C     0.20671   0.68586   0.48104   0.00000  Uiso   1.00
C728   C     0.12638   0.98085   0.51879   0.00000  Uiso   1.00
C729   C     0.20363   0.97627   0.48128   0.00000  Uiso   1.00
C730   C     0.12966   0.69043   0.51878   0.00000  Uiso   1.00
C731   C     0.16418   0.95745   0.50011   0.00000  Uiso   1.00
C732   C     0.16905   0.70924   0.49990   0.00000  Uiso   1.00
C733   C     0.19549   0.86132   0.36143   0.00000  Uiso   1.00
C734   C     0.13788   0.80532   0.63858   0.00000  Uiso   1.00
C735   C     0.19550   0.86130   0.64678   0.00000  Uiso   1.00
C736   C     0.13786   0.80535   0.35322   0.00000  Uiso   1.00
H737   H     0.23233   0.95720   0.46742   0.00000  Uiso   1.00
H738   H     0.10089   0.70956   0.53246   0.00000  Uiso   1.00
H739   H     0.21861   0.88364   0.38292   0.00000  Uiso   1.00
H740   H     0.11478   0.78299   0.61709   0.00000  Uiso   1.00
H741   H     0.21858   0.88361   0.63187   0.00000  Uiso   1.00
H742   H     0.11481   0.78302   0.36814   0.00000  Uiso   1.00
N743   N     0.16665   0.83332   0.61907   0.00000  Uiso   1.00
N744   N     0.16668   0.83334   0.38093   0.00000  Uiso   1.00
O745   O     0.16666   0.77225   0.53821   0.00000  Uiso   1.00
O746   O     0.16667   0.89442   0.46179   0.00000  Uiso   1.00
O747   O     0.16666   0.77226   0.46176   0.00000  Uiso   1.00
O748   O     0.16667   0.89441   0.53824   0.00000  Uiso   1.00
O749   O     0.09058   0.83333   0.52928   0.00000  Uiso   1.00
O750   O     0.24275   0.83334   0.47072   0.00000  Uiso   1.00
O751   O     0.09058   0.83334   0.45284   0.00000  Uiso   1.00
O752   O     0.24275   0.83333   0.54716   0.00000  Uiso   1.00
Zn753  Zn    0.16667   0.83333   0.55104   0.00000  Uiso   1.00
Zn754  Zn    0.16667   0.83334   0.44896   0.00000  Uiso   1.00
C755   C     0.32349   0.81585   0.43615   0.00000  Uiso   1.00
N756   N     0.30588   0.80520   0.39961   0.00000  Uiso   1.00
C757   C     0.00991   0.84974   0.56409   0.00000  Uiso   1.00
N758   N     0.02752   0.86025   0.60068   0.00000  Uiso   1.00
S759   S     0.25880   0.70885   0.45899   0.00000  Uiso   1.00
O760   O     0.28497   0.73920   0.49364   0.00000  Uiso   1.00
O761   O     0.29767   0.67615   0.44907   0.00000  Uiso   1.00
O762   O     0.23625   0.73448   0.41028   0.00000  Uiso   1.00
H763   H     0.21633   0.71349   0.39037   0.00000  Uiso   1.00
S764   S     0.07293   0.95804   0.53882   0.00000  Uiso   1.00
O765   O     0.09140   0.93251   0.58088   0.00000  Uiso   1.00
O766   O     0.03577   0.99139   0.55061   0.00000  Uiso   1.00
O767   O     0.04261   0.92706   0.49734   0.00000  Uiso   1.00
H768   H     0.00596   0.92735   0.50207   0.00000  Uiso   1.00
C769   C     0.50221   0.75339   0.50010   0.00000  Uiso   1.00
C770   C     0.49764   0.91328   0.49988   0.00000  Uiso   1.00
C771   C     0.40063   0.83298   0.48818   0.00000  Uiso   1.00
C772   C     0.59938   0.83338   0.51184   0.00000  Uiso   1.00
C773   C     0.34638   0.82947   0.48201   0.00000  Uiso   1.00
C774   C     0.65367   0.83632   0.51813   0.00000  Uiso   1.00
C775   C     0.54004   0.68586   0.48104   0.00000  Uiso   1.00
C776   C     0.45971   0.98085   0.51879   0.00000  Uiso   1.00
C777   C     0.53696   0.97627   0.48128   0.00000  Uiso   1.00
C778   C     0.46299   0.69043   0.51878   0.00000  Uiso   1.00
C779   C     0.49752   0.95745   0.50011   0.00000  Uiso   1.00
C780   C     0.50239   0.70924   0.49990   0.00000  Uiso   1.00
C781   C     0.52883   0.86132   0.36143   0.00000  Uiso   1.00
C782   C     0.47121   0.80532   0.63858   0.00000  Uiso   1.00
C783   C     0.52883   0.86130   0.64678   0.00000  Uiso   1.00
C784   C     0.47120   0.80535   0.35322   0.00000  Uiso   1.00
H785   H     0.56566   0.95720   0.46742   0.00000  Uiso   1.00
H786   H     0.43422   0.70956   0.53246   0.00000  Uiso   1.00
H787   H     0.55195   0.88364   0.38292   0.00000  Uiso   1.00
H788   H     0.44811   0.78299   0.61709   0.00000  Uiso   1.00
H789   H     0.55192   0.88361   0.63187   0.00000  Uiso   1.00
H790   H     0.44814   0.78302   0.36814   0.00000  Uiso   1.00
N791   N     0.49999   0.83332   0.61907   0.00000  Uiso   1.00
N792   N     0.50001   0.83334   0.38093   0.00000  Uiso   1.00
O793   O     0.50000   0.77225   0.53821   0.00000  Uiso   1.00
O794   O     0.50000   0.89442   0.46179   0.00000  Uiso   1.00
O795   O     0.50000   0.77226   0.46176   0.00000  Uiso   1.00
O796   O     0.50000   0.89441   0.53824   0.00000  Uiso   1.00
O797   O     0.42392   0.83333   0.52928   0.00000  Uiso   1.00
O798   O     0.57608   0.83334   0.47072   0.00000  Uiso   1.00
O799   O     0.42392   0.83334   0.45284   0.00000  Uiso   1.00
O800   O     0.57608   0.83333   0.54716   0.00000  Uiso   1.00
Zn801  Zn    0.50000   0.83333   0.55104   0.00000  Uiso   1.00
Zn802  Zn    0.50000   0.83334   0.44896   0.00000  Uiso   1.00
C803   C     0.65682   0.81585   0.43615   0.00000  Uiso   1.00
N804   N     0.63921   0.80520   0.39961   0.00000  Uiso   1.00
C805   C     0.34324   0.84974   0.56409   0.00000  Uiso   1.00
N806   N     0.36085   0.86025   0.60068   0.00000  Uiso   1.00
S807   S     0.59213   0.70885   0.45899   0.00000  Uiso   1.00
O808   O     0.61830   0.73920   0.49364   0.00000  Uiso   1.00
O809   O     0.63101   0.67615   0.44907   0.00000  Uiso   1.00
O810   O     0.56958   0.73448   0.41028   0.00000  Uiso   1.00
H811   H     0.54967   0.71349   0.39037   0.00000  Uiso   1.00
S812   S     0.40626   0.95804   0.53882   0.00000  Uiso   1.00
O813   O     0.42473   0.93251   0.58088   0.00000  Uiso   1.00
O814   O     0.36910   0.99139   0.55061   0.00000  Uiso   1.00
O815   O     0.37594   0.92706   0.49734   0.00000  Uiso   1.00
H816   H     0.33929   0.92735   0.50207   0.00000  Uiso   1.00
C817   C     0.83555   0.75339   0.50010   0.00000  Uiso   1.00
C818   C     0.83097   0.91328   0.49988   0.00000  Uiso   1.00
C819   C     0.73396   0.83298   0.48818   0.00000  Uiso   1.00
C820   C     0.93272   0.83338   0.51184   0.00000  Uiso   1.00
C821   C     0.67971   0.82947   0.48201   0.00000  Uiso   1.00
C822   C     0.98701   0.83632   0.51813   0.00000  Uiso   1.00
C823   C     0.87337   0.68586   0.48104   0.00000  Uiso   1.00
C824   C     0.79304   0.98085   0.51879   0.00000  Uiso   1.00
C825   C     0.87030   0.97627   0.48128   0.00000  Uiso   1.00
C826   C     0.79632   0.69043   0.51878   0.00000  Uiso   1.00
C827   C     0.83085   0.95745   0.50011   0.00000  Uiso   1.00
C828   C     0.83572   0.70924   0.49990   0.00000  Uiso   1.00
C829   C     0.86216   0.86132   0.36143   0.00000  Uiso   1.00
C830   C     0.80454   0.80532   0.63858   0.00000  Uiso   1.00
C831   C     0.86216   0.86130   0.64678   0.00000  Uiso   1.00
C832   C     0.80453   0.80535   0.35322   0.00000  Uiso   1.00
H833   H     0.89900   0.95720   0.46742   0.00000  Uiso   1.00
H834   H     0.76755   0.70956   0.53246   0.00000  Uiso   1.00
H835   H     0.88528   0.88364   0.38292   0.00000  Uiso   1.00
H836   H     0.78145   0.78299   0.61709   0.00000  Uiso   1.00
H837   H     0.88525   0.88361   0.63187   0.00000  Uiso   1.00
H838   H     0.78147   0.78302   0.36814   0.00000  Uiso   1.00
N839   N     0.83332   0.83332   0.61907   0.00000  Uiso   1.00
N840   N     0.83335   0.83334   0.38093   0.00000  Uiso   1.00
O841   O     0.83333   0.77225   0.53821   0.00000  Uiso   1.00
O842   O     0.83334   0.89442   0.46179   0.00000  Uiso   1.00
O843   O     0.83333   0.77226   0.46176   0.00000  Uiso   1.00
O844   O     0.83334   0.89441   0.53824   0.00000  Uiso   1.00
O845   O     0.75725   0.83333   0.52928   0.00000  Uiso   1.00
O846   O     0.90942   0.83334   0.47072   0.00000  Uiso   1.00
O847   O     0.75725   0.83334   0.45284   0.00000  Uiso   1.00
O848   O     0.90942   0.83333   0.54716   0.00000  Uiso   1.00
Zn849  Zn    0.83333   0.83333   0.55104   0.00000  Uiso   1.00
Zn850  Zn    0.83333   0.83334   0.44896   0.00000  Uiso   1.00
C851   C     0.99016   0.81585   0.43615   0.00000  Uiso   1.00
N852   N     0.97254   0.80520   0.39961   0.00000  Uiso   1.00
C853   C     0.67657   0.84974   0.56409   0.00000  Uiso   1.00
N854   N     0.69419   0.86025   0.60068   0.00000  Uiso   1.00
S855   S     0.92547   0.70885   0.45899   0.00000  Uiso   1.00
O856   O     0.95164   0.73920   0.49364   0.00000  Uiso   1.00
O857   O     0.96434   0.67615   0.44907   0.00000  Uiso   1.00
O858   O     0.90291   0.73448   0.41028   0.00000  Uiso   1.00
H859   H     0.88300   0.71349   0.39037   0.00000  Uiso   1.00
S860   S     0.73959   0.95804   0.53882   0.00000  Uiso   1.00
O861   O     0.75806   0.93251   0.58088   0.00000  Uiso   1.00
O862   O     0.70243   0.99139   0.55061   0.00000  Uiso   1.00
O863   O     0.70928   0.92706   0.49734   0.00000  Uiso   1.00
H864   H     0.67263   0.92735   0.50207   0.00000  Uiso   1.00
C865   C     0.16888   0.08672   0.83343   0.00000  Uiso   1.00
C866   C     0.16430   0.24662   0.83321   0.00000  Uiso   1.00
C867   C     0.06729   0.16631   0.82151   0.00000  Uiso   1.00
C868   C     0.26605   0.16671   0.84518   0.00000  Uiso   1.00
C869   C     0.01305   0.16280   0.81535   0.00000  Uiso   1.00
C870   C     0.32034   0.16965   0.85147   0.00000  Uiso   1.00
C871   C     0.20671   0.01920   0.81437   0.00000  Uiso   1.00
C872   C     0.12638   0.31418   0.85213   0.00000  Uiso   1.00
C873   C     0.20363   0.30961   0.81461   0.00000  Uiso   1.00
C874   C     0.12966   0.02377   0.85211   0.00000  Uiso   1.00
C875   C     0.16418   0.29078   0.83345   0.00000  Uiso   1.00
C876   C     0.16905   0.04258   0.83324   0.00000  Uiso   1.00
C877   C     0.19549   0.19465   0.69476   0.00000  Uiso   1.00
C878   C     0.13788   0.13866   0.97191   0.00000  Uiso   1.00
C879   C     0.19550   0.19463   0.98012   0.00000  Uiso   1.00
C880   C     0.13786   0.13869   0.68656   0.00000  Uiso   1.00
H881   H     0.23233   0.29054   0.80076   0.00000  Uiso   1.00
H882   H     0.10089   0.04289   0.86579   0.00000  Uiso   1.00
H883   H     0.21861   0.21697   0.71625   0.00000  Uiso   1.00
H884   H     0.11478   0.11632   0.95042   0.00000  Uiso   1.00
H885   H     0.21858   0.21694   0.96520   0.00000  Uiso   1.00
H886   H     0.11481   0.11635   0.70147   0.00000  Uiso   1.00
N887   N     0.16665   0.16666   0.95240   0.00000  Uiso   1.00
N888   N     0.16668   0.16668   0.71427   0.00000  Uiso   1.00
O889   O     0.16666   0.10558   0.87154   0.00000  Uiso   1.00
O890   O     0.16667   0.22775   0.79513   0.00000  Uiso   1.00
O891   O     0.16666   0.10559   0.79510   0.00000  Uiso   1.00
O892   O     0.16667   0.22774   0.87157   0.00000  Uiso   1.00
O893   O     0.09058   0.16666   0.86261   0.00000  Uiso   1.00
O894   O     0.24275   0.16667   0.80405   0.00000  Uiso   1.00
O895   O     0.09058   0.16667   0.78617   0.00000  Uiso   1.00
O896   O     0.24275   0.16666   0.88050   0.00000  Uiso   1.00
Zn897  Zn    0.16667   0.16666   0.88437   0.00000  Uiso   1.00
Zn898  Zn    0.16667   0.16667   0.78229   0.00000  Uiso   1.00
C899   C     0.32349   0.14918   0.76949   0.00000  Uiso   1.00
N900   N     0.30588   0.13853   0.73294   0.00000  Uiso   1.00
C901   C     0.00991   0.18307   0.89742   0.00000  Uiso   1.00
N902   N     0.02752   0.19358   0.93402   0.00000  Uiso   1.00
S903   S     0.25880   0.04218   0.79232   0.00000  Uiso   1.00
O904   O     0.28497   0.07254   0.82698   0.00000  Uiso   1.00
O905   O     0.29767   0.00949   0.78241   0.00000  Uiso   1.00
O906   O     0.23625   0.06781   0.74361   0.00000  Uiso   1.00
H907   H     0.21633   0.04683   0.72371   0.00000  Uiso   1.00
S908   S     0.07293   0.29137   0.87215   0.00000  Uiso   1.00
O909   O     0.09140   0.26584   0.91421   0.00000  Uiso   1.00
O910   O     0.03577   0.32472   0.88394   0.00000  Uiso   1.00
O911   O     0.04261   0.26039   0.83067   0.00000  Uiso   1.00
H912   H     0.00596   0.26069   0.83540   0.00000  Uiso   1.00
C913   C     0.50221   0.08672   0.83343   0.00000  Uiso   1.00
C914   C     0.49764   0.24662   0.83321   0.00000  Uiso   1.00
C915   C     0.40063   0.16631   0.82151   0.00000  Uiso   1.00
C916   C     0.59938   0.16671   0.84518   0.00000  Uiso   1.00
C917   C     0.34638   0.16280   0.81535   0.00000  Uiso   1.00
C918   C     0.65367   0.16965   0.85147   0.00000  Uiso   1.00
C919   C     0.54004   0.01920   0.81437   0.00000  Uiso   1.00
C920   C     0.45971   0.31418   0.85213   0.00000  Uiso   1.00
C921   C     0.53696   0.30961   0.81461   0.00000  Uiso   1.00
C922   C     0.46299   0.02377   0.85211   0.00000  Uiso   1.00
C923   C     0.49752   0.29078   0.83345   0.00000  Uiso   1.00
C924   C     0.50239   0.04258   0.83324   0.00000  Uiso   1.00
C925   C     0.52883   0.19465   0.69476   0.00000  Uiso   1.00
C926   C     0.47121   0.13866   0.97191   0.00000  Uiso   1.00
C927   C     0.52883   0.19463   0.98012   0.00000  Uiso   1.00
C928   C     0.47120   0.13869   0.68656   0.00000  Uiso   1.00
H929   H     0.56566   0.29054   0.80076   0.00000  Uiso   1.00
H930   H     0.43422   0.04289   0.86579   0.00000  Uiso   1.00
H931   H     0.55195   0.21697   0.71625   0.00000  Uiso   1.00
H932   H     0.44811   0.11632   0.95042   0.00000  Uiso   1.00
H933   H     0.55192   0.21694   0.96520   0.00000  Uiso   1.00
H934   H     0.44814   0.11635   0.70147   0.00000  Uiso   1.00
N935   N     0.49999   0.16666   0.95240   0.00000  Uiso   1.00
N936   N     0.50001   0.16668   0.71427   0.00000  Uiso   1.00
O937   O     0.50000   0.10558   0.87154   0.00000  Uiso   1.00
O938   O     0.50000   0.22775   0.79513   0.00000  Uiso   1.00
O939   O     0.50000   0.10559   0.79510   0.00000  Uiso   1.00
O940   O     0.50000   0.22774   0.87157   0.00000  Uiso   1.00
O941   O     0.42392   0.16666   0.86261   0.00000  Uiso   1.00
O942   O     0.57608   0.16667   0.80405   0.00000  Uiso   1.00
O943   O     0.42392   0.16667   0.78617   0.00000  Uiso   1.00
O944   O     0.57608   0.16666   0.88050   0.00000  Uiso   1.00
Zn945  Zn    0.50000   0.16666   0.88437   0.00000  Uiso   1.00
Zn946  Zn    0.50000   0.16667   0.78229   0.00000  Uiso   1.00
C947   C     0.65682   0.14918   0.76949   0.00000  Uiso   1.00
N948   N     0.63921   0.13853   0.73294   0.00000  Uiso   1.00
C949   C     0.34324   0.18307   0.89742   0.00000  Uiso   1.00
N950   N     0.36085   0.19358   0.93402   0.00000  Uiso   1.00
S951   S     0.59213   0.04218   0.79232   0.00000  Uiso   1.00
O952   O     0.61830   0.07254   0.82698   0.00000  Uiso   1.00
O953   O     0.63101   0.00949   0.78241   0.00000  Uiso   1.00
O954   O     0.56958   0.06781   0.74361   0.00000  Uiso   1.00
H955   H     0.54967   0.04683   0.72371   0.00000  Uiso   1.00
S956   S     0.40626   0.29137   0.87215   0.00000  Uiso   1.00
O957   O     0.42473   0.26584   0.91421   0.00000  Uiso   1.00
O958   O     0.36910   0.32472   0.88394   0.00000  Uiso   1.00
O959   O     0.37594   0.26039   0.83067   0.00000  Uiso   1.00
H960   H     0.33929   0.26069   0.83540   0.00000  Uiso   1.00
C961   C     0.83555   0.08672   0.83343   0.00000  Uiso   1.00
C962   C     0.83097   0.24662   0.83321   0.00000  Uiso   1.00
C963   C     0.73396   0.16631   0.82151   0.00000  Uiso   1.00
C964   C     0.93272   0.16671   0.84518   0.00000  Uiso   1.00
C965   C     0.67971   0.16280   0.81535   0.00000  Uiso   1.00
C966   C     0.98701   0.16965   0.85147   0.00000  Uiso   1.00
C967   C     0.87337   0.01920   0.81437   0.00000  Uiso   1.00
C968   C     0.79304   0.31418   0.85213   0.00000  Uiso   1.00
C969   C     0.87030   0.30961   0.81461   0.00000  Uiso   1.00
C970   C     0.79632   0.02377   0.85211   0.00000  Uiso   1.00
C971   C     0.83085   0.29078   0.83345   0.00000  Uiso   1.00
C972   C     0.83572   0.04258   0.83324   0.00000  Uiso   1.00
C973   C     0.86216   0.19465   0.69476   0.00000  Uiso   1.00
C974   C     0.80454   0.13866   0.97191   0.00000  Uiso   1.00
C975   C     0.86216   0.19463   0.98012   0.00000  Uiso   1.00
C976   C     0.80453   0.13869   0.68656   0.00000  Uiso   1.00
H977   H     0.89900   0.29054   0.80076   0.00000  Uiso   1.00
H978   H     0.76755   0.04289   0.86579   0.00000  Uiso   1.00
H979   H     0.88528   0.21697   0.71625   0.00000  Uiso   1.00
H980   H     0.78145   0.11632   0.95042   0.00000  Uiso   1.00
H981   H     0.88525   0.21694   0.96520   0.00000  Uiso   1.00
H982   H     0.78147   0.11635   0.70147   0.00000  Uiso   1.00
N983   N     0.83332   0.16666   0.95240   0.00000  Uiso   1.00
N984   N     0.83335   0.16668   0.71427   0.00000  Uiso   1.00
O985   O     0.83333   0.10558   0.87154   0.00000  Uiso   1.00
O986   O     0.83334   0.22775   0.79513   0.00000  Uiso   1.00
O987   O     0.83333   0.10559   0.79510   0.00000  Uiso   1.00
O988   O     0.83334   0.22774   0.87157   0.00000  Uiso   1.00
O989   O     0.75725   0.16666   0.86261   0.00000  Uiso   1.00
O990   O     0.90942   0.16667   0.80405   0.00000  Uiso   1.00
O991   O     0.75725   0.16667   0.78617   0.00000  Uiso   1.00
O992   O     0.90942   0.16666   0.88050   0.00000  Uiso   1.00
Zn993  Zn    0.83333   0.16666   0.88437   0.00000  Uiso   1.00
Zn994  Zn    0.83333   0.16667   0.78229   0.00000  Uiso   1.00
C995   C     0.99016   0.14918   0.76949   0.00000  Uiso   1.00
N996   N     0.97254   0.13853   0.73294   0.00000  Uiso   1.00
C997   C     0.67657   0.18307   0.89742   0.00000  Uiso   1.00
N998   N     0.69419   0.19358   0.93402   0.00000  Uiso   1.00
S999   S     0.92547   0.04218   0.79232   0.00000  Uiso   1.00
O1000  O     0.95164   0.07254   0.82698   0.00000  Uiso   1.00
O1001  O     0.96434   0.00949   0.78241   0.00000  Uiso   1.00
O1002  O     0.90291   0.06781   0.74361   0.00000  Uiso   1.00
H1003  H     0.88300   0.04683   0.72371   0.00000  Uiso   1.00
S1004  S     0.73959   0.29137   0.87215   0.00000  Uiso   1.00
O1005  O     0.75806   0.26584   0.91421   0.00000  Uiso   1.00
O1006  O     0.70243   0.32472   0.88394   0.00000  Uiso   1.00
O1007  O     0.70928   0.26039   0.83067   0.00000  Uiso   1.00
H1008  H     0.67263   0.26069   0.83540   0.00000  Uiso   1.00
C1009  C     0.16888   0.42005   0.83343   0.00000  Uiso   1.00
C1010  C     0.16430   0.57995   0.83321   0.00000  Uiso   1.00
C1011  C     0.06729   0.49964   0.82151   0.00000  Uiso   1.00
C1012  C     0.26605   0.50005   0.84518   0.00000  Uiso   1.00
C1013  C     0.01305   0.49613   0.81535   0.00000  Uiso   1.00
C1014  C     0.32034   0.50298   0.85147   0.00000  Uiso   1.00
C1015  C     0.20671   0.35253   0.81437   0.00000  Uiso   1.00
C1016  C     0.12638   0.64752   0.85213   0.00000  Uiso   1.00
C1017  C     0.20363   0.64294   0.81461   0.00000  Uiso   1.00
C1018  C     0.12966   0.35710   0.85211   0.00000  Uiso   1.00
C1019  C     0.16418   0.62411   0.83345   0.00000  Uiso   1.00
C1020  C     0.16905   0.37591   0.83324   0.00000  Uiso   1.00
C1021  C     0.19549   0.52799   0.69476   0.00000  Uiso   1.00
C1022  C     0.13788   0.47199   0.97191   0.00000  Uiso   1.00
C1023  C     0.19550   0.52796   0.98012   0.00000  Uiso   1.00
C1024  C     0.13786   0.47202   0.68656   0.00000  Uiso   1.00
H1025  H     0.23233   0.62387   0.80076   0.00000  Uiso   1.00
H1026  H     0.10089   0.37622   0.86579   0.00000  Uiso   1.00
H1027  H     0.21861   0.55030   0.71625   0.00000  Uiso   1.00
H1028  H     0.11478   0.44966   0.95042   0.00000  Uiso   1.00
H1029  H     0.21858   0.55028   0.96520   0.00000  Uiso   1.00
H1030  H     0.11481   0.44968   0.70147   0.00000  Uiso   1.00
N1031  N     0.16665   0.49999   0.95240   0.00000  Uiso   1.00
N1032  N     0.16668   0.50001   0.71427   0.00000  Uiso   1.00
O1033  O     0.16666   0.43892   0.87154   0.00000  Uiso   1.00
O1034  O     0.16667   0.56108   0.79513   0.00000  Uiso   1.00
O1035  O     0.16666   0.43893   0.79510   0.00000  Uiso   1.00
O1036  O     0.16667   0.56107   0.87157   0.00000  Uiso   1.00
O1037  O     0.09058   0.50000   0.86261   0.00000  Uiso   1.00
O1038  O     0.24275   0.50000   0.80405   0.00000  Uiso   1.00
O1039  O     0.09058   0.50000   0.78617   0.00000  Uiso   1.00
O1040  O     0.24275   0.50000   0.88050   0.00000  Uiso   1.00
Zn1041 Zn    0.16667   0.49999   0.88437   0.00000  Uiso   1.00
Zn1042 Zn    0.16667   0.50001   0.78229   0.00000  Uiso   1.00
C1043  C     0.32349   0.48252   0.76949   0.00000  Uiso   1.00
N1044  N     0.30588   0.47187   0.73294   0.00000  Uiso   1.00
C1045  C     0.00991   0.51640   0.89742   0.00000  Uiso   1.00
N1046  N     0.02752   0.52692   0.93402   0.00000  Uiso   1.00
S1047  S     0.25880   0.37551   0.79232   0.00000  Uiso   1.00
O1048  O     0.28497   0.40587   0.82698   0.00000  Uiso   1.00
O1049  O     0.29767   0.34282   0.78241   0.00000  Uiso   1.00
O1050  O     0.23625   0.40115   0.74361   0.00000  Uiso   1.00
H1051  H     0.21633   0.38016   0.72371   0.00000  Uiso   1.00
S1052  S     0.07293   0.62471   0.87215   0.00000  Uiso   1.00
O1053  O     0.09140   0.59918   0.91421   0.00000  Uiso   1.00
O1054  O     0.03577   0.65805   0.88394   0.00000  Uiso   1.00
O1055  O     0.04261   0.59373   0.83067   0.00000  Uiso   1.00
H1056  H     0.00596   0.59402   0.83540   0.00000  Uiso   1.00
C1057  C     0.50221   0.42005   0.83343   0.00000  Uiso   1.00
C1058  C     0.49764   0.57995   0.83321   0.00000  Uiso   1.00
C1059  C     0.40063   0.49964   0.82151   0.00000  Uiso   1.00
C1060  C     0.59938   0.50005   0.84518   0.00000  Uiso   1.00
C1061  C     0.34638   0.49613   0.81535   0.00000  Uiso   1.00
C1062  C     0.65367   0.50298   0.85147   0.00000  Uiso   1.00
C1063  C     0.54004   0.35253   0.81437   0.00000  Uiso   1.00
C1064  C     0.45971   0.64752   0.85213   0.00000  Uiso   1.00
C1065  C     0.53696   0.64294   0.81461   0.00000  Uiso   1.00
C1066  C     0.46299   0.35710   0.85211   0.00000  Uiso   1.00
C1067  C     0.49752   0.62411   0.83345   0.00000  Uiso   1.00
C1068  C     0.50239   0.37591   0.83324   0.00000  Uiso   1.00
C1069  C     0.52883   0.52799   0.69476   0.00000  Uiso   1.00
C1070  C     0.47121   0.47199   0.97191   0.00000  Uiso   1.00
C1071  C     0.52883   0.52796   0.98012   0.00000  Uiso   1.00
C1072  C     0.47120   0.47202   0.68656   0.00000  Uiso   1.00
H1073  H     0.56566   0.62387   0.80076   0.00000  Uiso   1.00
H1074  H     0.43422   0.37622   0.86579   0.00000  Uiso   1.00
H1075  H     0.55195   0.55030   0.71625   0.00000  Uiso   1.00
H1076  H     0.44811   0.44966   0.95042   0.00000  Uiso   1.00
H1077  H     0.55192   0.55028   0.96520   0.00000  Uiso   1.00
H1078  H     0.44814   0.44968   0.70147   0.00000  Uiso   1.00
N1079  N     0.49999   0.49999   0.95240   0.00000  Uiso   1.00
N1080  N     0.50001   0.50001   0.71427   0.00000  Uiso   1.00
O1081  O     0.50000   0.43892   0.87154   0.00000  Uiso   1.00
O1082  O     0.50000   0.56108   0.79513   0.00000  Uiso   1.00
O1083  O     0.50000   0.43893   0.79510   0.00000  Uiso   1.00
O1084  O     0.50000   0.56107   0.87157   0.00000  Uiso   1.00
O1085  O     0.42392   0.50000   0.86261   0.00000  Uiso   1.00
O1086  O     0.57608   0.50000   0.80405   0.00000  Uiso   1.00
O1087  O     0.42392   0.50000   0.78617   0.00000  Uiso   1.00
O1088  O     0.57608   0.50000   0.88050   0.00000  Uiso   1.00
Zn1089 Zn    0.50000   0.49999   0.88437   0.00000  Uiso   1.00
Zn1090 Zn    0.50000   0.50001   0.78229   0.00000  Uiso   1.00
C1091  C     0.65682   0.48252   0.76949   0.00000  Uiso   1.00
N1092  N     0.63921   0.47187   0.73294   0.00000  Uiso   1.00
C1093  C     0.34324   0.51640   0.89742   0.00000  Uiso   1.00
N1094  N     0.36085   0.52692   0.93402   0.00000  Uiso   1.00
S1095  S     0.59213   0.37551   0.79232   0.00000  Uiso   1.00
O1096  O     0.61830   0.40587   0.82698   0.00000  Uiso   1.00
O1097  O     0.63101   0.34282   0.78241   0.00000  Uiso   1.00
O1098  O     0.56958   0.40115   0.74361   0.00000  Uiso   1.00
H1099  H     0.54967   0.38016   0.72371   0.00000  Uiso   1.00
S1100  S     0.40626   0.62471   0.87215   0.00000  Uiso   1.00
O1101  O     0.42473   0.59918   0.91421   0.00000  Uiso   1.00
O1102  O     0.36910   0.65805   0.88394   0.00000  Uiso   1.00
O1103  O     0.37594   0.59373   0.83067   0.00000  Uiso   1.00
H1104  H     0.33929   0.59402   0.83540   0.00000  Uiso   1.00
C1105  C     0.83555   0.42005   0.83343   0.00000  Uiso   1.00
C1106  C     0.83097   0.57995   0.83321   0.00000  Uiso   1.00
C1107  C     0.73396   0.49964   0.82151   0.00000  Uiso   1.00
C1108  C     0.93272   0.50005   0.84518   0.00000  Uiso   1.00
C1109  C     0.67971   0.49613   0.81535   0.00000  Uiso   1.00
C1110  C     0.98701   0.50298   0.85147   0.00000  Uiso   1.00
C1111  C     0.87337   0.35253   0.81437   0.00000  Uiso   1.00
C1112  C     0.79304   0.64752   0.85213   0.00000  Uiso   1.00
C1113  C     0.87030   0.64294   0.81461   0.00000  Uiso   1.00
C1114  C     0.79632   0.35710   0.85211   0.00000  Uiso   1.00
C1115  C     0.83085   0.62411   0.83345   0.00000  Uiso   1.00
C1116  C     0.83572   0.37591   0.83324   0.00000  Uiso   1.00
C1117  C     0.86216   0.52799   0.69476   0.00000  Uiso   1.00
C1118  C     0.80454   0.47199   0.97191   0.00000  Uiso   1.00
C1119  C     0.86216   0.52796   0.98012   0.00000  Uiso   1.00
C1120  C     0.80453   0.47202   0.68656   0.00000  Uiso   1.00
H1121  H     0.89900   0.62387   0.80076   0.00000  Uiso   1.00
H1122  H     0.76755   0.37622   0.86579   0.00000  Uiso   1.00
H1123  H     0.88528   0.55030   0.71625   0.00000  Uiso   1.00
H1124  H     0.78145   0.44966   0.95042   0.00000  Uiso   1.00
H1125  H     0.88525   0.55028   0.96520   0.00000  Uiso   1.00
H1126  H     0.78147   0.44968   0.70147   0.00000  Uiso   1.00
N1127  N     0.83332   0.49999   0.95240   0.00000  Uiso   1.00
N1128  N     0.83335   0.50001   0.71427   0.00000  Uiso   1.00
O1129  O     0.83333   0.43892   0.87154   0.00000  Uiso   1.00
O1130  O     0.83334   0.56108   0.79513   0.00000  Uiso   1.00
O1131  O     0.83333   0.43893   0.79510   0.00000  Uiso   1.00
O1132  O     0.83334   0.56107   0.87157   0.00000  Uiso   1.00
O1133  O     0.75725   0.50000   0.86261   0.00000  Uiso   1.00
O1134  O     0.90942   0.50000   0.80405   0.00000  Uiso   1.00
O1135  O     0.75725   0.50000   0.78617   0.00000  Uiso   1.00
O1136  O     0.90942   0.50000   0.88050   0.00000  Uiso   1.00
Zn1137 Zn    0.83333   0.49999   0.88437   0.00000  Uiso   1.00
Zn1138 Zn    0.83333   0.50001   0.78229   0.00000  Uiso   1.00
C1139  C     0.99016   0.48252   0.76949   0.00000  Uiso   1.00
N1140  N     0.97254   0.47187   0.73294   0.00000  Uiso   1.00
C1141  C     0.67657   0.51640   0.89742   0.00000  Uiso   1.00
N1142  N     0.69419   0.52692   0.93402   0.00000  Uiso   1.00
S1143  S     0.92547   0.37551   0.79232   0.00000  Uiso   1.00
O1144  O     0.95164   0.40587   0.82698   0.00000  Uiso   1.00
O1145  O     0.96434   0.34282   0.78241   0.00000  Uiso   1.00
O1146  O     0.90291   0.40115   0.74361   0.00000  Uiso   1.00
H1147  H     0.88300   0.38016   0.72371   0.00000  Uiso   1.00
S1148  S     0.73959   0.62471   0.87215   0.00000  Uiso   1.00
O1149  O     0.75806   0.59918   0.91421   0.00000  Uiso   1.00
O1150  O     0.70243   0.65805   0.88394   0.00000  Uiso   1.00
O1151  O     0.70928   0.59373   0.83067   0.00000  Uiso   1.00
H1152  H     0.67263   0.59402   0.83540   0.00000  Uiso   1.00
C1153  C     0.16888   0.75339   0.83343   0.00000  Uiso   1.00
C1154  C     0.16430   0.91328   0.83321   0.00000  Uiso   1.00
C1155  C     0.06729   0.83298   0.82151   0.00000  Uiso   1.00
C1156  C     0.26605   0.83338   0.84518   0.00000  Uiso   1.00
C1157  C     0.01305   0.82947   0.81535   0.00000  Uiso   1.00
C1158  C     0.32034   0.83632   0.85147   0.00000  Uiso   1.00
C1159  C     0.20671   0.68586   0.81437   0.00000  Uiso   1.00
C1160  C     0.12638   0.98085   0.85213   0.00000  Uiso   1.00
C1161  C     0.20363   0.97627   0.81461   0.00000  Uiso   1.00
C1162  C     0.12966   0.69043   0.85211   0.00000  Uiso   1.00
C1163  C     0.16418   0.95745   0.83345   0.00000  Uiso   1.00
C1164  C     0.16905   0.70924   0.83324   0.00000  Uiso   1.00
C1165  C     0.19549   0.86132   0.69476   0.00000  Uiso   1.00
C1166  C     0.13788   0.80532   0.97191   0.00000  Uiso   1.00
C1167  C     0.19550   0.86130   0.98012   0.00000  Uiso   1.00
C1168  C     0.13786   0.80535   0.68656   0.00000  Uiso   1.00
H1169  H     0.23233   0.95720   0.80076   0.00000  Uiso   1.00
H1170  H     0.10089   0.70956   0.86579   0.00000  Uiso   1.00
H1171  H     0.21861   0.88364   0.71625   0.00000  Uiso   1.00
H1172  H     0.11478   0.78299   0.95042   0.00000  Uiso   1.00
H1173  H     0.21858   0.88361   0.96520   0.00000  Uiso   1.00
H1174  H     0.11481   0.78302   0.70147   0.00000  Uiso   1.00
N1175  N     0.16665   0.83332   0.95240   0.00000  Uiso   1.00
N1176  N     0.16668   0.83334   0.71427   0.00000  Uiso   1.00
O1177  O     0.16666   0.77225   0.87154   0.00000  Uiso   1.00
O1178  O     0.16667   0.89442   0.79513   0.00000  Uiso   1.00
O1179  O     0.16666   0.77226   0.79510   0.00000  Uiso   1.00
O1180  O     0.16667   0.89441   0.87157   0.00000  Uiso   1.00
O1181  O     0.09058   0.83333   0.86261   0.00000  Uiso   1.00
O1182  O     0.24275   0.83334   0.80405   0.00000  Uiso   1.00
O1183  O     0.09058   0.83334   0.78617   0.00000  Uiso   1.00
O1184  O     0.24275   0.83333   0.88050   0.00000  Uiso   1.00
Zn1185 Zn    0.16667   0.83333   0.88437   0.00000  Uiso   1.00
Zn1186 Zn    0.16667   0.83334   0.78229   0.00000  Uiso   1.00
C1187  C     0.32349   0.81585   0.76949   0.00000  Uiso   1.00
N1188  N     0.30588   0.80520   0.73294   0.00000  Uiso   1.00
C1189  C     0.00991   0.84974   0.89742   0.00000  Uiso   1.00
N1190  N     0.02752   0.86025   0.93402   0.00000  Uiso   1.00
S1191  S     0.25880   0.70885   0.79232   0.00000  Uiso   1.00
O1192  O     0.28497   0.73920   0.82698   0.00000  Uiso   1.00
O1193  O     0.29767   0.67615   0.78241   0.00000  Uiso   1.00
O1194  O     0.23625   0.73448   0.74361   0.00000  Uiso   1.00
H1195  H     0.21633   0.71349   0.72371   0.00000  Uiso   1.00
S1196  S     0.07293   0.95804   0.87215   0.00000  Uiso   1.00
O1197  O     0.09140   0.93251   0.91421   0.00000  Uiso   1.00
O1198  O     0.03577   0.99139   0.88394   0.00000  Uiso   1.00
O1199  O     0.04261   0.92706   0.83067   0.00000  Uiso   1.00
H1200  H     0.00596   0.92735   0.83540   0.00000  Uiso   1.00
C1201  C     0.50221   0.75339   0.83343   0.00000  Uiso   1.00
C1202  C     0.49764   0.91328   0.83321   0.00000  Uiso   1.00
C1203  C     0.40063   0.83298   0.82151   0.00000  Uiso   1.00
C1204  C     0.59938   0.83338   0.84518   0.00000  Uiso   1.00
C1205  C     0.34638   0.82947   0.81535   0.00000  Uiso   1.00
C1206  C     0.65367   0.83632   0.85147   0.00000  Uiso   1.00
C1207  C     0.54004   0.68586   0.81437   0.00000  Uiso   1.00
C1208  C     0.45971   0.98085   0.85213   0.00000  Uiso   1.00
C1209  C     0.53696   0.97627   0.81461   0.00000  Uiso   1.00
C1210  C     0.46299   0.69043   0.85211   0.00000  Uiso   1.00
C1211  C     0.49752   0.95745   0.83345   0.00000  Uiso   1.00
C1212  C     0.50239   0.70924   0.83324   0.00000  Uiso   1.00
C1213  C     0.52883   0.86132   0.69476   0.00000  Uiso   1.00
C1214  C     0.47121   0.80532   0.97191   0.00000  Uiso   1.00
C1215  C     0.52883   0.86130   0.98012   0.00000  Uiso   1.00
C1216  C     0.47120   0.80535   0.68656   0.00000  Uiso   1.00
H1217  H     0.56566   0.95720   0.80076   0.00000  Uiso   1.00
H1218  H     0.43422   0.70956   0.86579   0.00000  Uiso   1.00
H1219  H     0.55195   0.88364   0.71625   0.00000  Uiso   1.00
H1220  H     0.44811   0.78299   0.95042   0.00000  Uiso   1.00
H1221  H     0.55192   0.88361   0.96520   0.00000  Uiso   1.00
H1222  H     0.44814   0.78302   0.70147   0.00000  Uiso   1.00
N1223  N     0.49999   0.83332   0.95240   0.00000  Uiso   1.00
N1224  N     0.50001   0.83334   0.71427   0.00000  Uiso   1.00
O1225  O     0.50000   0.77225   0.87154   0.00000  Uiso   1.00
O1226  O     0.50000   0.89442   0.79513   0.00000  Uiso   1.00
O1227  O     0.50000   0.77226   0.79510   0.00000  Uiso   1.00
O1228  O     0.50000   0.89441   0.87157   0.00000  Uiso   1.00
O1229  O     0.42392   0.83333   0.86261   0.00000  Uiso   1.00
O1230  O     0.57608   0.83334   0.80405   0.00000  Uiso   1.00
O1231  O     0.42392   0.83334   0.78617   0.00000  Uiso   1.00
O1232  O     0.57608   0.83333   0.88050   0.00000  Uiso   1.00
Zn1233 Zn    0.50000   0.83333   0.88437   0.00000  Uiso   1.00
Zn1234 Zn    0.50000   0.83334   0.78229   0.00000  Uiso   1.00
C1235  C     0.65682   0.81585   0.76949   0.00000  Uiso   1.00
N1236  N     0.63921   0.80520   0.73294   0.00000  Uiso   1.00
C1237  C     0.34324   0.84974   0.89742   0.00000  Uiso   1.00
N1238  N     0.36085   0.86025   0.93402   0.00000  Uiso   1.00
S1239  S     0.59213   0.70885   0.79232   0.00000  Uiso   1.00
O1240  O     0.61830   0.73920   0.82698   0.00000  Uiso   1.00
O1241  O     0.63101   0.67615   0.78241   0.00000  Uiso   1.00
O1242  O     0.56958   0.73448   0.74361   0.00000  Uiso   1.00
H1243  H     0.54967   0.71349   0.72371   0.00000  Uiso   1.00
S1244  S     0.40626   0.95804   0.87215   0.00000  Uiso   1.00
O1245  O     0.42473   0.93251   0.91421   0.00000  Uiso   1.00
O1246  O     0.36910   0.99139   0.88394   0.00000  Uiso   1.00
O1247  O     0.37594   0.92706   0.83067   0.00000  Uiso   1.00
H1248  H     0.33929   0.92735   0.83540   0.00000  Uiso   1.00
C1249  C     0.83555   0.75339   0.83343   0.00000  Uiso   1.00
C1250  C     0.83097   0.91328   0.83321   0.00000  Uiso   1.00
C1251  C     0.73396   0.83298   0.82151   0.00000  Uiso   1.00
C1252  C     0.93272   0.83338   0.84518   0.00000  Uiso   1.00
C1253  C     0.67971   0.82947   0.81535   0.00000  Uiso   1.00
C1254  C     0.98701   0.83632   0.85147   0.00000  Uiso   1.00
C1255  C     0.87337   0.68586   0.81437   0.00000  Uiso   1.00
C1256  C     0.79304   0.98085   0.85213   0.00000  Uiso   1.00
C1257  C     0.87030   0.97627   0.81461   0.00000  Uiso   1.00
C1258  C     0.79632   0.69043   0.85211   0.00000  Uiso   1.00
C1259  C     0.83085   0.95745   0.83345   0.00000  Uiso   1.00
C1260  C     0.83572   0.70924   0.83324   0.00000  Uiso   1.00
C1261  C     0.86216   0.86132   0.69476   0.00000  Uiso   1.00
C1262  C     0.80454   0.80532   0.97191   0.00000  Uiso   1.00
C1263  C     0.86216   0.86130   0.98012   0.00000  Uiso   1.00
C1264  C     0.80453   0.80535   0.68656   0.00000  Uiso   1.00
H1265  H     0.89900   0.95720   0.80076   0.00000  Uiso   1.00
H1266  H     0.76755   0.70956   0.86579   0.00000  Uiso   1.00
H1267  H     0.88528   0.88364   0.71625   0.00000  Uiso   1.00
H1268  H     0.78145   0.78299   0.95042   0.00000  Uiso   1.00
H1269  H     0.88525   0.88361   0.96520   0.00000  Uiso   1.00
H1270  H     0.78147   0.78302   0.70147   0.00000  Uiso   1.00
N1271  N     0.83332   0.83332   0.95240   0.00000  Uiso   1.00
N1272  N     0.83335   0.83334   0.71427   0.00000  Uiso   1.00
O1273  O     0.83333   0.77225   0.87154   0.00000  Uiso   1.00
O1274  O     0.83334   0.89442   0.79513   0.00000  Uiso   1.00
O1275  O     0.83333   0.77226   0.79510   0.00000  Uiso   1.00
O1276  O     0.83334   0.89441   0.87157   0.00000  Uiso   1.00
O1277  O     0.75725   0.83333   0.86261   0.00000  Uiso   1.00
O1278  O     0.90942   0.83334   0.80405   0.00000  Uiso   1.00
O1279  O     0.75725   0.83334   0.78617   0.00000  Uiso   1.00
O1280  O     0.90942   0.83333   0.88050   0.00000  Uiso   1.00
Zn1281 Zn    0.83333   0.83333   0.88437   0.00000  Uiso   1.00
Zn1282 Zn    0.83333   0.83334   0.78229   0.00000  Uiso   1.00
C1283  C     0.99016   0.81585   0.76949   0.00000  Uiso   1.00
N1284  N     0.97254   0.80520   0.73294   0.00000  Uiso   1.00
C1285  C     0.67657   0.84974   0.89742   0.00000  Uiso   1.00
N1286  N     0.69419   0.86025   0.93402   0.00000  Uiso   1.00
S1287  S     0.92547   0.70885   0.79232   0.00000  Uiso   1.00
O1288  O     0.95164   0.73920   0.82698   0.00000  Uiso   1.00
O1289  O     0.96434   0.67615   0.78241   0.00000  Uiso   1.00
O1290  O     0.90291   0.73448   0.74361   0.00000  Uiso   1.00
H1291  H     0.88300   0.71349   0.72371   0.00000  Uiso   1.00
S1292  S     0.73959   0.95804   0.87215   0.00000  Uiso   1.00
O1293  O     0.75806   0.93251   0.91421   0.00000  Uiso   1.00
O1294  O     0.70243   0.99139   0.88394   0.00000  Uiso   1.00
O1295  O     0.70928   0.92706   0.83067   0.00000  Uiso   1.00
H1296  H     0.67263   0.92735   0.83540   0.00000  Uiso   1.00
loop_
_geom_bond_atom_site_label_1
_geom_bond_atom_site_label_2
_geom_bond_distance
_geom_bond_site_symmetry_2
_ccdc_geom_bond_type
C1     O25     1.280   .     A
C1     C12     1.411   .     S
C1     O27     1.279   .     A
C2     O28     1.279   .     A
C2     O26     1.281   .     A
C2     C11     1.412   .     S
C3     O31     1.286   .     A
C3     O29     1.271   .     A
C3     C5      1.411   .     S
C4     O32     1.285   .     A
C4     C6      1.410   .     S
C4     O30     1.272   .     A
C5     C102    1.364   1_455 S
C5     C131    1.460   1_455 S
C6     C53     1.364   .     S
C6     C85     1.461   .     S
C7     C12     1.405   .     A
C7     S39     1.772   .     S
C7     C297    1.377   1_545 S
C8     C11     1.406   .     A
C8     S44     1.771   .     S
C8     C154    1.377   .     S
C9     C11     1.393   .     A
C9     H17     1.085   .     S
C9     C151    1.377   .     S
C10    C12     1.393   .     A
C10    H18     1.084   .     S
C10    C296    1.377   1_545 S
C13    H19     1.082   .     S
C13    N24     1.366   .     A
C13    C879    1.415   1_554 S
C14    N23     1.366   .     A
C14    H20     1.082   .     S
C14    C448    1.415   .     S
C15    N23     1.366   .     A
C15    H21     1.082   .     S
C15    C445    1.415   .     S
C16    N24     1.366   .     A
C16    H22     1.082   .     S
C16    C878    1.415   1_554 S
N23    Zn33    2.007   .     S
N24    Zn34    2.007   .     S
O25    Zn33    1.987   .     S
O26    Zn34    1.987   .     S
O27    Zn34    1.992   .     S
O28    Zn33    1.992   .     S
O29    Zn33    1.998   .     S
O30    Zn34    1.998   .     S
O31    Zn34    2.013   .     S
O32    Zn33    2.013   .     S
C35    N36     1.158   .     T
C35    C53     1.460   .     S
C37    N38     1.158   .     T
C37    C102    1.461   1_455 S
S39    O42     1.681   .     S
S39    O41     1.504   .     D
S39    O40     1.501   .     D
O42    H43     0.990   .     S
S44    O47     1.681   .     S
S44    O46     1.504   .     D
S44    O45     1.502   .     D
O47    H48     0.991   .     S
C49    O73     1.280   .     A
C49    C60     1.411   .     S
C49    O75     1.279   .     A
C50    O76     1.279   .     A
C50    O74     1.281   .     A
C50    C59     1.412   .     S
C51    O79     1.286   .     A
C51    O77     1.271   .     A
C51    C53     1.411   .     S
C52    O80     1.285   .     A
C52    C54     1.410   .     S
C52    O78     1.272   .     A
C54    C101    1.364   .     S
C54    C133    1.461   .     S
C55    C60     1.405   .     A
C55    S87     1.772   .     S
C55    C345    1.377   1_545 S
C56    C59     1.406   .     A
C56    S92     1.771   .     S
C56    C202    1.377   .     S
C57    C59     1.393   .     A
C57    H65     1.085   .     S
C57    C199    1.377   .     S
C58    C60     1.393   .     A
C58    H66     1.084   .     S
C58    C344    1.377   1_545 S
C61    H67     1.082   .     S
C61    N72     1.366   .     A
C61    C927    1.415   1_554 S
C62    N71     1.366   .     A
C62    H68     1.082   .     S
C62    C496    1.415   .     S
C63    N71     1.366   .     A
C63    H69     1.082   .     S
C63    C493    1.415   .     S
C64    N72     1.366   .     A
C64    H70     1.082   .     S
C64    C926    1.415   1_554 S
N71    Zn81    2.007   .     S
N72    Zn82    2.007   .     S
O73    Zn81    1.987   .     S
O74    Zn82    1.987   .     S
O75    Zn82    1.992   .     S
O76    Zn81    1.992   .     S
O77    Zn81    1.998   .     S
O78    Zn82    1.998   .     S
O79    Zn82    2.013   .     S
O80    Zn81    2.013   .     S
C83    N84     1.158   .     T
C83    C101    1.460   .     S
C85    N86     1.158   .     T
S87    O90     1.681   .     S
S87    O89     1.504   .     D
S87    O88     1.501   .     D
O90    H91     0.990   .     S
S92    O95     1.681   .     S
S92    O94     1.504   .     D
S92    O93     1.502   .     D
O95    H96     0.991   .     S
C97    O121    1.280   .     A
C97    C108    1.411   .     S
C97    O123    1.279   .     A
C98    O124    1.279   .     A
C98    O122    1.281   .     A
C98    C107    1.412   .     S
C99    O127    1.286   .     A
C99    O125    1.271   .     A
C99    C101    1.411   .     S
C100   O128    1.285   .     A
C100   C102    1.410   .     S
C100   O126    1.272   .     A
C102   C5      1.364   1_655 S
C102   C37     1.461   1_655 S
C103   C108    1.405   .     A
C103   S135    1.772   .     S
C103   C393    1.377   1_545 S
C104   C107    1.406   .     A
C104   S140    1.771   .     S
C104   C250    1.377   .     S
C105   C107    1.393   .     A
C105   H113    1.085   .     S
C105   C247    1.377   .     S
C106   C108    1.393   .     A
C106   H114    1.084   .     S
C106   C392    1.377   1_545 S
C109   H115    1.082   .     S
C109   N120    1.366   .     A
C109   C975    1.415   1_554 S
C110   N119    1.366   .     A
C110   H116    1.082   .     S
C110   C544    1.415   .     S
C111   N119    1.366   .     A
C111   H117    1.082   .     S
C111   C541    1.415   .     S
C112   N120    1.366   .     A
C112   H118    1.082   .     S
C112   C974    1.415   1_554 S
N119   Zn129   2.007   .     S
N120   Zn130   2.007   .     S
O121   Zn129   1.987   .     S
O122   Zn130   1.987   .     S
O123   Zn130   1.992   .     S
O124   Zn129   1.992   .     S
O125   Zn129   1.998   .     S
O126   Zn130   1.998   .     S
O127   Zn130   2.013   .     S
O128   Zn129   2.013   .     S
C131   N132    1.158   .     T
C131   C5      1.460   1_655 S
C133   N134    1.158   .     T
S135   O138    1.681   .     S
S135   O137    1.504   .     D
S135   O136    1.501   .     D
O138   H139    0.990   .     S
S140   O143    1.681   .     S
S140   O142    1.504   .     D
S140   O141    1.502   .     D
O143   H144    0.991   .     S
C145   O169    1.280   .     A
C145   C156    1.411   .     S
C145   O171    1.279   .     A
C146   O172    1.279   .     A
C146   O170    1.281   .     A
C146   C155    1.412   .     S
C147   O175    1.286   .     A
C147   O173    1.271   .     A
C147   C149    1.411   .     S
C148   O176    1.285   .     A
C148   C150    1.410   .     S
C148   O174    1.272   .     A
C149   C246    1.364   1_455 S
C149   C275    1.460   1_455 S
C150   C197    1.364   .     S
C150   C229    1.461   .     S
C151   C156    1.405   .     A
C151   S183    1.772   .     S
C152   C155    1.406   .     A
C152   S188    1.771   .     S
C152   C298    1.377   .     S
C153   C155    1.393   .     A
C153   H161    1.085   .     S
C153   C295    1.377   .     S
C154   C156    1.393   .     A
C154   H162    1.084   .     S
C157   H163    1.082   .     S
C157   N168    1.366   .     A
C157   C1023   1.415   1_554 S
C158   N167    1.366   .     A
C158   H164    1.082   .     S
C158   C592    1.415   .     S
C159   N167    1.366   .     A
C159   H165    1.082   .     S
C159   C589    1.415   .     S
C160   N168    1.366   .     A
C160   H166    1.082   .     S
C160   C1022   1.415   1_554 S
N167   Zn177   2.007   .     S
N168   Zn178   2.007   .     S
O169   Zn177   1.987   .     S
O170   Zn178   1.987   .     S
O171   Zn178   1.992   .     S
O172   Zn177   1.992   .     S
O173   Zn177   1.998   .     S
O174   Zn178   1.998   .     S
O175   Zn178   2.013   .     S
O176   Zn177   2.013   .     S
C179   N180    1.158   .     T
C179   C197    1.460   .     S
C181   N182    1.158   .     T
C181   C246    1.461   1_455 S
S183   O186    1.681   .     S
S183   O185    1.504   .     D
S183   O184    1.501   .     D
O186   H187    0.990   .     S
S188   O191    1.681   .     S
S188   O190    1.504   .     D
S188   O189    1.502   .     D
O191   H192    0.991   .     S
C193   O217    1.280   .     A
C193   C204    1.411   .     S
C193   O219    1.279   .     A
C194   O220    1.279   .     A
C194   O218    1.281   .     A
C194   C203    1.412   .     S
C195   O223    1.286   .     A
C195   O221    1.271   .     A
C195   C197    1.411   .     S
C196   O224    1.285   .     A
C196   C198    1.410   .     S
C196   O222    1.272   .     A
C198   C245    1.364   .     S
C198   C277    1.461   .     S
C199   C204    1.405   .     A
C199   S231    1.772   .     S
C200   C203    1.406   .     A
C200   S236    1.771   .     S
C200   C346    1.377   .     S
C201   C203    1.393   .     A
C201   H209    1.085   .     S
C201   C343    1.377   .     S
C202   C204    1.393   .     A
C202   H210    1.084   .     S
C205   H211    1.082   .     S
C205   N216    1.366   .     A
C205   C1071   1.415   1_554 S
C206   N215    1.366   .     A
C206   H212    1.082   .     S
C206   C640    1.415   .     S
C207   N215    1.366   .     A
C207   H213    1.082   .     S
C207   C637    1.415   .     S
C208   N216    1.366   .     A
C208   H214    1.082   .     S
C208   C1070   1.415   1_554 S
N215   Zn225   2.007   .     S
N216   Zn226   2.007   .     S
O217   Zn225   1.987   .     S
O218   Zn226   1.987   .     S
O219   Zn226   1.992   .     S
O220   Zn225   1.992   .     S
O221   Zn225   1.998   .     S
O222   Zn226   1.998   .     S
O223   Zn226   2.013   .     S
O224   Zn225   2.013   .     S
C227   N228    1.158   .     T
C227   C245    1.460   .     S
C229   N230    1.158   .     T
S231   O234    1.681   .     S
S231   O233    1.504   .     D
S231   O232    1.501   .     D
O234   H235    0.990   .     S
S236   O239    1.681   .     S
S236   O238    1.504   .     D
S236   O237    1.502   .     D
O239   H240    0.991   .     S
C241   O265    1.280   .     A
C241   C252    1.411   .     S
C241   O267    1.279   .     A
C242   O268    1.279   .     A
C242   O266    1.281   .     A
C242   C251    1.412   .     S
C243   O271    1.286   .     A
C243   O269    1.271   .     A
C243   C245    1.411   .     S
C244   O272    1.285   .     A
C244   C246    1.410   .     S
C244   O270    1.272   .     A
C246   C149    1.364   1_655 S
C246   C181    1.461   1_655 S
C247   C252    1.405   .     A
C247   S279    1.772   .     S
C248   C251    1.406   .     A
C248   S284    1.771   .     S
C248   C394    1.377   .     S
C249   C251    1.393   .     A
C249   H257    1.085   .     S
C249   C391    1.377   .     S
C250   C252    1.393   .     A
C250   H258    1.084   .     S
C253   H259    1.082   .     S
C253   N264    1.366   .     A
C253   C1119   1.415   1_554 S
C254   N263    1.366   .     A
C254   H260    1.082   .     S
C254   C688    1.415   .     S
C255   N263    1.366   .     A
C255   H261    1.082   .     S
C255   C685    1.415   .     S
C256   N264    1.366   .     A
C256   H262    1.082   .     S
C256   C1118   1.415   1_554 S
N263   Zn273   2.007   .     S
N264   Zn274   2.007   .     S
O265   Zn273   1.987   .     S
O266   Zn274   1.987   .     S
O267   Zn274   1.992   .     S
O268   Zn273   1.992   .     S
O269   Zn273   1.998   .     S
O270   Zn274   1.998   .     S
O271   Zn274   2.013   .     S
O272   Zn273   2.013   .     S
C275   N276    1.158   .     T
C275   C149    1.460   1_655 S
C277   N278    1.158   .     T
S279   O282    1.681   .     S
S279   O281    1.504   .     D
S279   O280    1.501   .     D
O282   H283    0.990   .     S
S284   O287    1.681   .     S
S284   O286    1.504   .     D
S284   O285    1.502   .     D
O287   H288    0.991   .     S
C289   O313    1.280   .     A
C289   C300    1.411   .     S
C289   O315    1.279   .     A
C290   O316    1.279   .     A
C290   O314    1.281   .     A
C290   C299    1.412   .     S
C291   O319    1.286   .     A
C291   O317    1.271   .     A
C291   C293    1.411   .     S
C292   O320    1.285   .     A
C292   C294    1.410   .     S
C292   O318    1.272   .     A
C293   C390    1.364   1_455 S
C293   C419    1.460   1_455 S
C294   C341    1.364   .     S
C294   C373    1.461   .     S
C295   C300    1.405   .     A
C295   S327    1.772   .     S
C296   C299    1.406   .     A
C296   S332    1.771   .     S
C296   C10     1.377   1_565 S
C297   C299    1.393   .     A
C297   H305    1.085   .     S
C297   C7      1.377   1_565 S
C298   C300    1.393   .     A
C298   H306    1.084   .     S
C301   H307    1.082   .     S
C301   N312    1.366   .     A
C301   C1167   1.415   1_554 S
C302   N311    1.366   .     A
C302   H308    1.082   .     S
C302   C736    1.415   .     S
C303   N311    1.366   .     A
C303   H309    1.082   .     S
C303   C733    1.415   .     S
C304   N312    1.366   .     A
C304   H310    1.082   .     S
C304   C1166   1.415   1_554 S
N311   Zn321   2.007   .     S
N312   Zn322   2.007   .     S
O313   Zn321   1.987   .     S
O314   Zn322   1.987   .     S
O315   Zn322   1.992   .     S
O316   Zn321   1.992   .     S
O317   Zn321   1.998   .     S
O318   Zn322   1.998   .     S
O319   Zn322   2.013   .     S
O320   Zn321   2.013   .     S
C323   N324    1.158   .     T
C323   C341    1.460   .     S
C325   N326    1.158   .     T
C325   C390    1.461   1_455 S
S327   O330    1.681   .     S
S327   O329    1.504   .     D
S327   O328    1.501   .     D
O330   H331    0.990   .     S
S332   O335    1.681   .     S
S332   O334    1.504   .     D
S332   O333    1.502   .     D
O335   H336    0.991   .     S
C337   O361    1.280   .     A
C337   C348    1.411   .     S
C337   O363    1.279   .     A
C338   O364    1.279   .     A
C338   O362    1.281   .     A
C338   C347    1.412   .     S
C339   O367    1.286   .     A
C339   O365    1.271   .     A
C339   C341    1.411   .     S
C340   O368    1.285   .     A
C340   C342    1.410   .     S
C340   O366    1.272   .     A
C342   C389    1.364   .     S
C342   C421    1.461   .     S
C343   C348    1.405   .     A
C343   S375    1.772   .     S
C344   C347    1.406   .     A
C344   S380    1.771   .     S
C344   C58     1.377   1_565 S
C345   C347    1.393   .     A
C345   H353    1.085   .     S
C345   C55     1.377   1_565 S
C346   C348    1.393   .     A
C346   H354    1.084   .     S
C349   H355    1.082   .     S
C349   N360    1.366   .     A
C349   C1215   1.415   1_554 S
C350   N359    1.366   .     A
C350   H356    1.082   .     S
C350   C784    1.415   .     S
C351   N359    1.366   .     A
C351   H357    1.082   .     S
C351   C781    1.415   .     S
C352   N360    1.366   .     A
C352   H358    1.082   .     S
C352   C1214   1.415   1_554 S
N359   Zn369   2.007   .     S
N360   Zn370   2.007   .     S
O361   Zn369   1.987   .     S
O362   Zn370   1.987   .     S
O363   Zn370   1.992   .     S
O364   Zn369   1.992   .     S
O365   Zn369   1.998   .     S
O366   Zn370   1.998   .     S
O367   Zn370   2.013   .     S
O368   Zn369   2.013   .     S
C371   N372    1.158   .     T
C371   C389    1.460   .     S
C373   N374    1.158   .     T
S375   O378    1.681   .     S
S375   O377    1.504   .     D
S375   O376    1.501   .     D
O378   H379    0.990   .     S
S380   O383    1.681   .     S
S380   O382    1.504   .     D
S380   O381    1.502   .     D
O383   H384    0.991   .     S
C385   O409    1.280   .     A
C385   C396    1.411   .     S
C385   O411    1.279   .     A
C386   O412    1.279   .     A
C386   O410    1.281   .     A
C386   C395    1.412   .     S
C387   O415    1.286   .     A
C387   O413    1.271   .     A
C387   C389    1.411   .     S
C388   O416    1.285   .     A
C388   C390    1.410   .     S
C388   O414    1.272   .     A
C390   C293    1.364   1_655 S
C390   C325    1.461   1_655 S
C391   C396    1.405   .     A
C391   S423    1.772   .     S
C392   C395    1.406   .     A
C392   S428    1.771   .     S
C392   C106    1.377   1_565 S
C393   C395    1.393   .     A
C393   H401    1.085   .     S
C393   C103    1.377   1_565 S
C394   C396    1.393   .     A
C394   H402    1.084   .     S
C397   H403    1.082   .     S
C397   N408    1.366   .     A
C397   C1263   1.415   1_554 S
C398   N407    1.366   .     A
C398   H404    1.082   .     S
C398   C832    1.415   .     S
C399   N407    1.366   .     A
C399   H405    1.082   .     S
C399   C829    1.415   .     S
C400   N408    1.366   .     A
C400   H406    1.082   .     S
C400   C1262   1.415   1_554 S
N407   Zn417   2.007   .     S
N408   Zn418   2.007   .     S
O409   Zn417   1.987   .     S
O410   Zn418   1.987   .     S
O411   Zn418   1.992   .     S
O412   Zn417   1.992   .     S
O413   Zn417   1.998   .     S
O414   Zn418   1.998   .     S
O415   Zn418   2.013   .     S
O416   Zn417   2.013   .     S
C419   N420    1.158   .     T
C419   C293    1.460   1_655 S
C421   N422    1.158   .     T
S423   O426    1.681   .     S
S423   O425    1.504   .     D
S423   O424    1.501   .     D
O426   H427    0.990   .     S
S428   O431    1.681   .     S
S428   O430    1.504   .     D
S428   O429    1.502   .     D
O431   H432    0.991   .     S
C433   O457    1.280   .     A
C433   C444    1.411   .     S
C433   O459    1.279   .     A
C434   O460    1.279   .     A
C434   O458    1.281   .     A
C434   C443    1.412   .     S
C435   O463    1.286   .     A
C435   O461    1.271   .     A
C435   C437    1.411   .     S
C436   O464    1.285   .     A
C436   C438    1.410   .     S
C436   O462    1.272   .     A
C437   C534    1.364   1_455 S
C437   C563    1.460   1_455 S
C438   C485    1.364   .     S
C438   C517    1.461   .     S
C439   C444    1.405   .     A
C439   S471    1.772   .     S
C439   C729    1.377   1_545 S
C440   C443    1.406   .     A
C440   S476    1.771   .     S
C440   C586    1.377   .     S
C441   C443    1.393   .     A
C441   H449    1.085   .     S
C441   C583    1.377   .     S
C442   C444    1.393   .     A
C442   H450    1.084   .     S
C442   C728    1.377   1_545 S
C445   H451    1.082   .     S
C445   N456    1.366   .     A
C446   N455    1.366   .     A
C446   H452    1.082   .     S
C446   C880    1.415   .     S
C447   N455    1.366   .     A
C447   H453    1.082   .     S
C447   C877    1.415   .     S
C448   N456    1.366   .     A
C448   H454    1.082   .     S
N455   Zn465   2.007   .     S
N456   Zn466   2.007   .     S
O457   Zn465   1.987   .     S
O458   Zn466   1.987   .     S
O459   Zn466   1.992   .     S
O460   Zn465   1.992   .     S
O461   Zn465   1.998   .     S
O462   Zn466   1.998   .     S
O463   Zn466   2.013   .     S
O464   Zn465   2.013   .     S
C467   N468    1.158   .     T
C467   C485    1.460   .     S
C469   N470    1.158   .     T
C469   C534    1.461   1_455 S
S471   O474    1.681   .     S
S471   O473    1.504   .     D
S471   O472    1.501   .     D
O474   H475    0.990   .     S
S476   O479    1.681   .     S
S476   O478    1.504   .     D
S476   O477    1.502   .     D
O479   H480    0.991   .     S
C481   O505    1.280   .     A
C481   C492    1.411   .     S
C481   O507    1.279   .     A
C482   O508    1.279   .     A
C482   O506    1.281   .     A
C482   C491    1.412   .     S
C483   O511    1.286   .     A
C483   O509    1.271   .     A
C483   C485    1.411   .     S
C484   O512    1.285   .     A
C484   C486    1.410   .     S
C484   O510    1.272   .     A
C486   C533    1.364   .     S
C486   C565    1.461   .     S
C487   C492    1.405   .     A
C487   S519    1.772   .     S
C487   C777    1.377   1_545 S
C488   C491    1.406   .     A
C488   S524    1.771   .     S
C488   C634    1.377   .     S
C489   C491    1.393   .     A
C489   H497    1.085   .     S
C489   C631    1.377   .     S
C490   C492    1.393   .     A
C490   H498    1.084   .     S
C490   C776    1.377   1_545 S
C493   H499    1.082   .     S
C493   N504    1.366   .     A
C494   N503    1.366   .     A
C494   H500    1.082   .     S
C494   C928    1.415   .     S
C495   N503    1.366   .     A
C495   H501    1.082   .     S
C495   C925    1.415   .     S
C496   N504    1.366   .     A
C496   H502    1.082   .     S
N503   Zn513   2.007   .     S
N504   Zn514   2.007   .     S
O505   Zn513   1.987   .     S
O506   Zn514   1.987   .     S
O507   Zn514   1.992   .     S
O508   Zn513   1.992   .     S
O509   Zn513   1.998   .     S
O510   Zn514   1.998   .     S
O511   Zn514   2.013   .     S
O512   Zn513   2.013   .     S
C515   N516    1.158   .     T
C515   C533    1.460   .     S
C517   N518    1.158   .     T
S519   O522    1.681   .     S
S519   O521    1.504   .     D
S519   O520    1.501   .     D
O522   H523    0.990   .     S
S524   O527    1.681   .     S
S524   O526    1.504   .     D
S524   O525    1.502   .     D
O527   H528    0.991   .     S
C529   O553    1.280   .     A
C529   C540    1.411   .     S
C529   O555    1.279   .     A
C530   O556    1.279   .     A
C530   O554    1.281   .     A
C530   C539    1.412   .     S
C531   O559    1.286   .     A
C531   O557    1.271   .     A
C531   C533    1.411   .     S
C532   O560    1.285   .     A
C532   C534    1.410   .     S
C532   O558    1.272   .     A
C534   C437    1.364   1_655 S
C534   C469    1.461   1_655 S
C535   C540    1.405   .     A
C535   S567    1.772   .     S
C535   C825    1.377   1_545 S
C536   C539    1.406   .     A
C536   S572    1.771   .     S
C536   C682    1.377   .     S
C537   C539    1.393   .     A
C537   H545    1.085   .     S
C537   C679    1.377   .     S
C538   C540    1.393   .     A
C538   H546    1.084   .     S
C538   C824    1.377   1_545 S
C541   H547    1.082   .     S
C541   N552    1.366   .     A
C542   N551    1.366   .     A
C542   H548    1.082   .     S
C542   C976    1.415   .     S
C543   N551    1.366   .     A
C543   H549    1.082   .     S
C543   C973    1.415   .     S
C544   N552    1.366   .     A
C544   H550    1.082   .     S
N551   Zn561   2.007   .     S
N552   Zn562   2.007   .     S
O553   Zn561   1.987   .     S
O554   Zn562   1.987   .     S
O555   Zn562   1.992   .     S
O556   Zn561   1.992   .     S
O557   Zn561   1.998   .     S
O558   Zn562   1.998   .     S
O559   Zn562   2.013   .     S
O560   Zn561   2.013   .     S
C563   N564    1.158   .     T
C563   C437    1.460   1_655 S
C565   N566    1.158   .     T
S567   O570    1.681   .     S
S567   O569    1.504   .     D
S567   O568    1.501   .     D
O570   H571    0.990   .     S
S572   O575    1.681   .     S
S572   O574    1.504   .     D
S572   O573    1.502   .     D
O575   H576    0.991   .     S
C577   O601    1.280   .     A
C577   C588    1.411   .     S
C577   O603    1.279   .     A
C578   O604    1.279   .     A
C578   O602    1.281   .     A
C578   C587    1.412   .     S
C579   O607    1.286   .     A
C579   O605    1.271   .     A
C579   C581    1.411   .     S
C580   O608    1.285   .     A
C580   C582    1.410   .     S
C580   O606    1.272   .     A
C581   C678    1.364   1_455 S
C581   C707    1.460   1_455 S
C582   C629    1.364   .     S
C582   C661    1.461   .     S
C583   C588    1.405   .     A
C583   S615    1.772   .     S
C584   C587    1.406   .     A
C584   S620    1.771   .     S
C584   C730    1.377   .     S
C585   C587    1.393   .     A
C585   H593    1.085   .     S
C585   C727    1.377   .     S
C586   C588    1.393   .     A
C586   H594    1.084   .     S
C589   H595    1.082   .     S
C589   N600    1.366   .     A
C590   N599    1.366   .     A
C590   H596    1.082   .     S
C590   C1024   1.415   .     S
C591   N599    1.366   .     A
C591   H597    1.082   .     S
C591   C1021   1.415   .     S
C592   N600    1.366   .     A
C592   H598    1.082   .     S
N599   Zn609   2.007   .     S
N600   Zn610   2.007   .     S
O601   Zn609   1.987   .     S
O602   Zn610   1.987   .     S
O603   Zn610   1.992   .     S
O604   Zn609   1.992   .     S
O605   Zn609   1.998   .     S
O606   Zn610   1.998   .     S
O607   Zn610   2.013   .     S
O608   Zn609   2.013   .     S
C611   N612    1.158   .     T
C611   C629    1.460   .     S
C613   N614    1.158   .     T
C613   C678    1.461   1_455 S
S615   O618    1.681   .     S
S615   O617    1.504   .     D
S615   O616    1.501   .     D
O618   H619    0.990   .     S
S620   O623    1.681   .     S
S620   O622    1.504   .     D
S620   O621    1.502   .     D
O623   H624    0.991   .     S
C625   O649    1.280   .     A
C625   C636    1.411   .     S
C625   O651    1.279   .     A
C626   O652    1.279   .     A
C626   O650    1.281   .     A
C626   C635    1.412   .     S
C627   O655    1.286   .     A
C627   O653    1.271   .     A
C627   C629    1.411   .     S
C628   O656    1.285   .     A
C628   C630    1.410   .     S
C628   O654    1.272   .     A
C630   C677    1.364   .     S
C630   C709    1.461   .     S
C631   C636    1.405   .     A
C631   S663    1.772   .     S
C632   C635    1.406   .     A
C632   S668    1.771   .     S
C632   C778    1.377   .     S
C633   C635    1.393   .     A
C633   H641    1.085   .     S
C633   C775    1.377   .     S
C634   C636    1.393   .     A
C634   H642    1.084   .     S
C637   H643    1.082   .     S
C637   N648    1.366   .     A
C638   N647    1.366   .     A
C638   H644    1.082   .     S
C638   C1072   1.415   .     S
C639   N647    1.366   .     A
C639   H645    1.082   .     S
C639   C1069   1.415   .     S
C640   N648    1.366   .     A
C640   H646    1.082   .     S
N647   Zn657   2.007   .     S
N648   Zn658   2.007   .     S
O649   Zn657   1.987   .     S
O650   Zn658   1.987   .     S
O651   Zn658   1.992   .     S
O652   Zn657   1.992   .     S
O653   Zn657   1.998   .     S
O654   Zn658   1.998   .     S
O655   Zn658   2.013   .     S
O656   Zn657   2.013   .     S
C659   N660    1.158   .     T
C659   C677    1.460   .     S
C661   N662    1.158   .     T
S663   O666    1.681   .     S
S663   O665    1.504   .     D
S663   O664    1.501   .     D
O666   H667    0.990   .     S
S668   O671    1.681   .     S
S668   O670    1.504   .     D
S668   O669    1.502   .     D
O671   H672    0.991   .     S
C673   O697    1.280   .     A
C673   C684    1.411   .     S
C673   O699    1.279   .     A
C674   O700    1.279   .     A
C674   O698    1.281   .     A
C674   C683    1.412   .     S
C675   O703    1.286   .     A
C675   O701    1.271   .     A
C675   C677    1.411   .     S
C676   O704    1.285   .     A
C676   C678    1.410   .     S
C676   O702    1.272   .     A
C678   C581    1.364   1_655 S
C678   C613    1.461   1_655 S
C679   C684    1.405   .     A
C679   S711    1.772   .     S
C680   C683    1.406   .     A
C680   S716    1.771   .     S
C680   C826    1.377   .     S
C681   C683    1.393   .     A
C681   H689    1.085   .     S
C681   C823    1.377   .     S
C682   C684    1.393   .     A
C682   H690    1.084   .     S
C685   H691    1.082   .     S
C685   N696    1.366   .     A
C686   N695    1.366   .     A
C686   H692    1.082   .     S
C686   C1120   1.415   .     S
C687   N695    1.366   .     A
C687   H693    1.082   .     S
C687   C1117   1.415   .     S
C688   N696    1.366   .     A
C688   H694    1.082   .     S
N695   Zn705   2.007   .     S
N696   Zn706   2.007   .     S
O697   Zn705   1.987   .     S
O698   Zn706   1.987   .     S
O699   Zn706   1.992   .     S
O700   Zn705   1.992   .     S
O701   Zn705   1.998   .     S
O702   Zn706   1.998   .     S
O703   Zn706   2.013   .     S
O704   Zn705   2.013   .     S
C707   N708    1.158   .     T
C707   C581    1.460   1_655 S
C709   N710    1.158   .     T
S711   O714    1.681   .     S
S711   O713    1.504   .     D
S711   O712    1.501   .     D
O714   H715    0.990   .     S
S716   O719    1.681   .     S
S716   O718    1.504   .     D
S716   O717    1.502   .     D
O719   H720    0.991   .     S
C721   O745    1.280   .     A
C721   C732    1.411   .     S
C721   O747    1.279   .     A
C722   O748    1.279   .     A
C722   O746    1.281   .     A
C722   C731    1.412   .     S
C723   O751    1.286   .     A
C723   O749    1.271   .     A
C723   C725    1.411   .     S
C724   O752    1.285   .     A
C724   C726    1.410   .     S
C724   O750    1.272   .     A
C725   C822    1.364   1_455 S
C725   C851    1.460   1_455 S
C726   C773    1.364   .     S
C726   C805    1.461   .     S
C727   C732    1.405   .     A
C727   S759    1.772   .     S
C728   C731    1.406   .     A
C728   S764    1.771   .     S
C728   C442    1.377   1_565 S
C729   C731    1.393   .     A
C729   H737    1.085   .     S
C729   C439    1.377   1_565 S
C730   C732    1.393   .     A
C730   H738    1.084   .     S
C733   H739    1.082   .     S
C733   N744    1.366   .     A
C734   N743    1.366   .     A
C734   H740    1.082   .     S
C734   C1168   1.415   .     S
C735   N743    1.366   .     A
C735   H741    1.082   .     S
C735   C1165   1.415   .     S
C736   N744    1.366   .     A
C736   H742    1.082   .     S
N743   Zn753   2.007   .     S
N744   Zn754   2.007   .     S
O745   Zn753   1.987   .     S
O746   Zn754   1.987   .     S
O747   Zn754   1.992   .     S
O748   Zn753   1.992   .     S
O749   Zn753   1.998   .     S
O750   Zn754   1.998   .     S
O751   Zn754   2.013   .     S
O752   Zn753   2.013   .     S
C755   N756    1.158   .     T
C755   C773    1.460   .     S
C757   N758    1.158   .     T
C757   C822    1.461   1_455 S
S759   O762    1.681   .     S
S759   O761    1.504   .     D
S759   O760    1.501   .     D
O762   H763    0.990   .     S
S764   O767    1.681   .     S
S764   O766    1.504   .     D
S764   O765    1.502   .     D
O767   H768    0.991   .     S
C769   O793    1.280   .     A
C769   C780    1.411   .     S
C769   O795    1.279   .     A
C770   O796    1.279   .     A
C770   O794    1.281   .     A
C770   C779    1.412   .     S
C771   O799    1.286   .     A
C771   O797    1.271   .     A
C771   C773    1.411   .     S
C772   O800    1.285   .     A
C772   C774    1.410   .     S
C772   O798    1.272   .     A
C774   C821    1.364   .     S
C774   C853    1.461   .     S
C775   C780    1.405   .     A
C775   S807    1.772   .     S
C776   C779    1.406   .     A
C776   S812    1.771   .     S
C776   C490    1.377   1_565 S
C777   C779    1.393   .     A
C777   H785    1.085   .     S
C777   C487    1.377   1_565 S
C778   C780    1.393   .     A
C778   H786    1.084   .     S
C781   H787    1.082   .     S
C781   N792    1.366   .     A
C782   N791    1.366   .     A
C782   H788    1.082   .     S
C782   C1216   1.415   .     S
C783   N791    1.366   .     A
C783   H789    1.082   .     S
C783   C1213   1.415   .     S
C784   N792    1.366   .     A
C784   H790    1.082   .     S
N791   Zn801   2.007   .     S
N792   Zn802   2.007   .     S
O793   Zn801   1.987   .     S
O794   Zn802   1.987   .     S
O795   Zn802   1.992   .     S
O796   Zn801   1.992   .     S
O797   Zn801   1.998   .     S
O798   Zn802   1.998   .     S
O799   Zn802   2.013   .     S
O800   Zn801   2.013   .     S
C803   N804    1.158   .     T
C803   C821    1.460   .     S
C805   N806    1.158   .     T
S807   O810    1.681   .     S
S807   O809    1.504   .     D
S807   O808    1.501   .     D
O810   H811    0.990   .     S
S812   O815    1.681   .     S
S812   O814    1.504   .     D
S812   O813    1.502   .     D
O815   H816    0.991   .     S
C817   O841    1.280   .     A
C817   C828    1.411   .     S
C817   O843    1.279   .     A
C818   O844    1.279   .     A
C818   O842    1.281   .     A
C818   C827    1.412   .     S
C819   O847    1.286   .     A
C819   O845    1.271   .     A
C819   C821    1.411   .     S
C820   O848    1.285   .     A
C820   C822    1.410   .     S
C820   O846    1.272   .     A
C822   C725    1.364   1_655 S
C822   C757    1.461   1_655 S
C823   C828    1.405   .     A
C823   S855    1.772   .     S
C824   C827    1.406   .     A
C824   S860    1.771   .     S
C824   C538    1.377   1_565 S
C825   C827    1.393   .     A
C825   H833    1.085   .     S
C825   C535    1.377   1_565 S
C826   C828    1.393   .     A
C826   H834    1.084   .     S
C829   H835    1.082   .     S
C829   N840    1.366   .     A
C830   N839    1.366   .     A
C830   H836    1.082   .     S
C830   C1264   1.415   .     S
C831   N839    1.366   .     A
C831   H837    1.082   .     S
C831   C1261   1.415   .     S
C832   N840    1.366   .     A
C832   H838    1.082   .     S
N839   Zn849   2.007   .     S
N840   Zn850   2.007   .     S
O841   Zn849   1.987   .     S
O842   Zn850   1.987   .     S
O843   Zn850   1.992   .     S
O844   Zn849   1.992   .     S
O845   Zn849   1.998   .     S
O846   Zn850   1.998   .     S
O847   Zn850   2.013   .     S
O848   Zn849   2.013   .     S
C851   N852    1.158   .     T
C851   C725    1.460   1_655 S
C853   N854    1.158   .     T
S855   O858    1.681   .     S
S855   O857    1.504   .     D
S855   O856    1.501   .     D
O858   H859    0.990   .     S
S860   O863    1.681   .     S
S860   O862    1.504   .     D
S860   O861    1.502   .     D
O863   H864    0.991   .     S
C865   O889    1.280   .     A
C865   C876    1.411   .     S
C865   O891    1.279   .     A
C866   O892    1.279   .     A
C866   O890    1.281   .     A
C866   C875    1.412   .     S
C867   O895    1.286   .     A
C867   O893    1.271   .     A
C867   C869    1.411   .     S
C868   O896    1.285   .     A
C868   C870    1.410   .     S
C868   O894    1.272   .     A
C869   C966    1.364   1_455 S
C869   C995    1.460   1_455 S
C870   C917    1.364   .     S
C870   C949    1.461   .     S
C871   C876    1.405   .     A
C871   S903    1.772   .     S
C871   C1161   1.377   1_545 S
C872   C875    1.406   .     A
C872   S908    1.771   .     S
C872   C1018   1.377   .     S
C873   C875    1.393   .     A
C873   H881    1.085   .     S
C873   C1015   1.377   .     S
C874   C876    1.393   .     A
C874   H882    1.084   .     S
C874   C1160   1.377   1_545 S
C877   H883    1.082   .     S
C877   N888    1.366   .     A
C878   N887    1.366   .     A
C878   H884    1.082   .     S
C878   C16     1.415   1_556 S
C879   N887    1.366   .     A
C879   H885    1.082   .     S
C879   C13     1.415   1_556 S
C880   N888    1.366   .     A
C880   H886    1.082   .     S
N887   Zn897   2.007   .     S
N888   Zn898   2.007   .     S
O889   Zn897   1.987   .     S
O890   Zn898   1.987   .     S
O891   Zn898   1.992   .     S
O892   Zn897   1.992   .     S
O893   Zn897   1.998   .     S
O894   Zn898   1.998   .     S
O895   Zn898   2.013   .     S
O896   Zn897   2.013   .     S
C899   N900    1.158   .     T
C899   C917    1.460   .     S
C901   N902    1.158   .     T
C901   C966    1.461   1_455 S
S903   O906    1.681   .     S
S903   O905    1.504   .     D
S903   O904    1.501   .     D
O906   H907    0.990   .     S
S908   O911    1.681   .     S
S908   O910    1.504   .     D
S908   O909    1.502   .     D
O911   H912    0.991   .     S
C913   O937    1.280   .     A
C913   C924    1.411   .     S
C913   O939    1.279   .     A
C914   O940    1.279   .     A
C914   O938    1.281   .     A
C914   C923    1.412   .     S
C915   O943    1.286   .     A
C915   O941    1.271   .     A
C915   C917    1.411   .     S
C916   O944    1.285   .     A
C916   C918    1.410   .     S
C916   O942    1.272   .     A
C918   C965    1.364   .     S
C918   C997    1.461   .     S
C919   C924    1.405   .     A
C919   S951    1.772   .     S
C919   C1209   1.377   1_545 S
C920   C923    1.406   .     A
C920   S956    1.771   .     S
C920   C1066   1.377   .     S
C921   C923    1.393   .     A
C921   H929    1.085   .     S
C921   C1063   1.377   .     S
C922   C924    1.393   .     A
C922   H930    1.084   .     S
C922   C1208   1.377   1_545 S
C925   H931    1.082   .     S
C925   N936    1.366   .     A
C926   N935    1.366   .     A
C926   H932    1.082   .     S
C926   C64     1.415   1_556 S
C927   N935    1.366   .     A
C927   H933    1.082   .     S
C927   C61     1.415   1_556 S
C928   N936    1.366   .     A
C928   H934    1.082   .     S
N935   Zn945   2.007   .     S
N936   Zn946   2.007   .     S
O937   Zn945   1.987   .     S
O938   Zn946   1.987   .     S
O939   Zn946   1.992   .     S
O940   Zn945   1.992   .     S
O941   Zn945   1.998   .     S
O942   Zn946   1.998   .     S
O943   Zn946   2.013   .     S
O944   Zn945   2.013   .     S
C947   N948    1.158   .     T
C947   C965    1.460   .     S
C949   N950    1.158   .     T
S951   O954    1.681   .     S
S951   O953    1.504   .     D
S951   O952    1.501   .     D
O954   H955    0.990   .     S
S956   O959    1.681   .     S
S956   O958    1.504   .     D
S956   O957    1.502   .     D
O959   H960    0.991   .     S
C961   O985    1.280   .     A
C961   C972    1.411   .     S
C961   O987    1.279   .     A
C962   O988    1.279   .     A
C962   O986    1.281   .     A
C962   C971    1.412   .     S
C963   O991    1.286   .     A
C963   O989    1.271   .     A
C963   C965    1.411   .     S
C964   O992    1.285   .     A
C964   C966    1.410   .     S
C964   O990    1.272   .     A
C966   C869    1.364   1_655 S
C966   C901    1.461   1_655 S
C967   C972    1.405   .     A
C967   S999    1.772   .     S
C967   C1257   1.377   1_545 S
C968   C971    1.406   .     A
C968   S1004   1.771   .     S
C968   C1114   1.377   .     S
C969   C971    1.393   .     A
C969   H977    1.085   .     S
C969   C1111   1.377   .     S
C970   C972    1.393   .     A
C970   H978    1.084   .     S
C970   C1256   1.377   1_545 S
C973   H979    1.082   .     S
C973   N984    1.366   .     A
C974   N983    1.366   .     A
C974   H980    1.082   .     S
C974   C112    1.415   1_556 S
C975   N983    1.366   .     A
C975   H981    1.082   .     S
C975   C109    1.415   1_556 S
C976   N984    1.366   .     A
C976   H982    1.082   .     S
N983   Zn993   2.007   .     S
N984   Zn994   2.007   .     S
O985   Zn993   1.987   .     S
O986   Zn994   1.987   .     S
O987   Zn994   1.992   .     S
O988   Zn993   1.992   .     S
O989   Zn993   1.998   .     S
O990   Zn994   1.998   .     S
O991   Zn994   2.013   .     S
O992   Zn993   2.013   .     S
C995   N996    1.158   .     T
C995   C869    1.460   1_655 S
C997   N998    1.158   .     T
S999   O1002   1.681   .     S
S999   O1001   1.504   .     D
S999   O1000   1.501   .     D
O1002  H1003   0.990   .     S
S1004  O1007   1.681   .     S
S1004  O1006   1.504   .     D
S1004  O1005   1.502   .     D
O1007  H1008   0.991   .     S
C1009  O1033   1.280   .     A
C1009  C1020   1.411   .     S
C1009  O1035   1.279   .     A
C1010  O1036   1.279   .     A
C1010  O1034   1.281   .     A
C1010  C1019   1.412   .     S
C1011  O1039   1.286   .     A
C1011  O1037   1.271   .     A
C1011  C1013   1.411   .     S
C1012  O1040   1.285   .     A
C1012  C1014   1.410   .     S
C1012  O1038   1.272   .     A
C1013  C1110   1.364   1_455 S
C1013  C1139   1.460   1_455 S
C1014  C1061   1.364   .     S
C1014  C1093   1.461   .     S
C1015  C1020   1.405   .     A
C1015  S1047   1.772   .     S
C1016  C1019   1.406   .     A
C1016  S1052   1.771   .     S
C1016  C1162   1.377   .     S
C1017  C1019   1.393   .     A
C1017  H1025   1.085   .     S
C1017  C1159   1.377   .     S
C1018  C1020   1.393   .     A
C1018  H1026   1.084   .     S
C1021  H1027   1.082   .     S
C1021  N1032   1.366   .     A
C1022  N1031   1.366   .     A
C1022  H1028   1.082   .     S
C1022  C160    1.415   1_556 S
C1023  N1031   1.366   .     A
C1023  H1029   1.082   .     S
C1023  C157    1.415   1_556 S
C1024  N1032   1.366   .     A
C1024  H1030   1.082   .     S
N1031  Zn1041  2.007   .     S
N1032  Zn1042  2.007   .     S
O1033  Zn1041  1.987   .     S
O1034  Zn1042  1.987   .     S
O1035  Zn1042  1.992   .     S
O1036  Zn1041  1.992   .     S
O1037  Zn1041  1.998   .     S
O1038  Zn1042  1.998   .     S
O1039  Zn1042  2.013   .     S
O1040  Zn1041  2.013   .     S
C1043  N1044   1.158   .     T
C1043  C1061   1.460   .     S
C1045  N1046   1.158   .     T
C1045  C1110   1.461   1_455 S
S1047  O1050   1.681   .     S
S1047  O1049   1.504   .     D
S1047  O1048   1.501   .     D
O1050  H1051   0.990   .     S
S1052  O1055   1.681   .     S
S1052  O1054   1.504   .     D
S1052  O1053   1.502   .     D
O1055  H1056   0.991   .     S
C1057  O1081   1.280   .     A
C1057  C1068   1.411   .     S
C1057  O1083   1.279   .     A
C1058  O1084   1.279   .     A
C1058  O1082   1.281   .     A
C1058  C1067   1.412   .     S
C1059  O1087   1.286   .     A
C1059  O1085   1.271   .     A
C1059  C1061   1.411   .     S
C1060  O1088   1.285   .     A
C1060  C1062   1.410   .     S
C1060  O1086   1.272   .     A
C1062  C1109   1.364   .     S
C1062  C1141   1.461   .     S
C1063  C1068   1.405   .     A
C1063  S1095   1.772   .     S
C1064  C1067   1.406   .     A
C1064  S1100   1.771   .     S
C1064  C1210   1.377   .     S
C1065  C1067   1.393   .     A
C1065  H1073   1.085   .     S
C1065  C1207   1.377   .     S
C1066  C1068   1.393   .     A
C1066  H1074   1.084   .     S
C1069  H1075   1.082   .     S
C1069  N1080   1.366   .     A
C1070  N1079   1.366   .     A
C1070  H1076   1.082   .     S
C1070  C208    1.415   1_556 S
C1071  N1079   1.366   .     A
C1071  H1077   1.082   .     S
C1071  C205    1.415   1_556 S
C1072  N1080   1.366   .     A
C1072  H1078   1.082   .     S
N1079  Zn1089  2.007   .     S
N1080  Zn1090  2.007   .     S
O1081  Zn1089  1.987   .     S
O1082  Zn1090  1.987   .     S
O1083  Zn1090  1.992   .     S
O1084  Zn1089  1.992   .     S
O1085  Zn1089  1.998   .     S
O1086  Zn1090  1.998   .     S
O1087  Zn1090  2.013   .     S
O1088  Zn1089  2.013   .     S
C1091  N1092   1.158   .     T
C1091  C1109   1.460   .     S
C1093  N1094   1.158   .     T
S1095  O1098   1.681   .     S
S1095  O1097   1.504   .     D
S1095  O1096   1.501   .     D
O1098  H1099   0.990   .     S
S1100  O1103   1.681   .     S
S1100  O1102   1.504   .     D
S1100  O1101   1.502   .     D
O1103  H1104   0.991   .     S
C1105  O1129   1.280   .     A
C1105  C1116   1.411   .     S
C1105  O1131   1.279   .     A
C1106  O1132   1.279   .     A
C1106  O1130   1.281   .     A
C1106  C1115   1.412   .     S
C1107  O1135   1.286   .     A
C1107  O1133   1.271   .     A
C1107  C1109   1.411   .     S
C1108  O1136   1.285   .     A
C1108  C1110   1.410   .     S
C1108  O1134   1.272   .     A
C1110  C1013   1.364   1_655 S
C1110  C1045   1.461   1_655 S
C1111  C1116   1.405   .     A
C1111  S1143   1.772   .     S
C1112  C1115   1.406   .     A
C1112  S1148   1.771   .     S
C1112  C1258   1.377   .     S
C1113  C1115   1.393   .     A
C1113  H1121   1.085   .     S
C1113  C1255   1.377   .     S
C1114  C1116   1.393   .     A
C1114  H1122   1.084   .     S
C1117  H1123   1.082   .     S
C1117  N1128   1.366   .     A
C1118  N1127   1.366   .     A
C1118  H1124   1.082   .     S
C1118  C256    1.415   1_556 S
C1119  N1127   1.366   .     A
C1119  H1125   1.082   .     S
C1119  C253    1.415   1_556 S
C1120  N1128   1.366   .     A
C1120  H1126   1.082   .     S
N1127  Zn1137  2.007   .     S
N1128  Zn1138  2.007   .     S
O1129  Zn1137  1.987   .     S
O1130  Zn1138  1.987   .     S
O1131  Zn1138  1.992   .     S
O1132  Zn1137  1.992   .     S
O1133  Zn1137  1.998   .     S
O1134  Zn1138  1.998   .     S
O1135  Zn1138  2.013   .     S
O1136  Zn1137  2.013   .     S
C1139  N1140   1.158   .     T
C1139  C1013   1.460   1_655 S
C1141  N1142   1.158   .     T
S1143  O1146   1.681   .     S
S1143  O1145   1.504   .     D
S1143  O1144   1.501   .     D
O1146  H1147   0.990   .     S
S1148  O1151   1.681   .     S
S1148  O1150   1.504   .     D
S1148  O1149   1.502   .     D
O1151  H1152   0.991   .     S
C1153  O1177   1.280   .     A
C1153  C1164   1.411   .     S
C1153  O1179   1.279   .     A
C1154  O1180   1.279   .     A
C1154  O1178   1.281   .     A
C1154  C1163   1.412   .     S
C1155  O1183   1.286   .     A
C1155  O1181   1.271   .     A
C1155  C1157   1.411   .     S
C1156  O1184   1.285   .     A
C1156  C1158   1.410   .     S
C1156  O1182   1.272   .     A
C1157  C1254   1.364   1_455 S
C1157  C1283   1.460   1_455 S
C1158  C1205   1.364   .     S
C1158  C1237   1.461   .     S
C1159  C1164   1.405   .     A
C1159  S1191   1.772   .     S
C1160  C1163   1.406   .     A
C1160  S1196   1.771   .     S
C1160  C874    1.377   1_565 S
C1161  C1163   1.393   .     A
C1161  H1169   1.085   .     S
C1161  C871    1.377   1_565 S
C1162  C1164   1.393   .     A
C1162  H1170   1.084   .     S
C1165  H1171   1.082   .     S
C1165  N1176   1.366   .     A
C1166  N1175   1.366   .     A
C1166  H1172   1.082   .     S
C1166  C304    1.415   1_556 S
C1167  N1175   1.366   .     A
C1167  H1173   1.082   .     S
C1167  C301    1.415   1_556 S
C1168  N1176   1.366   .     A
C1168  H1174   1.082   .     S
N1175  Zn1185  2.007   .     S
N1176  Zn1186  2.007   .     S
O1177  Zn1185  1.987   .     S
O1178  Zn1186  1.987   .     S
O1179  Zn1186  1.992   .     S
O1180  Zn1185  1.992   .     S
O1181  Zn1185  1.998   .     S
O1182  Zn1186  1.998   .     S
O1183  Zn1186  2.013   .     S
O1184  Zn1185  2.013   .     S
C1187  N1188   1.158   .     T
C1187  C1205   1.460   .     S
C1189  N1190   1.158   .     T
C1189  C1254   1.461   1_455 S
S1191  O1194   1.681   .     S
S1191  O1193   1.504   .     D
S1191  O1192   1.501   .     D
O1194  H1195   0.990   .     S
S1196  O1199   1.681   .     S
S1196  O1198   1.504   .     D
S1196  O1197   1.502   .     D
O1199  H1200   0.991   .     S
C1201  O1225   1.280   .     A
C1201  C1212   1.411   .     S
C1201  O1227   1.279   .     A
C1202  O1228   1.279   .     A
C1202  O1226   1.281   .     A
C1202  C1211   1.412   .     S
C1203  O1231   1.286   .     A
C1203  O1229   1.271   .     A
C1203  C1205   1.411   .     S
C1204  O1232   1.285   .     A
C1204  C1206   1.410   .     S
C1204  O1230   1.272   .     A
C1206  C1253   1.364   .     S
C1206  C1285   1.461   .     S
C1207  C1212   1.405   .     A
C1207  S1239   1.772   .     S
C1208  C1211   1.406   .     A
C1208  S1244   1.771   .     S
C1208  C922    1.377   1_565 S
C1209  C1211   1.393   .     A
C1209  H1217   1.085   .     S
C1209  C919    1.377   1_565 S
C1210  C1212   1.393   .     A
C1210  H1218   1.084   .     S
C1213  H1219   1.082   .     S
C1213  N1224   1.366   .     A
C1214  N1223   1.366   .     A
C1214  H1220   1.082   .     S
C1214  C352    1.415   1_556 S
C1215  N1223   1.366   .     A
C1215  H1221   1.082   .     S
C1215  C349    1.415   1_556 S
C1216  N1224   1.366   .     A
C1216  H1222   1.082   .     S
N1223  Zn1233  2.007   .     S
N1224  Zn1234  2.007   .     S
O1225  Zn1233  1.987   .     S
O1226  Zn1234  1.987   .     S
O1227  Zn1234  1.992   .     S
O1228  Zn1233  1.992   .     S
O1229  Zn1233  1.998   .     S
O1230  Zn1234  1.998   .     S
O1231  Zn1234  2.013   .     S
O1232  Zn1233  2.013   .     S
C1235  N1236   1.158   .     T
C1235  C1253   1.460   .     S
C1237  N1238   1.158   .     T
S1239  O1242   1.681   .     S
S1239  O1241   1.504   .     D
S1239  O1240   1.501   .     D
O1242  H1243   0.990   .     S
S1244  O1247   1.681   .     S
S1244  O1246   1.504   .     D
S1244  O1245   1.502   .     D
O1247  H1248   0.991   .     S
C1249  O1273   1.280   .     A
C1249  C1260   1.411   .     S
C1249  O1275   1.279   .     A
C1250  O1276   1.279   .     A
C1250  O1274   1.281   .     A
C1250  C1259   1.412   .     S
C1251  O1279   1.286   .     A
C1251  O1277   1.271   .     A
C1251  C1253   1.411   .     S
C1252  O1280   1.285   .     A
C1252  C1254   1.410   .     S
C1252  O1278   1.272   .     A
C1254  C1157   1.364   1_655 S
C1254  C1189   1.461   1_655 S
C1255  C1260   1.405   .     A
C1255  S1287   1.772   .     S
C1256  C1259   1.406   .     A
C1256  S1292   1.771   .     S
C1256  C970    1.377   1_565 S
C1257  C1259   1.393   .     A
C1257  H1265   1.085   .     S
C1257  C967    1.377   1_565 S
C1258  C1260   1.393   .     A
C1258  H1266   1.084   .     S
C1261  H1267   1.082   .     S
C1261  N1272   1.366   .     A
C1262  N1271   1.366   .     A
C1262  H1268   1.082   .     S
C1262  C400    1.415   1_556 S
C1263  N1271   1.366   .     A
C1263  H1269   1.082   .     S
C1263  C397    1.415   1_556 S
C1264  N1272   1.366   .     A
C1264  H1270   1.082   .     S
N1271  Zn1281  2.007   .     S
N1272  Zn1282  2.007   .     S
O1273  Zn1281  1.987   .     S
O1274  Zn1282  1.987   .     S
O1275  Zn1282  1.992   .     S
O1276  Zn1281  1.992   .     S
O1277  Zn1281  1.998   .     S
O1278  Zn1282  1.998   .     S
O1279  Zn1282  2.013   .     S
O1280  Zn1281  2.013   .     S
C1283  N1284   1.158   .     T
C1283  C1157   1.460   1_655 S
C1285  N1286   1.158   .     T
S1287  O1290   1.681   .     S
S1287  O1289   1.504   .     D
S1287  O1288   1.501   .     D
O1290  H1291   0.990   .     S
S1292  O1295   1.681   .     S
S1292  O1294   1.504   .     D
S1292  O1293   1.502   .     D
O1295  H1296   0.991   .     S
