data_str_m3_o1_o16_pcu_sym.110
_audit_creation_date              2020-01-03
_audit_creation_method            'Materials Studio'
_symmetry_space_group_name_H-M    'P1'
_symmetry_Int_Tables_number       1
_symmetry_cell_setting            triclinic
loop_
_symmetry_equiv_pos_as_xyz
  x,y,z
_cell_length_a                    29.5473
_cell_length_b                    31.9871
_cell_length_c                    26.2071
_cell_angle_alpha                 89.6531
_cell_angle_beta                  69.9481
_cell_angle_gamma                 89.9441
loop_
_atom_site_label
_atom_site_type_symbol
_atom_site_fract_x
_atom_site_fract_y
_atom_site_fract_z
_atom_site_U_iso_or_equiv
_atom_site_adp_type
_atom_site_occupancy
C1     C     0.16728   0.24666   0.24773   0.00000  Uiso   1.00
C2     C     0.14297   0.15540   0.49281   0.00000  Uiso   1.00
C3     C     0.15261   0.14488   0.43818   0.00000  Uiso   1.00
C4     C     0.17989   0.14935   0.01508   0.00000  Uiso   1.00
C5     C     0.22210   0.12612   0.48670   0.00000  Uiso   1.00
C6     C     0.22647   0.10967   0.43581   0.00000  Uiso   1.00
C7     C     0.19249   0.11914   0.41179   0.00000  Uiso   1.00
C8     C     0.17628   0.16740   0.06427   0.00000  Uiso   1.00
C9     C     0.25076   0.13551   0.06265   0.00000  Uiso   1.00
C10    C     0.12240   0.16101   0.41120   0.00000  Uiso   1.00
C11    C     0.18771   0.31135   0.28021   0.00000  Uiso   1.00
C12    C     0.13995   0.16453   0.35214   0.00000  Uiso   1.00
C13    C     0.18768   0.02085   0.28154   0.00000  Uiso   1.00
C14    C     0.16674   0.04275   0.24942   0.00000  Uiso   1.00
C15    C     0.14692   0.02285   0.21495   0.00000  Uiso   1.00
C16    C     0.14806   0.31319   0.21176   0.00000  Uiso   1.00
C17    C     0.16769   0.29094   0.24595   0.00000  Uiso   1.00
C18    C     0.32071   0.14395   0.21268   0.00000  Uiso   1.00
C19    C     0.03531   0.14394   0.21271   0.00000  Uiso   1.00
C20    C     0.01261   0.18937   0.28734   0.00000  Uiso   1.00
C21    C     0.29802   0.18938   0.28731   0.00000  Uiso   1.00
C22    C     0.16650   0.08674   0.25053   0.00000  Uiso   1.00
C23    C     0.19336   0.16578   0.14778   0.00000  Uiso   1.00
C24    C     0.25823   0.11987   0.01053   0.00000  Uiso   1.00
C25    C     0.20922   0.15838   0.08965   0.00000  Uiso   1.00
C26    C     0.07782   0.17874   0.44103   0.00000  Uiso   1.00
C27    C     0.06447   0.18261   0.49696   0.00000  Uiso   1.00
C28    C     0.09698   0.17199   0.02276   0.00000  Uiso   1.00
H29    H     0.27606   0.12843   0.08315   0.00000  Uiso   1.00
H30    H     0.20302   0.03685   0.30816   0.00000  Uiso   1.00
H31    H     0.13219   0.04112   0.18937   0.00000  Uiso   1.00
H32    H     0.31165   0.12579   0.18283   0.00000  Uiso   1.00
H33    H     0.06250   0.12571   0.18288   0.00000  Uiso   1.00
H34    H     0.02168   0.20753   0.31718   0.00000  Uiso   1.00
H35    H     0.27083   0.20762   0.31712   0.00000  Uiso   1.00
H36    H     0.25649   0.09023   0.41330   0.00000  Uiso   1.00
H37    H     0.14676   0.18790   0.08487   0.00000  Uiso   1.00
H38    H     0.05380   0.19047   0.42097   0.00000  Uiso   1.00
H39    H     0.08479   0.17611   0.06622   0.00000  Uiso   1.00
H40    H     0.02961   0.19547   0.02014   0.00000  Uiso   1.00
H41    H     0.19754   0.10566   0.37245   0.00000  Uiso   1.00
H42    H     0.20282   0.29410   0.30631   0.00000  Uiso   1.00
N43    N     0.04760   0.16668   0.25001   0.00000  Uiso   1.00
N44    N     0.28573   0.16665   0.25001   0.00000  Uiso   1.00
O45    O     0.12846   0.22775   0.25000   0.00000  Uiso   1.00
O46    O     0.20490   0.22774   0.25001   0.00000  Uiso   1.00
O47    O     0.10947   0.16666   0.32681   0.00000  Uiso   1.00
O48    O     0.18591   0.16665   0.32681   0.00000  Uiso   1.00
O49    O     0.12843   0.10559   0.24999   0.00000  Uiso   1.00
O50    O     0.20488   0.10558   0.25000   0.00000  Uiso   1.00
O51    O     0.14742   0.16668   0.17319   0.00000  Uiso   1.00
O52    O     0.22387   0.16667   0.17319   0.00000  Uiso   1.00
Zn53   Zn    0.11562   0.16667   0.25000   0.00000  Uiso   1.00
Zn54   Zn    0.21771   0.16666   0.25000   0.00000  Uiso   1.00
S55    S     0.12996   0.28925   0.16094   0.00000  Uiso   1.00
O56    O     0.08439   0.26465   0.18647   0.00000  Uiso   1.00
O57    O     0.12117   0.32187   0.12379   0.00000  Uiso   1.00
O58    O     0.17412   0.25705   0.12470   0.00000  Uiso   1.00
H59    H     0.17820   0.26262   0.08616   0.00000  Uiso   1.00
S60    S     0.31169   0.09124   0.47783   0.00000  Uiso   1.00
O61    O     0.00469   0.11074   0.42336   0.00000  Uiso   1.00
O62    O     0.01066   0.09102   0.01140   0.00000  Uiso   1.00
O63    O     0.29687   0.04175   0.46894   0.00000  Uiso   1.00
H64    H     0.32769   0.02828   0.44754   0.00000  Uiso   1.00
C65    C     0.50062   0.24666   0.24773   0.00000  Uiso   1.00
C66    C     0.47630   0.15540   0.49281   0.00000  Uiso   1.00
C67    C     0.48594   0.14488   0.43818   0.00000  Uiso   1.00
C68    C     0.51323   0.14935   0.01508   0.00000  Uiso   1.00
C69    C     0.55544   0.12612   0.48670   0.00000  Uiso   1.00
C70    C     0.55980   0.10967   0.43581   0.00000  Uiso   1.00
C71    C     0.52582   0.11914   0.41179   0.00000  Uiso   1.00
C72    C     0.50962   0.16740   0.06427   0.00000  Uiso   1.00
C73    C     0.58409   0.13551   0.06265   0.00000  Uiso   1.00
C74    C     0.45573   0.16101   0.41120   0.00000  Uiso   1.00
C75    C     0.52105   0.31135   0.28021   0.00000  Uiso   1.00
C76    C     0.47328   0.16453   0.35214   0.00000  Uiso   1.00
C77    C     0.52102   0.02085   0.28154   0.00000  Uiso   1.00
C78    C     0.50008   0.04275   0.24942   0.00000  Uiso   1.00
C79    C     0.48025   0.02285   0.21495   0.00000  Uiso   1.00
C80    C     0.48140   0.31319   0.21176   0.00000  Uiso   1.00
C81    C     0.50103   0.29094   0.24595   0.00000  Uiso   1.00
C82    C     0.65405   0.14395   0.21268   0.00000  Uiso   1.00
C83    C     0.36865   0.14394   0.21271   0.00000  Uiso   1.00
C84    C     0.34595   0.18937   0.28734   0.00000  Uiso   1.00
C85    C     0.63135   0.18938   0.28731   0.00000  Uiso   1.00
C86    C     0.49984   0.08674   0.25053   0.00000  Uiso   1.00
C87    C     0.52669   0.16578   0.14778   0.00000  Uiso   1.00
C88    C     0.59156   0.11987   0.01053   0.00000  Uiso   1.00
C89    C     0.54256   0.15838   0.08965   0.00000  Uiso   1.00
C90    C     0.41115   0.17874   0.44103   0.00000  Uiso   1.00
C91    C     0.39780   0.18261   0.49696   0.00000  Uiso   1.00
C92    C     0.43031   0.17199   0.02276   0.00000  Uiso   1.00
H93    H     0.60939   0.12843   0.08315   0.00000  Uiso   1.00
H94    H     0.53635   0.03685   0.30816   0.00000  Uiso   1.00
H95    H     0.46552   0.04112   0.18937   0.00000  Uiso   1.00
H96    H     0.64499   0.12579   0.18283   0.00000  Uiso   1.00
H97    H     0.39584   0.12571   0.18288   0.00000  Uiso   1.00
H98    H     0.35502   0.20753   0.31718   0.00000  Uiso   1.00
H99    H     0.60417   0.20762   0.31712   0.00000  Uiso   1.00
H100   H     0.58983   0.09023   0.41330   0.00000  Uiso   1.00
H101   H     0.48009   0.18790   0.08487   0.00000  Uiso   1.00
H102   H     0.38713   0.19047   0.42097   0.00000  Uiso   1.00
H103   H     0.41812   0.17611   0.06622   0.00000  Uiso   1.00
H104   H     0.36294   0.19547   0.02014   0.00000  Uiso   1.00
H105   H     0.53088   0.10566   0.37245   0.00000  Uiso   1.00
H106   H     0.53615   0.29410   0.30631   0.00000  Uiso   1.00
N107   N     0.38093   0.16668   0.25001   0.00000  Uiso   1.00
N108   N     0.61906   0.16665   0.25001   0.00000  Uiso   1.00
O109   O     0.46179   0.22775   0.25000   0.00000  Uiso   1.00
O110   O     0.53823   0.22774   0.25001   0.00000  Uiso   1.00
O111   O     0.44280   0.16666   0.32681   0.00000  Uiso   1.00
O112   O     0.51924   0.16665   0.32681   0.00000  Uiso   1.00
O113   O     0.46177   0.10559   0.24999   0.00000  Uiso   1.00
O114   O     0.53821   0.10558   0.25000   0.00000  Uiso   1.00
O115   O     0.48076   0.16668   0.17319   0.00000  Uiso   1.00
O116   O     0.55720   0.16667   0.17319   0.00000  Uiso   1.00
Zn117  Zn    0.44896   0.16667   0.25000   0.00000  Uiso   1.00
Zn118  Zn    0.55104   0.16666   0.25000   0.00000  Uiso   1.00
S119   S     0.46329   0.28925   0.16094   0.00000  Uiso   1.00
O120   O     0.41772   0.26465   0.18647   0.00000  Uiso   1.00
O121   O     0.45451   0.32187   0.12379   0.00000  Uiso   1.00
O122   O     0.50745   0.25705   0.12470   0.00000  Uiso   1.00
H123   H     0.51153   0.26262   0.08616   0.00000  Uiso   1.00
S124   S     0.64503   0.09124   0.47783   0.00000  Uiso   1.00
O125   O     0.33802   0.11074   0.42336   0.00000  Uiso   1.00
O126   O     0.34400   0.09102   0.01140   0.00000  Uiso   1.00
O127   O     0.63021   0.04175   0.46894   0.00000  Uiso   1.00
H128   H     0.66102   0.02828   0.44754   0.00000  Uiso   1.00
C129   C     0.83395   0.24666   0.24773   0.00000  Uiso   1.00
C130   C     0.80964   0.15540   0.49281   0.00000  Uiso   1.00
C131   C     0.81928   0.14488   0.43818   0.00000  Uiso   1.00
C132   C     0.84656   0.14935   0.01508   0.00000  Uiso   1.00
C133   C     0.88877   0.12612   0.48670   0.00000  Uiso   1.00
C134   C     0.89313   0.10967   0.43581   0.00000  Uiso   1.00
C135   C     0.85915   0.11914   0.41179   0.00000  Uiso   1.00
C136   C     0.84295   0.16740   0.06427   0.00000  Uiso   1.00
C137   C     0.91742   0.13551   0.06265   0.00000  Uiso   1.00
C138   C     0.78906   0.16101   0.41120   0.00000  Uiso   1.00
C139   C     0.85438   0.31135   0.28021   0.00000  Uiso   1.00
C140   C     0.80661   0.16453   0.35214   0.00000  Uiso   1.00
C141   C     0.85435   0.02085   0.28154   0.00000  Uiso   1.00
C142   C     0.83341   0.04275   0.24942   0.00000  Uiso   1.00
C143   C     0.81358   0.02285   0.21495   0.00000  Uiso   1.00
C144   C     0.81473   0.31319   0.21176   0.00000  Uiso   1.00
C145   C     0.83436   0.29094   0.24595   0.00000  Uiso   1.00
C146   C     0.98738   0.14395   0.21268   0.00000  Uiso   1.00
C147   C     0.70198   0.14394   0.21271   0.00000  Uiso   1.00
C148   C     0.67928   0.18937   0.28734   0.00000  Uiso   1.00
C149   C     0.96468   0.18938   0.28731   0.00000  Uiso   1.00
C150   C     0.83317   0.08674   0.25053   0.00000  Uiso   1.00
C151   C     0.86003   0.16578   0.14778   0.00000  Uiso   1.00
C152   C     0.92490   0.11987   0.01053   0.00000  Uiso   1.00
C153   C     0.87589   0.15838   0.08965   0.00000  Uiso   1.00
C154   C     0.74448   0.17874   0.44103   0.00000  Uiso   1.00
C155   C     0.73114   0.18261   0.49696   0.00000  Uiso   1.00
C156   C     0.76364   0.17199   0.02276   0.00000  Uiso   1.00
H157   H     0.94272   0.12843   0.08315   0.00000  Uiso   1.00
H158   H     0.86968   0.03685   0.30816   0.00000  Uiso   1.00
H159   H     0.79885   0.04112   0.18937   0.00000  Uiso   1.00
H160   H     0.97832   0.12579   0.18283   0.00000  Uiso   1.00
H161   H     0.72917   0.12571   0.18288   0.00000  Uiso   1.00
H162   H     0.68835   0.20753   0.31718   0.00000  Uiso   1.00
H163   H     0.93750   0.20762   0.31712   0.00000  Uiso   1.00
H164   H     0.92316   0.09023   0.41330   0.00000  Uiso   1.00
H165   H     0.81342   0.18790   0.08487   0.00000  Uiso   1.00
H166   H     0.72047   0.19047   0.42097   0.00000  Uiso   1.00
H167   H     0.75145   0.17611   0.06622   0.00000  Uiso   1.00
H168   H     0.69627   0.19547   0.02014   0.00000  Uiso   1.00
H169   H     0.86421   0.10566   0.37245   0.00000  Uiso   1.00
H170   H     0.86948   0.29410   0.30631   0.00000  Uiso   1.00
N171   N     0.71426   0.16668   0.25001   0.00000  Uiso   1.00
N172   N     0.95239   0.16665   0.25001   0.00000  Uiso   1.00
O173   O     0.79512   0.22775   0.25000   0.00000  Uiso   1.00
O174   O     0.87157   0.22774   0.25001   0.00000  Uiso   1.00
O175   O     0.77613   0.16666   0.32681   0.00000  Uiso   1.00
O176   O     0.85258   0.16665   0.32681   0.00000  Uiso   1.00
O177   O     0.79510   0.10559   0.24999   0.00000  Uiso   1.00
O178   O     0.87154   0.10558   0.25000   0.00000  Uiso   1.00
O179   O     0.81409   0.16668   0.17319   0.00000  Uiso   1.00
O180   O     0.89053   0.16667   0.17319   0.00000  Uiso   1.00
Zn181  Zn    0.78229   0.16667   0.25000   0.00000  Uiso   1.00
Zn182  Zn    0.88438   0.16666   0.25000   0.00000  Uiso   1.00
S183   S     0.79662   0.28925   0.16094   0.00000  Uiso   1.00
O184   O     0.75106   0.26465   0.18647   0.00000  Uiso   1.00
O185   O     0.78784   0.32187   0.12379   0.00000  Uiso   1.00
O186   O     0.84079   0.25705   0.12470   0.00000  Uiso   1.00
H187   H     0.84487   0.26262   0.08616   0.00000  Uiso   1.00
S188   S     0.97836   0.09124   0.47783   0.00000  Uiso   1.00
O189   O     0.67136   0.11074   0.42336   0.00000  Uiso   1.00
O190   O     0.67733   0.09102   0.01140   0.00000  Uiso   1.00
O191   O     0.96354   0.04175   0.46894   0.00000  Uiso   1.00
H192   H     0.99436   0.02828   0.44754   0.00000  Uiso   1.00
C193   C     0.16728   0.57999   0.24773   0.00000  Uiso   1.00
C194   C     0.14297   0.48873   0.49281   0.00000  Uiso   1.00
C195   C     0.15261   0.47821   0.43818   0.00000  Uiso   1.00
C196   C     0.17989   0.48269   0.01508   0.00000  Uiso   1.00
C197   C     0.22210   0.45946   0.48670   0.00000  Uiso   1.00
C198   C     0.22647   0.44300   0.43581   0.00000  Uiso   1.00
C199   C     0.19249   0.45247   0.41179   0.00000  Uiso   1.00
C200   C     0.17628   0.50074   0.06427   0.00000  Uiso   1.00
C201   C     0.25076   0.46885   0.06265   0.00000  Uiso   1.00
C202   C     0.12240   0.49434   0.41120   0.00000  Uiso   1.00
C203   C     0.18771   0.64468   0.28021   0.00000  Uiso   1.00
C204   C     0.13995   0.49786   0.35214   0.00000  Uiso   1.00
C205   C     0.18768   0.35418   0.28154   0.00000  Uiso   1.00
C206   C     0.16674   0.37609   0.24942   0.00000  Uiso   1.00
C207   C     0.14692   0.35618   0.21495   0.00000  Uiso   1.00
C208   C     0.14806   0.64652   0.21176   0.00000  Uiso   1.00
C209   C     0.16769   0.62427   0.24595   0.00000  Uiso   1.00
C210   C     0.32071   0.47728   0.21268   0.00000  Uiso   1.00
C211   C     0.03531   0.47727   0.21271   0.00000  Uiso   1.00
C212   C     0.01261   0.52270   0.28734   0.00000  Uiso   1.00
C213   C     0.29802   0.52271   0.28731   0.00000  Uiso   1.00
C214   C     0.16650   0.42007   0.25053   0.00000  Uiso   1.00
C215   C     0.19336   0.49911   0.14778   0.00000  Uiso   1.00
C216   C     0.25823   0.45320   0.01053   0.00000  Uiso   1.00
C217   C     0.20922   0.49171   0.08965   0.00000  Uiso   1.00
C218   C     0.07782   0.51208   0.44103   0.00000  Uiso   1.00
C219   C     0.06447   0.51595   0.49696   0.00000  Uiso   1.00
C220   C     0.09698   0.50533   0.02276   0.00000  Uiso   1.00
H221   H     0.27606   0.46177   0.08315   0.00000  Uiso   1.00
H222   H     0.20302   0.37018   0.30816   0.00000  Uiso   1.00
H223   H     0.13219   0.37445   0.18937   0.00000  Uiso   1.00
H224   H     0.31165   0.45913   0.18283   0.00000  Uiso   1.00
H225   H     0.06250   0.45904   0.18288   0.00000  Uiso   1.00
H226   H     0.02168   0.54086   0.31718   0.00000  Uiso   1.00
H227   H     0.27083   0.54095   0.31712   0.00000  Uiso   1.00
H228   H     0.25649   0.42356   0.41330   0.00000  Uiso   1.00
H229   H     0.14676   0.52124   0.08487   0.00000  Uiso   1.00
H230   H     0.05380   0.52381   0.42097   0.00000  Uiso   1.00
H231   H     0.08479   0.50945   0.06622   0.00000  Uiso   1.00
H232   H     0.02961   0.52881   0.02014   0.00000  Uiso   1.00
H233   H     0.19754   0.43900   0.37245   0.00000  Uiso   1.00
H234   H     0.20282   0.62743   0.30631   0.00000  Uiso   1.00
N235   N     0.04760   0.50001   0.25001   0.00000  Uiso   1.00
N236   N     0.28573   0.49998   0.25001   0.00000  Uiso   1.00
O237   O     0.12846   0.56108   0.25000   0.00000  Uiso   1.00
O238   O     0.20490   0.56107   0.25001   0.00000  Uiso   1.00
O239   O     0.10947   0.50000   0.32681   0.00000  Uiso   1.00
O240   O     0.18591   0.49999   0.32681   0.00000  Uiso   1.00
O241   O     0.12843   0.43893   0.24999   0.00000  Uiso   1.00
O242   O     0.20488   0.43892   0.25000   0.00000  Uiso   1.00
O243   O     0.14742   0.50001   0.17319   0.00000  Uiso   1.00
O244   O     0.22387   0.50000   0.17319   0.00000  Uiso   1.00
Zn245  Zn    0.11562   0.50001   0.25000   0.00000  Uiso   1.00
Zn246  Zn    0.21771   0.49999   0.25000   0.00000  Uiso   1.00
S247   S     0.12996   0.62259   0.16094   0.00000  Uiso   1.00
O248   O     0.08439   0.59798   0.18647   0.00000  Uiso   1.00
O249   O     0.12117   0.65520   0.12379   0.00000  Uiso   1.00
O250   O     0.17412   0.59038   0.12470   0.00000  Uiso   1.00
H251   H     0.17820   0.59596   0.08616   0.00000  Uiso   1.00
S252   S     0.31169   0.42457   0.47783   0.00000  Uiso   1.00
O253   O     0.00469   0.44407   0.42336   0.00000  Uiso   1.00
O254   O     0.01066   0.42436   0.01140   0.00000  Uiso   1.00
O255   O     0.29687   0.37509   0.46894   0.00000  Uiso   1.00
H256   H     0.32769   0.36162   0.44754   0.00000  Uiso   1.00
C257   C     0.50062   0.57999   0.24773   0.00000  Uiso   1.00
C258   C     0.47630   0.48873   0.49281   0.00000  Uiso   1.00
C259   C     0.48594   0.47821   0.43818   0.00000  Uiso   1.00
C260   C     0.51323   0.48269   0.01508   0.00000  Uiso   1.00
C261   C     0.55544   0.45946   0.48670   0.00000  Uiso   1.00
C262   C     0.55980   0.44300   0.43581   0.00000  Uiso   1.00
C263   C     0.52582   0.45247   0.41179   0.00000  Uiso   1.00
C264   C     0.50962   0.50074   0.06427   0.00000  Uiso   1.00
C265   C     0.58409   0.46885   0.06265   0.00000  Uiso   1.00
C266   C     0.45573   0.49434   0.41120   0.00000  Uiso   1.00
C267   C     0.52105   0.64468   0.28021   0.00000  Uiso   1.00
C268   C     0.47328   0.49786   0.35214   0.00000  Uiso   1.00
C269   C     0.52102   0.35418   0.28154   0.00000  Uiso   1.00
C270   C     0.50008   0.37609   0.24942   0.00000  Uiso   1.00
C271   C     0.48025   0.35618   0.21495   0.00000  Uiso   1.00
C272   C     0.48140   0.64652   0.21176   0.00000  Uiso   1.00
C273   C     0.50103   0.62427   0.24595   0.00000  Uiso   1.00
C274   C     0.65405   0.47728   0.21268   0.00000  Uiso   1.00
C275   C     0.36865   0.47727   0.21271   0.00000  Uiso   1.00
C276   C     0.34595   0.52270   0.28734   0.00000  Uiso   1.00
C277   C     0.63135   0.52271   0.28731   0.00000  Uiso   1.00
C278   C     0.49984   0.42007   0.25053   0.00000  Uiso   1.00
C279   C     0.52669   0.49911   0.14778   0.00000  Uiso   1.00
C280   C     0.59156   0.45320   0.01053   0.00000  Uiso   1.00
C281   C     0.54256   0.49171   0.08965   0.00000  Uiso   1.00
C282   C     0.41115   0.51208   0.44103   0.00000  Uiso   1.00
C283   C     0.39780   0.51595   0.49696   0.00000  Uiso   1.00
C284   C     0.43031   0.50533   0.02276   0.00000  Uiso   1.00
H285   H     0.60939   0.46177   0.08315   0.00000  Uiso   1.00
H286   H     0.53635   0.37018   0.30816   0.00000  Uiso   1.00
H287   H     0.46552   0.37445   0.18937   0.00000  Uiso   1.00
H288   H     0.64499   0.45913   0.18283   0.00000  Uiso   1.00
H289   H     0.39584   0.45904   0.18288   0.00000  Uiso   1.00
H290   H     0.35502   0.54086   0.31718   0.00000  Uiso   1.00
H291   H     0.60417   0.54095   0.31712   0.00000  Uiso   1.00
H292   H     0.58983   0.42356   0.41330   0.00000  Uiso   1.00
H293   H     0.48009   0.52124   0.08487   0.00000  Uiso   1.00
H294   H     0.38713   0.52381   0.42097   0.00000  Uiso   1.00
H295   H     0.41812   0.50945   0.06622   0.00000  Uiso   1.00
H296   H     0.36294   0.52881   0.02014   0.00000  Uiso   1.00
H297   H     0.53088   0.43900   0.37245   0.00000  Uiso   1.00
H298   H     0.53615   0.62743   0.30631   0.00000  Uiso   1.00
N299   N     0.38093   0.50001   0.25001   0.00000  Uiso   1.00
N300   N     0.61906   0.49998   0.25001   0.00000  Uiso   1.00
O301   O     0.46179   0.56108   0.25000   0.00000  Uiso   1.00
O302   O     0.53823   0.56107   0.25001   0.00000  Uiso   1.00
O303   O     0.44280   0.50000   0.32681   0.00000  Uiso   1.00
O304   O     0.51924   0.49999   0.32681   0.00000  Uiso   1.00
O305   O     0.46177   0.43893   0.24999   0.00000  Uiso   1.00
O306   O     0.53821   0.43892   0.25000   0.00000  Uiso   1.00
O307   O     0.48076   0.50001   0.17319   0.00000  Uiso   1.00
O308   O     0.55720   0.50000   0.17319   0.00000  Uiso   1.00
Zn309  Zn    0.44896   0.50001   0.25000   0.00000  Uiso   1.00
Zn310  Zn    0.55104   0.49999   0.25000   0.00000  Uiso   1.00
S311   S     0.46329   0.62259   0.16094   0.00000  Uiso   1.00
O312   O     0.41772   0.59798   0.18647   0.00000  Uiso   1.00
O313   O     0.45451   0.65520   0.12379   0.00000  Uiso   1.00
O314   O     0.50745   0.59038   0.12470   0.00000  Uiso   1.00
H315   H     0.51153   0.59596   0.08616   0.00000  Uiso   1.00
S316   S     0.64503   0.42457   0.47783   0.00000  Uiso   1.00
O317   O     0.33802   0.44407   0.42336   0.00000  Uiso   1.00
O318   O     0.34400   0.42436   0.01140   0.00000  Uiso   1.00
O319   O     0.63021   0.37509   0.46894   0.00000  Uiso   1.00
H320   H     0.66102   0.36162   0.44754   0.00000  Uiso   1.00
C321   C     0.83395   0.57999   0.24773   0.00000  Uiso   1.00
C322   C     0.80964   0.48873   0.49281   0.00000  Uiso   1.00
C323   C     0.81928   0.47821   0.43818   0.00000  Uiso   1.00
C324   C     0.84656   0.48269   0.01508   0.00000  Uiso   1.00
C325   C     0.88877   0.45946   0.48670   0.00000  Uiso   1.00
C326   C     0.89313   0.44300   0.43581   0.00000  Uiso   1.00
C327   C     0.85915   0.45247   0.41179   0.00000  Uiso   1.00
C328   C     0.84295   0.50074   0.06427   0.00000  Uiso   1.00
C329   C     0.91742   0.46885   0.06265   0.00000  Uiso   1.00
C330   C     0.78906   0.49434   0.41120   0.00000  Uiso   1.00
C331   C     0.85438   0.64468   0.28021   0.00000  Uiso   1.00
C332   C     0.80661   0.49786   0.35214   0.00000  Uiso   1.00
C333   C     0.85435   0.35418   0.28154   0.00000  Uiso   1.00
C334   C     0.83341   0.37609   0.24942   0.00000  Uiso   1.00
C335   C     0.81358   0.35618   0.21495   0.00000  Uiso   1.00
C336   C     0.81473   0.64652   0.21176   0.00000  Uiso   1.00
C337   C     0.83436   0.62427   0.24595   0.00000  Uiso   1.00
C338   C     0.98738   0.47728   0.21268   0.00000  Uiso   1.00
C339   C     0.70198   0.47727   0.21271   0.00000  Uiso   1.00
C340   C     0.67928   0.52270   0.28734   0.00000  Uiso   1.00
C341   C     0.96468   0.52271   0.28731   0.00000  Uiso   1.00
C342   C     0.83317   0.42007   0.25053   0.00000  Uiso   1.00
C343   C     0.86003   0.49911   0.14778   0.00000  Uiso   1.00
C344   C     0.92490   0.45320   0.01053   0.00000  Uiso   1.00
C345   C     0.87589   0.49171   0.08965   0.00000  Uiso   1.00
C346   C     0.74448   0.51208   0.44103   0.00000  Uiso   1.00
C347   C     0.73114   0.51595   0.49696   0.00000  Uiso   1.00
C348   C     0.76364   0.50533   0.02276   0.00000  Uiso   1.00
H349   H     0.94272   0.46177   0.08315   0.00000  Uiso   1.00
H350   H     0.86968   0.37018   0.30816   0.00000  Uiso   1.00
H351   H     0.79885   0.37445   0.18937   0.00000  Uiso   1.00
H352   H     0.97832   0.45913   0.18283   0.00000  Uiso   1.00
H353   H     0.72917   0.45904   0.18288   0.00000  Uiso   1.00
H354   H     0.68835   0.54086   0.31718   0.00000  Uiso   1.00
H355   H     0.93750   0.54095   0.31712   0.00000  Uiso   1.00
H356   H     0.92316   0.42356   0.41330   0.00000  Uiso   1.00
H357   H     0.81342   0.52124   0.08487   0.00000  Uiso   1.00
H358   H     0.72047   0.52381   0.42097   0.00000  Uiso   1.00
H359   H     0.75145   0.50945   0.06622   0.00000  Uiso   1.00
H360   H     0.69627   0.52881   0.02014   0.00000  Uiso   1.00
H361   H     0.86421   0.43900   0.37245   0.00000  Uiso   1.00
H362   H     0.86948   0.62743   0.30631   0.00000  Uiso   1.00
N363   N     0.71426   0.50001   0.25001   0.00000  Uiso   1.00
N364   N     0.95239   0.49998   0.25001   0.00000  Uiso   1.00
O365   O     0.79512   0.56108   0.25000   0.00000  Uiso   1.00
O366   O     0.87157   0.56107   0.25001   0.00000  Uiso   1.00
O367   O     0.77613   0.50000   0.32681   0.00000  Uiso   1.00
O368   O     0.85258   0.49999   0.32681   0.00000  Uiso   1.00
O369   O     0.79510   0.43893   0.24999   0.00000  Uiso   1.00
O370   O     0.87154   0.43892   0.25000   0.00000  Uiso   1.00
O371   O     0.81409   0.50001   0.17319   0.00000  Uiso   1.00
O372   O     0.89053   0.50000   0.17319   0.00000  Uiso   1.00
Zn373  Zn    0.78229   0.50001   0.25000   0.00000  Uiso   1.00
Zn374  Zn    0.88438   0.49999   0.25000   0.00000  Uiso   1.00
S375   S     0.79662   0.62259   0.16094   0.00000  Uiso   1.00
O376   O     0.75106   0.59798   0.18647   0.00000  Uiso   1.00
O377   O     0.78784   0.65520   0.12379   0.00000  Uiso   1.00
O378   O     0.84079   0.59038   0.12470   0.00000  Uiso   1.00
H379   H     0.84487   0.59596   0.08616   0.00000  Uiso   1.00
S380   S     0.97836   0.42457   0.47783   0.00000  Uiso   1.00
O381   O     0.67136   0.44407   0.42336   0.00000  Uiso   1.00
O382   O     0.67733   0.42436   0.01140   0.00000  Uiso   1.00
O383   O     0.96354   0.37509   0.46894   0.00000  Uiso   1.00
H384   H     0.99436   0.36162   0.44754   0.00000  Uiso   1.00
C385   C     0.16728   0.91333   0.24773   0.00000  Uiso   1.00
C386   C     0.14297   0.82207   0.49281   0.00000  Uiso   1.00
C387   C     0.15261   0.81155   0.43818   0.00000  Uiso   1.00
C388   C     0.17989   0.81602   0.01508   0.00000  Uiso   1.00
C389   C     0.22210   0.79279   0.48670   0.00000  Uiso   1.00
C390   C     0.22647   0.77634   0.43581   0.00000  Uiso   1.00
C391   C     0.19249   0.78581   0.41179   0.00000  Uiso   1.00
C392   C     0.17628   0.83407   0.06427   0.00000  Uiso   1.00
C393   C     0.25076   0.80218   0.06265   0.00000  Uiso   1.00
C394   C     0.12240   0.82768   0.41120   0.00000  Uiso   1.00
C395   C     0.18771   0.97802   0.28021   0.00000  Uiso   1.00
C396   C     0.13995   0.83120   0.35214   0.00000  Uiso   1.00
C397   C     0.18768   0.68752   0.28154   0.00000  Uiso   1.00
C398   C     0.16674   0.70942   0.24942   0.00000  Uiso   1.00
C399   C     0.14692   0.68952   0.21495   0.00000  Uiso   1.00
C400   C     0.14806   0.97986   0.21176   0.00000  Uiso   1.00
C401   C     0.16769   0.95760   0.24595   0.00000  Uiso   1.00
C402   C     0.32071   0.81061   0.21268   0.00000  Uiso   1.00
C403   C     0.03531   0.81060   0.21271   0.00000  Uiso   1.00
C404   C     0.01261   0.85603   0.28734   0.00000  Uiso   1.00
C405   C     0.29802   0.85605   0.28731   0.00000  Uiso   1.00
C406   C     0.16650   0.75341   0.25053   0.00000  Uiso   1.00
C407   C     0.19336   0.83244   0.14778   0.00000  Uiso   1.00
C408   C     0.25823   0.78653   0.01053   0.00000  Uiso   1.00
C409   C     0.20922   0.82505   0.08965   0.00000  Uiso   1.00
C410   C     0.07782   0.84541   0.44103   0.00000  Uiso   1.00
C411   C     0.06447   0.84928   0.49696   0.00000  Uiso   1.00
C412   C     0.09698   0.83866   0.02276   0.00000  Uiso   1.00
H413   H     0.27606   0.79510   0.08315   0.00000  Uiso   1.00
H414   H     0.20302   0.70352   0.30816   0.00000  Uiso   1.00
H415   H     0.13219   0.70778   0.18937   0.00000  Uiso   1.00
H416   H     0.31165   0.79246   0.18283   0.00000  Uiso   1.00
H417   H     0.06250   0.79238   0.18288   0.00000  Uiso   1.00
H418   H     0.02168   0.87420   0.31718   0.00000  Uiso   1.00
H419   H     0.27083   0.87428   0.31712   0.00000  Uiso   1.00
H420   H     0.25649   0.75689   0.41330   0.00000  Uiso   1.00
H421   H     0.14676   0.85457   0.08487   0.00000  Uiso   1.00
H422   H     0.05380   0.85714   0.42097   0.00000  Uiso   1.00
H423   H     0.08479   0.84278   0.06622   0.00000  Uiso   1.00
H424   H     0.02961   0.86214   0.02014   0.00000  Uiso   1.00
H425   H     0.19754   0.77233   0.37245   0.00000  Uiso   1.00
H426   H     0.20282   0.96076   0.30631   0.00000  Uiso   1.00
N427   N     0.04760   0.83334   0.25001   0.00000  Uiso   1.00
N428   N     0.28573   0.83331   0.25001   0.00000  Uiso   1.00
O429   O     0.12846   0.89442   0.25000   0.00000  Uiso   1.00
O430   O     0.20490   0.89441   0.25001   0.00000  Uiso   1.00
O431   O     0.10947   0.83333   0.32681   0.00000  Uiso   1.00
O432   O     0.18591   0.83332   0.32681   0.00000  Uiso   1.00
O433   O     0.12843   0.77226   0.24999   0.00000  Uiso   1.00
O434   O     0.20488   0.77225   0.25000   0.00000  Uiso   1.00
O435   O     0.14742   0.83335   0.17319   0.00000  Uiso   1.00
O436   O     0.22387   0.83334   0.17319   0.00000  Uiso   1.00
Zn437  Zn    0.11562   0.83334   0.25000   0.00000  Uiso   1.00
Zn438  Zn    0.21771   0.83333   0.25000   0.00000  Uiso   1.00
S439   S     0.12996   0.95592   0.16094   0.00000  Uiso   1.00
O440   O     0.08439   0.93131   0.18647   0.00000  Uiso   1.00
O441   O     0.12117   0.98853   0.12379   0.00000  Uiso   1.00
O442   O     0.17412   0.92372   0.12470   0.00000  Uiso   1.00
H443   H     0.17820   0.92929   0.08616   0.00000  Uiso   1.00
S444   S     0.31169   0.75791   0.47783   0.00000  Uiso   1.00
O445   O     0.00469   0.77740   0.42336   0.00000  Uiso   1.00
O446   O     0.01066   0.75769   0.01140   0.00000  Uiso   1.00
O447   O     0.29687   0.70842   0.46894   0.00000  Uiso   1.00
H448   H     0.32769   0.69495   0.44754   0.00000  Uiso   1.00
C449   C     0.50062   0.91333   0.24773   0.00000  Uiso   1.00
C450   C     0.47630   0.82207   0.49281   0.00000  Uiso   1.00
C451   C     0.48594   0.81155   0.43818   0.00000  Uiso   1.00
C452   C     0.51323   0.81602   0.01508   0.00000  Uiso   1.00
C453   C     0.55544   0.79279   0.48670   0.00000  Uiso   1.00
C454   C     0.55980   0.77634   0.43581   0.00000  Uiso   1.00
C455   C     0.52582   0.78581   0.41179   0.00000  Uiso   1.00
C456   C     0.50962   0.83407   0.06427   0.00000  Uiso   1.00
C457   C     0.58409   0.80218   0.06265   0.00000  Uiso   1.00
C458   C     0.45573   0.82768   0.41120   0.00000  Uiso   1.00
C459   C     0.52105   0.97802   0.28021   0.00000  Uiso   1.00
C460   C     0.47328   0.83120   0.35214   0.00000  Uiso   1.00
C461   C     0.52102   0.68752   0.28154   0.00000  Uiso   1.00
C462   C     0.50008   0.70942   0.24942   0.00000  Uiso   1.00
C463   C     0.48025   0.68952   0.21495   0.00000  Uiso   1.00
C464   C     0.48140   0.97986   0.21176   0.00000  Uiso   1.00
C465   C     0.50103   0.95760   0.24595   0.00000  Uiso   1.00
C466   C     0.65405   0.81061   0.21268   0.00000  Uiso   1.00
C467   C     0.36865   0.81060   0.21271   0.00000  Uiso   1.00
C468   C     0.34595   0.85603   0.28734   0.00000  Uiso   1.00
C469   C     0.63135   0.85605   0.28731   0.00000  Uiso   1.00
C470   C     0.49984   0.75341   0.25053   0.00000  Uiso   1.00
C471   C     0.52669   0.83244   0.14778   0.00000  Uiso   1.00
C472   C     0.59156   0.78653   0.01053   0.00000  Uiso   1.00
C473   C     0.54256   0.82505   0.08965   0.00000  Uiso   1.00
C474   C     0.41115   0.84541   0.44103   0.00000  Uiso   1.00
C475   C     0.39780   0.84928   0.49696   0.00000  Uiso   1.00
C476   C     0.43031   0.83866   0.02276   0.00000  Uiso   1.00
H477   H     0.60939   0.79510   0.08315   0.00000  Uiso   1.00
H478   H     0.53635   0.70352   0.30816   0.00000  Uiso   1.00
H479   H     0.46552   0.70778   0.18937   0.00000  Uiso   1.00
H480   H     0.64499   0.79246   0.18283   0.00000  Uiso   1.00
H481   H     0.39584   0.79238   0.18288   0.00000  Uiso   1.00
H482   H     0.35502   0.87420   0.31718   0.00000  Uiso   1.00
H483   H     0.60417   0.87428   0.31712   0.00000  Uiso   1.00
H484   H     0.58983   0.75689   0.41330   0.00000  Uiso   1.00
H485   H     0.48009   0.85457   0.08487   0.00000  Uiso   1.00
H486   H     0.38713   0.85714   0.42097   0.00000  Uiso   1.00
H487   H     0.41812   0.84278   0.06622   0.00000  Uiso   1.00
H488   H     0.36294   0.86214   0.02014   0.00000  Uiso   1.00
H489   H     0.53088   0.77233   0.37245   0.00000  Uiso   1.00
H490   H     0.53615   0.96076   0.30631   0.00000  Uiso   1.00
N491   N     0.38093   0.83334   0.25001   0.00000  Uiso   1.00
N492   N     0.61906   0.83331   0.25001   0.00000  Uiso   1.00
O493   O     0.46179   0.89442   0.25000   0.00000  Uiso   1.00
O494   O     0.53823   0.89441   0.25001   0.00000  Uiso   1.00
O495   O     0.44280   0.83333   0.32681   0.00000  Uiso   1.00
O496   O     0.51924   0.83332   0.32681   0.00000  Uiso   1.00
O497   O     0.46177   0.77226   0.24999   0.00000  Uiso   1.00
O498   O     0.53821   0.77225   0.25000   0.00000  Uiso   1.00
O499   O     0.48076   0.83335   0.17319   0.00000  Uiso   1.00
O500   O     0.55720   0.83334   0.17319   0.00000  Uiso   1.00
Zn501  Zn    0.44896   0.83334   0.25000   0.00000  Uiso   1.00
Zn502  Zn    0.55104   0.83333   0.25000   0.00000  Uiso   1.00
S503   S     0.46329   0.95592   0.16094   0.00000  Uiso   1.00
O504   O     0.41772   0.93131   0.18647   0.00000  Uiso   1.00
O505   O     0.45451   0.98853   0.12379   0.00000  Uiso   1.00
O506   O     0.50745   0.92372   0.12470   0.00000  Uiso   1.00
H507   H     0.51153   0.92929   0.08616   0.00000  Uiso   1.00
S508   S     0.64503   0.75791   0.47783   0.00000  Uiso   1.00
O509   O     0.33802   0.77740   0.42336   0.00000  Uiso   1.00
O510   O     0.34400   0.75769   0.01140   0.00000  Uiso   1.00
O511   O     0.63021   0.70842   0.46894   0.00000  Uiso   1.00
H512   H     0.66102   0.69495   0.44754   0.00000  Uiso   1.00
C513   C     0.83395   0.91333   0.24773   0.00000  Uiso   1.00
C514   C     0.80964   0.82207   0.49281   0.00000  Uiso   1.00
C515   C     0.81928   0.81155   0.43818   0.00000  Uiso   1.00
C516   C     0.84656   0.81602   0.01508   0.00000  Uiso   1.00
C517   C     0.88877   0.79279   0.48670   0.00000  Uiso   1.00
C518   C     0.89313   0.77634   0.43581   0.00000  Uiso   1.00
C519   C     0.85915   0.78581   0.41179   0.00000  Uiso   1.00
C520   C     0.84295   0.83407   0.06427   0.00000  Uiso   1.00
C521   C     0.91742   0.80218   0.06265   0.00000  Uiso   1.00
C522   C     0.78906   0.82768   0.41120   0.00000  Uiso   1.00
C523   C     0.85438   0.97802   0.28021   0.00000  Uiso   1.00
C524   C     0.80661   0.83120   0.35214   0.00000  Uiso   1.00
C525   C     0.85435   0.68752   0.28154   0.00000  Uiso   1.00
C526   C     0.83341   0.70942   0.24942   0.00000  Uiso   1.00
C527   C     0.81358   0.68952   0.21495   0.00000  Uiso   1.00
C528   C     0.81473   0.97986   0.21176   0.00000  Uiso   1.00
C529   C     0.83436   0.95760   0.24595   0.00000  Uiso   1.00
C530   C     0.98738   0.81061   0.21268   0.00000  Uiso   1.00
C531   C     0.70198   0.81060   0.21271   0.00000  Uiso   1.00
C532   C     0.67928   0.85603   0.28734   0.00000  Uiso   1.00
C533   C     0.96468   0.85605   0.28731   0.00000  Uiso   1.00
C534   C     0.83317   0.75341   0.25053   0.00000  Uiso   1.00
C535   C     0.86003   0.83244   0.14778   0.00000  Uiso   1.00
C536   C     0.92490   0.78653   0.01053   0.00000  Uiso   1.00
C537   C     0.87589   0.82505   0.08965   0.00000  Uiso   1.00
C538   C     0.74448   0.84541   0.44103   0.00000  Uiso   1.00
C539   C     0.73114   0.84928   0.49696   0.00000  Uiso   1.00
C540   C     0.76364   0.83866   0.02276   0.00000  Uiso   1.00
H541   H     0.94272   0.79510   0.08315   0.00000  Uiso   1.00
H542   H     0.86968   0.70352   0.30816   0.00000  Uiso   1.00
H543   H     0.79885   0.70778   0.18937   0.00000  Uiso   1.00
H544   H     0.97832   0.79246   0.18283   0.00000  Uiso   1.00
H545   H     0.72917   0.79238   0.18288   0.00000  Uiso   1.00
H546   H     0.68835   0.87420   0.31718   0.00000  Uiso   1.00
H547   H     0.93750   0.87428   0.31712   0.00000  Uiso   1.00
H548   H     0.92316   0.75689   0.41330   0.00000  Uiso   1.00
H549   H     0.81342   0.85457   0.08487   0.00000  Uiso   1.00
H550   H     0.72047   0.85714   0.42097   0.00000  Uiso   1.00
H551   H     0.75145   0.84278   0.06622   0.00000  Uiso   1.00
H552   H     0.69627   0.86214   0.02014   0.00000  Uiso   1.00
H553   H     0.86421   0.77233   0.37245   0.00000  Uiso   1.00
H554   H     0.86948   0.96076   0.30631   0.00000  Uiso   1.00
N555   N     0.71426   0.83334   0.25001   0.00000  Uiso   1.00
N556   N     0.95239   0.83331   0.25001   0.00000  Uiso   1.00
O557   O     0.79512   0.89442   0.25000   0.00000  Uiso   1.00
O558   O     0.87157   0.89441   0.25001   0.00000  Uiso   1.00
O559   O     0.77613   0.83333   0.32681   0.00000  Uiso   1.00
O560   O     0.85258   0.83332   0.32681   0.00000  Uiso   1.00
O561   O     0.79510   0.77226   0.24999   0.00000  Uiso   1.00
O562   O     0.87154   0.77225   0.25000   0.00000  Uiso   1.00
O563   O     0.81409   0.83335   0.17319   0.00000  Uiso   1.00
O564   O     0.89053   0.83334   0.17319   0.00000  Uiso   1.00
Zn565  Zn    0.78229   0.83334   0.25000   0.00000  Uiso   1.00
Zn566  Zn    0.88438   0.83333   0.25000   0.00000  Uiso   1.00
S567   S     0.79662   0.95592   0.16094   0.00000  Uiso   1.00
O568   O     0.75106   0.93131   0.18647   0.00000  Uiso   1.00
O569   O     0.78784   0.98853   0.12379   0.00000  Uiso   1.00
O570   O     0.84079   0.92372   0.12470   0.00000  Uiso   1.00
H571   H     0.84487   0.92929   0.08616   0.00000  Uiso   1.00
S572   S     0.97836   0.75791   0.47783   0.00000  Uiso   1.00
O573   O     0.67136   0.77740   0.42336   0.00000  Uiso   1.00
O574   O     0.67733   0.75769   0.01140   0.00000  Uiso   1.00
O575   O     0.96354   0.70842   0.46894   0.00000  Uiso   1.00
H576   H     0.99436   0.69495   0.44754   0.00000  Uiso   1.00
C577   C     0.16728   0.24666   0.74773   0.00000  Uiso   1.00
C578   C     0.14297   0.15540   0.99281   0.00000  Uiso   1.00
C579   C     0.15261   0.14488   0.93818   0.00000  Uiso   1.00
C580   C     0.17989   0.14935   0.51508   0.00000  Uiso   1.00
C581   C     0.22210   0.12612   0.98670   0.00000  Uiso   1.00
C582   C     0.22647   0.10967   0.93581   0.00000  Uiso   1.00
C583   C     0.19249   0.11914   0.91179   0.00000  Uiso   1.00
C584   C     0.17628   0.16740   0.56427   0.00000  Uiso   1.00
C585   C     0.25076   0.13551   0.56265   0.00000  Uiso   1.00
C586   C     0.12240   0.16101   0.91120   0.00000  Uiso   1.00
C587   C     0.18771   0.31135   0.78021   0.00000  Uiso   1.00
C588   C     0.13995   0.16453   0.85214   0.00000  Uiso   1.00
C589   C     0.18768   0.02085   0.78154   0.00000  Uiso   1.00
C590   C     0.16674   0.04275   0.74942   0.00000  Uiso   1.00
C591   C     0.14692   0.02285   0.71495   0.00000  Uiso   1.00
C592   C     0.14806   0.31319   0.71176   0.00000  Uiso   1.00
C593   C     0.16769   0.29094   0.74595   0.00000  Uiso   1.00
C594   C     0.32071   0.14395   0.71268   0.00000  Uiso   1.00
C595   C     0.03531   0.14394   0.71271   0.00000  Uiso   1.00
C596   C     0.01261   0.18937   0.78734   0.00000  Uiso   1.00
C597   C     0.29802   0.18938   0.78731   0.00000  Uiso   1.00
C598   C     0.16650   0.08674   0.75053   0.00000  Uiso   1.00
C599   C     0.19336   0.16578   0.64778   0.00000  Uiso   1.00
C600   C     0.25823   0.11987   0.51053   0.00000  Uiso   1.00
C601   C     0.20922   0.15838   0.58965   0.00000  Uiso   1.00
C602   C     0.07782   0.17874   0.94103   0.00000  Uiso   1.00
C603   C     0.06447   0.18261   0.99696   0.00000  Uiso   1.00
C604   C     0.09698   0.17199   0.52276   0.00000  Uiso   1.00
H605   H     0.27606   0.12843   0.58315   0.00000  Uiso   1.00
H606   H     0.20302   0.03685   0.80816   0.00000  Uiso   1.00
H607   H     0.13219   0.04112   0.68937   0.00000  Uiso   1.00
H608   H     0.31165   0.12579   0.68283   0.00000  Uiso   1.00
H609   H     0.06250   0.12571   0.68288   0.00000  Uiso   1.00
H610   H     0.02168   0.20753   0.81718   0.00000  Uiso   1.00
H611   H     0.27083   0.20762   0.81712   0.00000  Uiso   1.00
H612   H     0.25649   0.09023   0.91330   0.00000  Uiso   1.00
H613   H     0.14676   0.18790   0.58487   0.00000  Uiso   1.00
H614   H     0.05380   0.19047   0.92097   0.00000  Uiso   1.00
H615   H     0.08479   0.17611   0.56622   0.00000  Uiso   1.00
H616   H     0.02961   0.19547   0.52014   0.00000  Uiso   1.00
H617   H     0.19754   0.10566   0.87245   0.00000  Uiso   1.00
H618   H     0.20282   0.29410   0.80631   0.00000  Uiso   1.00
N619   N     0.04760   0.16668   0.75001   0.00000  Uiso   1.00
N620   N     0.28573   0.16665   0.75001   0.00000  Uiso   1.00
O621   O     0.12846   0.22775   0.75000   0.00000  Uiso   1.00
O622   O     0.20490   0.22774   0.75001   0.00000  Uiso   1.00
O623   O     0.10947   0.16666   0.82681   0.00000  Uiso   1.00
O624   O     0.18591   0.16665   0.82681   0.00000  Uiso   1.00
O625   O     0.12843   0.10559   0.74999   0.00000  Uiso   1.00
O626   O     0.20488   0.10558   0.75000   0.00000  Uiso   1.00
O627   O     0.14742   0.16668   0.67319   0.00000  Uiso   1.00
O628   O     0.22387   0.16667   0.67319   0.00000  Uiso   1.00
Zn629  Zn    0.11562   0.16667   0.75000   0.00000  Uiso   1.00
Zn630  Zn    0.21771   0.16666   0.75000   0.00000  Uiso   1.00
S631   S     0.12996   0.28925   0.66094   0.00000  Uiso   1.00
O632   O     0.08439   0.26465   0.68647   0.00000  Uiso   1.00
O633   O     0.12117   0.32187   0.62379   0.00000  Uiso   1.00
O634   O     0.17412   0.25705   0.62470   0.00000  Uiso   1.00
H635   H     0.17820   0.26262   0.58616   0.00000  Uiso   1.00
S636   S     0.31169   0.09124   0.97783   0.00000  Uiso   1.00
O637   O     0.00469   0.11074   0.92336   0.00000  Uiso   1.00
O638   O     0.01066   0.09102   0.51140   0.00000  Uiso   1.00
O639   O     0.29687   0.04175   0.96894   0.00000  Uiso   1.00
H640   H     0.32769   0.02828   0.94754   0.00000  Uiso   1.00
C641   C     0.50062   0.24666   0.74773   0.00000  Uiso   1.00
C642   C     0.47630   0.15540   0.99281   0.00000  Uiso   1.00
C643   C     0.48594   0.14488   0.93818   0.00000  Uiso   1.00
C644   C     0.51323   0.14935   0.51508   0.00000  Uiso   1.00
C645   C     0.55544   0.12612   0.98670   0.00000  Uiso   1.00
C646   C     0.55980   0.10967   0.93581   0.00000  Uiso   1.00
C647   C     0.52582   0.11914   0.91179   0.00000  Uiso   1.00
C648   C     0.50962   0.16740   0.56427   0.00000  Uiso   1.00
C649   C     0.58409   0.13551   0.56265   0.00000  Uiso   1.00
C650   C     0.45573   0.16101   0.91120   0.00000  Uiso   1.00
C651   C     0.52105   0.31135   0.78021   0.00000  Uiso   1.00
C652   C     0.47328   0.16453   0.85214   0.00000  Uiso   1.00
C653   C     0.52102   0.02085   0.78154   0.00000  Uiso   1.00
C654   C     0.50008   0.04275   0.74942   0.00000  Uiso   1.00
C655   C     0.48025   0.02285   0.71495   0.00000  Uiso   1.00
C656   C     0.48140   0.31319   0.71176   0.00000  Uiso   1.00
C657   C     0.50103   0.29094   0.74595   0.00000  Uiso   1.00
C658   C     0.65405   0.14395   0.71268   0.00000  Uiso   1.00
C659   C     0.36865   0.14394   0.71271   0.00000  Uiso   1.00
C660   C     0.34595   0.18937   0.78734   0.00000  Uiso   1.00
C661   C     0.63135   0.18938   0.78731   0.00000  Uiso   1.00
C662   C     0.49984   0.08674   0.75053   0.00000  Uiso   1.00
C663   C     0.52669   0.16578   0.64778   0.00000  Uiso   1.00
C664   C     0.59156   0.11987   0.51053   0.00000  Uiso   1.00
C665   C     0.54256   0.15838   0.58965   0.00000  Uiso   1.00
C666   C     0.41115   0.17874   0.94103   0.00000  Uiso   1.00
C667   C     0.39780   0.18261   0.99696   0.00000  Uiso   1.00
C668   C     0.43031   0.17199   0.52276   0.00000  Uiso   1.00
H669   H     0.60939   0.12843   0.58315   0.00000  Uiso   1.00
H670   H     0.53635   0.03685   0.80816   0.00000  Uiso   1.00
H671   H     0.46552   0.04112   0.68937   0.00000  Uiso   1.00
H672   H     0.64499   0.12579   0.68283   0.00000  Uiso   1.00
H673   H     0.39584   0.12571   0.68288   0.00000  Uiso   1.00
H674   H     0.35502   0.20753   0.81718   0.00000  Uiso   1.00
H675   H     0.60417   0.20762   0.81712   0.00000  Uiso   1.00
H676   H     0.58983   0.09023   0.91330   0.00000  Uiso   1.00
H677   H     0.48009   0.18790   0.58487   0.00000  Uiso   1.00
H678   H     0.38713   0.19047   0.92097   0.00000  Uiso   1.00
H679   H     0.41812   0.17611   0.56622   0.00000  Uiso   1.00
H680   H     0.36294   0.19547   0.52014   0.00000  Uiso   1.00
H681   H     0.53088   0.10566   0.87245   0.00000  Uiso   1.00
H682   H     0.53615   0.29410   0.80631   0.00000  Uiso   1.00
N683   N     0.38093   0.16668   0.75001   0.00000  Uiso   1.00
N684   N     0.61906   0.16665   0.75001   0.00000  Uiso   1.00
O685   O     0.46179   0.22775   0.75000   0.00000  Uiso   1.00
O686   O     0.53823   0.22774   0.75001   0.00000  Uiso   1.00
O687   O     0.44280   0.16666   0.82681   0.00000  Uiso   1.00
O688   O     0.51924   0.16665   0.82681   0.00000  Uiso   1.00
O689   O     0.46177   0.10559   0.74999   0.00000  Uiso   1.00
O690   O     0.53821   0.10558   0.75000   0.00000  Uiso   1.00
O691   O     0.48076   0.16668   0.67319   0.00000  Uiso   1.00
O692   O     0.55720   0.16667   0.67319   0.00000  Uiso   1.00
Zn693  Zn    0.44896   0.16667   0.75000   0.00000  Uiso   1.00
Zn694  Zn    0.55104   0.16666   0.75000   0.00000  Uiso   1.00
S695   S     0.46329   0.28925   0.66094   0.00000  Uiso   1.00
O696   O     0.41772   0.26465   0.68647   0.00000  Uiso   1.00
O697   O     0.45451   0.32187   0.62379   0.00000  Uiso   1.00
O698   O     0.50745   0.25705   0.62470   0.00000  Uiso   1.00
H699   H     0.51153   0.26262   0.58616   0.00000  Uiso   1.00
S700   S     0.64503   0.09124   0.97783   0.00000  Uiso   1.00
O701   O     0.33802   0.11074   0.92336   0.00000  Uiso   1.00
O702   O     0.34400   0.09102   0.51140   0.00000  Uiso   1.00
O703   O     0.63021   0.04175   0.96894   0.00000  Uiso   1.00
H704   H     0.66102   0.02828   0.94754   0.00000  Uiso   1.00
C705   C     0.83395   0.24666   0.74773   0.00000  Uiso   1.00
C706   C     0.80964   0.15540   0.99281   0.00000  Uiso   1.00
C707   C     0.81928   0.14488   0.93818   0.00000  Uiso   1.00
C708   C     0.84656   0.14935   0.51508   0.00000  Uiso   1.00
C709   C     0.88877   0.12612   0.98670   0.00000  Uiso   1.00
C710   C     0.89313   0.10967   0.93581   0.00000  Uiso   1.00
C711   C     0.85915   0.11914   0.91179   0.00000  Uiso   1.00
C712   C     0.84295   0.16740   0.56427   0.00000  Uiso   1.00
C713   C     0.91742   0.13551   0.56265   0.00000  Uiso   1.00
C714   C     0.78906   0.16101   0.91120   0.00000  Uiso   1.00
C715   C     0.85438   0.31135   0.78021   0.00000  Uiso   1.00
C716   C     0.80661   0.16453   0.85214   0.00000  Uiso   1.00
C717   C     0.85435   0.02085   0.78154   0.00000  Uiso   1.00
C718   C     0.83341   0.04275   0.74942   0.00000  Uiso   1.00
C719   C     0.81358   0.02285   0.71495   0.00000  Uiso   1.00
C720   C     0.81473   0.31319   0.71176   0.00000  Uiso   1.00
C721   C     0.83436   0.29094   0.74595   0.00000  Uiso   1.00
C722   C     0.98738   0.14395   0.71268   0.00000  Uiso   1.00
C723   C     0.70198   0.14394   0.71271   0.00000  Uiso   1.00
C724   C     0.67928   0.18937   0.78734   0.00000  Uiso   1.00
C725   C     0.96468   0.18938   0.78731   0.00000  Uiso   1.00
C726   C     0.83317   0.08674   0.75053   0.00000  Uiso   1.00
C727   C     0.86003   0.16578   0.64778   0.00000  Uiso   1.00
C728   C     0.92490   0.11987   0.51053   0.00000  Uiso   1.00
C729   C     0.87589   0.15838   0.58965   0.00000  Uiso   1.00
C730   C     0.74448   0.17874   0.94103   0.00000  Uiso   1.00
C731   C     0.73114   0.18261   0.99696   0.00000  Uiso   1.00
C732   C     0.76364   0.17199   0.52276   0.00000  Uiso   1.00
H733   H     0.94272   0.12843   0.58315   0.00000  Uiso   1.00
H734   H     0.86968   0.03685   0.80816   0.00000  Uiso   1.00
H735   H     0.79885   0.04112   0.68937   0.00000  Uiso   1.00
H736   H     0.97832   0.12579   0.68283   0.00000  Uiso   1.00
H737   H     0.72917   0.12571   0.68288   0.00000  Uiso   1.00
H738   H     0.68835   0.20753   0.81718   0.00000  Uiso   1.00
H739   H     0.93750   0.20762   0.81712   0.00000  Uiso   1.00
H740   H     0.92316   0.09023   0.91330   0.00000  Uiso   1.00
H741   H     0.81342   0.18790   0.58487   0.00000  Uiso   1.00
H742   H     0.72047   0.19047   0.92097   0.00000  Uiso   1.00
H743   H     0.75145   0.17611   0.56622   0.00000  Uiso   1.00
H744   H     0.69627   0.19547   0.52014   0.00000  Uiso   1.00
H745   H     0.86421   0.10566   0.87245   0.00000  Uiso   1.00
H746   H     0.86948   0.29410   0.80631   0.00000  Uiso   1.00
N747   N     0.71426   0.16668   0.75001   0.00000  Uiso   1.00
N748   N     0.95239   0.16665   0.75001   0.00000  Uiso   1.00
O749   O     0.79512   0.22775   0.75000   0.00000  Uiso   1.00
O750   O     0.87157   0.22774   0.75001   0.00000  Uiso   1.00
O751   O     0.77613   0.16666   0.82681   0.00000  Uiso   1.00
O752   O     0.85258   0.16665   0.82681   0.00000  Uiso   1.00
O753   O     0.79510   0.10559   0.74999   0.00000  Uiso   1.00
O754   O     0.87154   0.10558   0.75000   0.00000  Uiso   1.00
O755   O     0.81409   0.16668   0.67319   0.00000  Uiso   1.00
O756   O     0.89053   0.16667   0.67319   0.00000  Uiso   1.00
Zn757  Zn    0.78229   0.16667   0.75000   0.00000  Uiso   1.00
Zn758  Zn    0.88438   0.16666   0.75000   0.00000  Uiso   1.00
S759   S     0.79662   0.28925   0.66094   0.00000  Uiso   1.00
O760   O     0.75106   0.26465   0.68647   0.00000  Uiso   1.00
O761   O     0.78784   0.32187   0.62379   0.00000  Uiso   1.00
O762   O     0.84079   0.25705   0.62470   0.00000  Uiso   1.00
H763   H     0.84487   0.26262   0.58616   0.00000  Uiso   1.00
S764   S     0.97836   0.09124   0.97783   0.00000  Uiso   1.00
O765   O     0.67136   0.11074   0.92336   0.00000  Uiso   1.00
O766   O     0.67733   0.09102   0.51140   0.00000  Uiso   1.00
O767   O     0.96354   0.04175   0.96894   0.00000  Uiso   1.00
H768   H     0.99436   0.02828   0.94754   0.00000  Uiso   1.00
C769   C     0.16728   0.57999   0.74773   0.00000  Uiso   1.00
C770   C     0.14297   0.48873   0.99281   0.00000  Uiso   1.00
C771   C     0.15261   0.47821   0.93818   0.00000  Uiso   1.00
C772   C     0.17989   0.48269   0.51508   0.00000  Uiso   1.00
C773   C     0.22210   0.45946   0.98670   0.00000  Uiso   1.00
C774   C     0.22647   0.44300   0.93581   0.00000  Uiso   1.00
C775   C     0.19249   0.45247   0.91179   0.00000  Uiso   1.00
C776   C     0.17628   0.50074   0.56427   0.00000  Uiso   1.00
C777   C     0.25076   0.46885   0.56265   0.00000  Uiso   1.00
C778   C     0.12240   0.49434   0.91120   0.00000  Uiso   1.00
C779   C     0.18771   0.64468   0.78021   0.00000  Uiso   1.00
C780   C     0.13995   0.49786   0.85214   0.00000  Uiso   1.00
C781   C     0.18768   0.35418   0.78154   0.00000  Uiso   1.00
C782   C     0.16674   0.37609   0.74942   0.00000  Uiso   1.00
C783   C     0.14692   0.35618   0.71495   0.00000  Uiso   1.00
C784   C     0.14806   0.64652   0.71176   0.00000  Uiso   1.00
C785   C     0.16769   0.62427   0.74595   0.00000  Uiso   1.00
C786   C     0.32071   0.47728   0.71268   0.00000  Uiso   1.00
C787   C     0.03531   0.47727   0.71271   0.00000  Uiso   1.00
C788   C     0.01261   0.52270   0.78734   0.00000  Uiso   1.00
C789   C     0.29802   0.52271   0.78731   0.00000  Uiso   1.00
C790   C     0.16650   0.42007   0.75053   0.00000  Uiso   1.00
C791   C     0.19336   0.49911   0.64778   0.00000  Uiso   1.00
C792   C     0.25823   0.45320   0.51053   0.00000  Uiso   1.00
C793   C     0.20922   0.49171   0.58965   0.00000  Uiso   1.00
C794   C     0.07782   0.51208   0.94103   0.00000  Uiso   1.00
C795   C     0.06447   0.51595   0.99696   0.00000  Uiso   1.00
C796   C     0.09698   0.50533   0.52276   0.00000  Uiso   1.00
H797   H     0.27606   0.46177   0.58315   0.00000  Uiso   1.00
H798   H     0.20302   0.37018   0.80816   0.00000  Uiso   1.00
H799   H     0.13219   0.37445   0.68937   0.00000  Uiso   1.00
H800   H     0.31165   0.45913   0.68283   0.00000  Uiso   1.00
H801   H     0.06250   0.45904   0.68288   0.00000  Uiso   1.00
H802   H     0.02168   0.54086   0.81718   0.00000  Uiso   1.00
H803   H     0.27083   0.54095   0.81712   0.00000  Uiso   1.00
H804   H     0.25649   0.42356   0.91330   0.00000  Uiso   1.00
H805   H     0.14676   0.52124   0.58487   0.00000  Uiso   1.00
H806   H     0.05380   0.52381   0.92097   0.00000  Uiso   1.00
H807   H     0.08479   0.50945   0.56622   0.00000  Uiso   1.00
H808   H     0.02961   0.52881   0.52014   0.00000  Uiso   1.00
H809   H     0.19754   0.43900   0.87245   0.00000  Uiso   1.00
H810   H     0.20282   0.62743   0.80631   0.00000  Uiso   1.00
N811   N     0.04760   0.50001   0.75001   0.00000  Uiso   1.00
N812   N     0.28573   0.49998   0.75001   0.00000  Uiso   1.00
O813   O     0.12846   0.56108   0.75000   0.00000  Uiso   1.00
O814   O     0.20490   0.56107   0.75001   0.00000  Uiso   1.00
O815   O     0.10947   0.50000   0.82681   0.00000  Uiso   1.00
O816   O     0.18591   0.49999   0.82681   0.00000  Uiso   1.00
O817   O     0.12843   0.43893   0.74999   0.00000  Uiso   1.00
O818   O     0.20488   0.43892   0.75000   0.00000  Uiso   1.00
O819   O     0.14742   0.50001   0.67319   0.00000  Uiso   1.00
O820   O     0.22387   0.50000   0.67319   0.00000  Uiso   1.00
Zn821  Zn    0.11562   0.50001   0.75000   0.00000  Uiso   1.00
Zn822  Zn    0.21771   0.49999   0.75000   0.00000  Uiso   1.00
S823   S     0.12996   0.62259   0.66094   0.00000  Uiso   1.00
O824   O     0.08439   0.59798   0.68647   0.00000  Uiso   1.00
O825   O     0.12117   0.65520   0.62379   0.00000  Uiso   1.00
O826   O     0.17412   0.59038   0.62470   0.00000  Uiso   1.00
H827   H     0.17820   0.59596   0.58616   0.00000  Uiso   1.00
S828   S     0.31169   0.42457   0.97783   0.00000  Uiso   1.00
O829   O     0.00469   0.44407   0.92336   0.00000  Uiso   1.00
O830   O     0.01066   0.42436   0.51140   0.00000  Uiso   1.00
O831   O     0.29687   0.37509   0.96894   0.00000  Uiso   1.00
H832   H     0.32769   0.36162   0.94754   0.00000  Uiso   1.00
C833   C     0.50062   0.57999   0.74773   0.00000  Uiso   1.00
C834   C     0.47630   0.48873   0.99281   0.00000  Uiso   1.00
C835   C     0.48594   0.47821   0.93818   0.00000  Uiso   1.00
C836   C     0.51323   0.48269   0.51508   0.00000  Uiso   1.00
C837   C     0.55544   0.45946   0.98670   0.00000  Uiso   1.00
C838   C     0.55980   0.44300   0.93581   0.00000  Uiso   1.00
C839   C     0.52582   0.45247   0.91179   0.00000  Uiso   1.00
C840   C     0.50962   0.50074   0.56427   0.00000  Uiso   1.00
C841   C     0.58409   0.46885   0.56265   0.00000  Uiso   1.00
C842   C     0.45573   0.49434   0.91120   0.00000  Uiso   1.00
C843   C     0.52105   0.64468   0.78021   0.00000  Uiso   1.00
C844   C     0.47328   0.49786   0.85214   0.00000  Uiso   1.00
C845   C     0.52102   0.35418   0.78154   0.00000  Uiso   1.00
C846   C     0.50008   0.37609   0.74942   0.00000  Uiso   1.00
C847   C     0.48025   0.35618   0.71495   0.00000  Uiso   1.00
C848   C     0.48140   0.64652   0.71176   0.00000  Uiso   1.00
C849   C     0.50103   0.62427   0.74595   0.00000  Uiso   1.00
C850   C     0.65405   0.47728   0.71268   0.00000  Uiso   1.00
C851   C     0.36865   0.47727   0.71271   0.00000  Uiso   1.00
C852   C     0.34595   0.52270   0.78734   0.00000  Uiso   1.00
C853   C     0.63135   0.52271   0.78731   0.00000  Uiso   1.00
C854   C     0.49984   0.42007   0.75053   0.00000  Uiso   1.00
C855   C     0.52669   0.49911   0.64778   0.00000  Uiso   1.00
C856   C     0.59156   0.45320   0.51053   0.00000  Uiso   1.00
C857   C     0.54256   0.49171   0.58965   0.00000  Uiso   1.00
C858   C     0.41115   0.51208   0.94103   0.00000  Uiso   1.00
C859   C     0.39780   0.51595   0.99696   0.00000  Uiso   1.00
C860   C     0.43031   0.50533   0.52276   0.00000  Uiso   1.00
H861   H     0.60939   0.46177   0.58315   0.00000  Uiso   1.00
H862   H     0.53635   0.37018   0.80816   0.00000  Uiso   1.00
H863   H     0.46552   0.37445   0.68937   0.00000  Uiso   1.00
H864   H     0.64499   0.45913   0.68283   0.00000  Uiso   1.00
H865   H     0.39584   0.45904   0.68288   0.00000  Uiso   1.00
H866   H     0.35502   0.54086   0.81718   0.00000  Uiso   1.00
H867   H     0.60417   0.54095   0.81712   0.00000  Uiso   1.00
H868   H     0.58983   0.42356   0.91330   0.00000  Uiso   1.00
H869   H     0.48009   0.52124   0.58487   0.00000  Uiso   1.00
H870   H     0.38713   0.52381   0.92097   0.00000  Uiso   1.00
H871   H     0.41812   0.50945   0.56622   0.00000  Uiso   1.00
H872   H     0.36294   0.52881   0.52014   0.00000  Uiso   1.00
H873   H     0.53088   0.43900   0.87245   0.00000  Uiso   1.00
H874   H     0.53615   0.62743   0.80631   0.00000  Uiso   1.00
N875   N     0.38093   0.50001   0.75001   0.00000  Uiso   1.00
N876   N     0.61906   0.49998   0.75001   0.00000  Uiso   1.00
O877   O     0.46179   0.56108   0.75000   0.00000  Uiso   1.00
O878   O     0.53823   0.56107   0.75001   0.00000  Uiso   1.00
O879   O     0.44280   0.50000   0.82681   0.00000  Uiso   1.00
O880   O     0.51924   0.49999   0.82681   0.00000  Uiso   1.00
O881   O     0.46177   0.43893   0.74999   0.00000  Uiso   1.00
O882   O     0.53821   0.43892   0.75000   0.00000  Uiso   1.00
O883   O     0.48076   0.50001   0.67319   0.00000  Uiso   1.00
O884   O     0.55720   0.50000   0.67319   0.00000  Uiso   1.00
Zn885  Zn    0.44896   0.50001   0.75000   0.00000  Uiso   1.00
Zn886  Zn    0.55104   0.49999   0.75000   0.00000  Uiso   1.00
S887   S     0.46329   0.62259   0.66094   0.00000  Uiso   1.00
O888   O     0.41772   0.59798   0.68647   0.00000  Uiso   1.00
O889   O     0.45451   0.65520   0.62379   0.00000  Uiso   1.00
O890   O     0.50745   0.59038   0.62470   0.00000  Uiso   1.00
H891   H     0.51153   0.59596   0.58616   0.00000  Uiso   1.00
S892   S     0.64503   0.42457   0.97783   0.00000  Uiso   1.00
O893   O     0.33802   0.44407   0.92336   0.00000  Uiso   1.00
O894   O     0.34400   0.42436   0.51140   0.00000  Uiso   1.00
O895   O     0.63021   0.37509   0.96894   0.00000  Uiso   1.00
H896   H     0.66102   0.36162   0.94754   0.00000  Uiso   1.00
C897   C     0.83395   0.57999   0.74773   0.00000  Uiso   1.00
C898   C     0.80964   0.48873   0.99281   0.00000  Uiso   1.00
C899   C     0.81928   0.47821   0.93818   0.00000  Uiso   1.00
C900   C     0.84656   0.48269   0.51508   0.00000  Uiso   1.00
C901   C     0.88877   0.45946   0.98670   0.00000  Uiso   1.00
C902   C     0.89313   0.44300   0.93581   0.00000  Uiso   1.00
C903   C     0.85915   0.45247   0.91179   0.00000  Uiso   1.00
C904   C     0.84295   0.50074   0.56427   0.00000  Uiso   1.00
C905   C     0.91742   0.46885   0.56265   0.00000  Uiso   1.00
C906   C     0.78906   0.49434   0.91120   0.00000  Uiso   1.00
C907   C     0.85438   0.64468   0.78021   0.00000  Uiso   1.00
C908   C     0.80661   0.49786   0.85214   0.00000  Uiso   1.00
C909   C     0.85435   0.35418   0.78154   0.00000  Uiso   1.00
C910   C     0.83341   0.37609   0.74942   0.00000  Uiso   1.00
C911   C     0.81358   0.35618   0.71495   0.00000  Uiso   1.00
C912   C     0.81473   0.64652   0.71176   0.00000  Uiso   1.00
C913   C     0.83436   0.62427   0.74595   0.00000  Uiso   1.00
C914   C     0.98738   0.47728   0.71268   0.00000  Uiso   1.00
C915   C     0.70198   0.47727   0.71271   0.00000  Uiso   1.00
C916   C     0.67928   0.52270   0.78734   0.00000  Uiso   1.00
C917   C     0.96468   0.52271   0.78731   0.00000  Uiso   1.00
C918   C     0.83317   0.42007   0.75053   0.00000  Uiso   1.00
C919   C     0.86003   0.49911   0.64778   0.00000  Uiso   1.00
C920   C     0.92490   0.45320   0.51053   0.00000  Uiso   1.00
C921   C     0.87589   0.49171   0.58965   0.00000  Uiso   1.00
C922   C     0.74448   0.51208   0.94103   0.00000  Uiso   1.00
C923   C     0.73114   0.51595   0.99696   0.00000  Uiso   1.00
C924   C     0.76364   0.50533   0.52276   0.00000  Uiso   1.00
H925   H     0.94272   0.46177   0.58315   0.00000  Uiso   1.00
H926   H     0.86968   0.37018   0.80816   0.00000  Uiso   1.00
H927   H     0.79885   0.37445   0.68937   0.00000  Uiso   1.00
H928   H     0.97832   0.45913   0.68283   0.00000  Uiso   1.00
H929   H     0.72917   0.45904   0.68288   0.00000  Uiso   1.00
H930   H     0.68835   0.54086   0.81718   0.00000  Uiso   1.00
H931   H     0.93750   0.54095   0.81712   0.00000  Uiso   1.00
H932   H     0.92316   0.42356   0.91330   0.00000  Uiso   1.00
H933   H     0.81342   0.52124   0.58487   0.00000  Uiso   1.00
H934   H     0.72047   0.52381   0.92097   0.00000  Uiso   1.00
H935   H     0.75145   0.50945   0.56622   0.00000  Uiso   1.00
H936   H     0.69627   0.52881   0.52014   0.00000  Uiso   1.00
H937   H     0.86421   0.43900   0.87245   0.00000  Uiso   1.00
H938   H     0.86948   0.62743   0.80631   0.00000  Uiso   1.00
N939   N     0.71426   0.50001   0.75001   0.00000  Uiso   1.00
N940   N     0.95239   0.49998   0.75001   0.00000  Uiso   1.00
O941   O     0.79512   0.56108   0.75000   0.00000  Uiso   1.00
O942   O     0.87157   0.56107   0.75001   0.00000  Uiso   1.00
O943   O     0.77613   0.50000   0.82681   0.00000  Uiso   1.00
O944   O     0.85258   0.49999   0.82681   0.00000  Uiso   1.00
O945   O     0.79510   0.43893   0.74999   0.00000  Uiso   1.00
O946   O     0.87154   0.43892   0.75000   0.00000  Uiso   1.00
O947   O     0.81409   0.50001   0.67319   0.00000  Uiso   1.00
O948   O     0.89053   0.50000   0.67319   0.00000  Uiso   1.00
Zn949  Zn    0.78229   0.50001   0.75000   0.00000  Uiso   1.00
Zn950  Zn    0.88438   0.49999   0.75000   0.00000  Uiso   1.00
S951   S     0.79662   0.62259   0.66094   0.00000  Uiso   1.00
O952   O     0.75106   0.59798   0.68647   0.00000  Uiso   1.00
O953   O     0.78784   0.65520   0.62379   0.00000  Uiso   1.00
O954   O     0.84079   0.59038   0.62470   0.00000  Uiso   1.00
H955   H     0.84487   0.59596   0.58616   0.00000  Uiso   1.00
S956   S     0.97836   0.42457   0.97783   0.00000  Uiso   1.00
O957   O     0.67136   0.44407   0.92336   0.00000  Uiso   1.00
O958   O     0.67733   0.42436   0.51140   0.00000  Uiso   1.00
O959   O     0.96354   0.37509   0.96894   0.00000  Uiso   1.00
H960   H     0.99436   0.36162   0.94754   0.00000  Uiso   1.00
C961   C     0.16728   0.91333   0.74773   0.00000  Uiso   1.00
C962   C     0.14297   0.82207   0.99281   0.00000  Uiso   1.00
C963   C     0.15261   0.81155   0.93818   0.00000  Uiso   1.00
C964   C     0.17989   0.81602   0.51508   0.00000  Uiso   1.00
C965   C     0.22210   0.79279   0.98670   0.00000  Uiso   1.00
C966   C     0.22647   0.77634   0.93581   0.00000  Uiso   1.00
C967   C     0.19249   0.78581   0.91179   0.00000  Uiso   1.00
C968   C     0.17628   0.83407   0.56427   0.00000  Uiso   1.00
C969   C     0.25076   0.80218   0.56265   0.00000  Uiso   1.00
C970   C     0.12240   0.82768   0.91120   0.00000  Uiso   1.00
C971   C     0.18771   0.97802   0.78021   0.00000  Uiso   1.00
C972   C     0.13995   0.83120   0.85214   0.00000  Uiso   1.00
C973   C     0.18768   0.68752   0.78154   0.00000  Uiso   1.00
C974   C     0.16674   0.70942   0.74942   0.00000  Uiso   1.00
C975   C     0.14692   0.68952   0.71495   0.00000  Uiso   1.00
C976   C     0.14806   0.97986   0.71176   0.00000  Uiso   1.00
C977   C     0.16769   0.95760   0.74595   0.00000  Uiso   1.00
C978   C     0.32071   0.81061   0.71268   0.00000  Uiso   1.00
C979   C     0.03531   0.81060   0.71271   0.00000  Uiso   1.00
C980   C     0.01261   0.85603   0.78734   0.00000  Uiso   1.00
C981   C     0.29802   0.85605   0.78731   0.00000  Uiso   1.00
C982   C     0.16650   0.75341   0.75053   0.00000  Uiso   1.00
C983   C     0.19336   0.83244   0.64778   0.00000  Uiso   1.00
C984   C     0.25823   0.78653   0.51053   0.00000  Uiso   1.00
C985   C     0.20922   0.82505   0.58965   0.00000  Uiso   1.00
C986   C     0.07782   0.84541   0.94103   0.00000  Uiso   1.00
C987   C     0.06447   0.84928   0.99696   0.00000  Uiso   1.00
C988   C     0.09698   0.83866   0.52276   0.00000  Uiso   1.00
H989   H     0.27606   0.79510   0.58315   0.00000  Uiso   1.00
H990   H     0.20302   0.70352   0.80816   0.00000  Uiso   1.00
H991   H     0.13219   0.70778   0.68937   0.00000  Uiso   1.00
H992   H     0.31165   0.79246   0.68283   0.00000  Uiso   1.00
H993   H     0.06250   0.79238   0.68288   0.00000  Uiso   1.00
H994   H     0.02168   0.87420   0.81718   0.00000  Uiso   1.00
H995   H     0.27083   0.87428   0.81712   0.00000  Uiso   1.00
H996   H     0.25649   0.75689   0.91330   0.00000  Uiso   1.00
H997   H     0.14676   0.85457   0.58487   0.00000  Uiso   1.00
H998   H     0.05380   0.85714   0.92097   0.00000  Uiso   1.00
H999   H     0.08479   0.84278   0.56622   0.00000  Uiso   1.00
H1000  H     0.02961   0.86214   0.52014   0.00000  Uiso   1.00
H1001  H     0.19754   0.77233   0.87245   0.00000  Uiso   1.00
H1002  H     0.20282   0.96076   0.80631   0.00000  Uiso   1.00
N1003  N     0.04760   0.83334   0.75001   0.00000  Uiso   1.00
N1004  N     0.28573   0.83331   0.75001   0.00000  Uiso   1.00
O1005  O     0.12846   0.89442   0.75000   0.00000  Uiso   1.00
O1006  O     0.20490   0.89441   0.75001   0.00000  Uiso   1.00
O1007  O     0.10947   0.83333   0.82681   0.00000  Uiso   1.00
O1008  O     0.18591   0.83332   0.82681   0.00000  Uiso   1.00
O1009  O     0.12843   0.77226   0.74999   0.00000  Uiso   1.00
O1010  O     0.20488   0.77225   0.75000   0.00000  Uiso   1.00
O1011  O     0.14742   0.83335   0.67319   0.00000  Uiso   1.00
O1012  O     0.22387   0.83334   0.67319   0.00000  Uiso   1.00
Zn1013 Zn    0.11562   0.83334   0.75000   0.00000  Uiso   1.00
Zn1014 Zn    0.21771   0.83333   0.75000   0.00000  Uiso   1.00
S1015  S     0.12996   0.95592   0.66094   0.00000  Uiso   1.00
O1016  O     0.08439   0.93131   0.68647   0.00000  Uiso   1.00
O1017  O     0.12117   0.98853   0.62379   0.00000  Uiso   1.00
O1018  O     0.17412   0.92372   0.62470   0.00000  Uiso   1.00
H1019  H     0.17820   0.92929   0.58616   0.00000  Uiso   1.00
S1020  S     0.31169   0.75791   0.97783   0.00000  Uiso   1.00
O1021  O     0.00469   0.77740   0.92336   0.00000  Uiso   1.00
O1022  O     0.01066   0.75769   0.51140   0.00000  Uiso   1.00
O1023  O     0.29687   0.70842   0.96894   0.00000  Uiso   1.00
H1024  H     0.32769   0.69495   0.94754   0.00000  Uiso   1.00
C1025  C     0.50062   0.91333   0.74773   0.00000  Uiso   1.00
C1026  C     0.47630   0.82207   0.99281   0.00000  Uiso   1.00
C1027  C     0.48594   0.81155   0.93818   0.00000  Uiso   1.00
C1028  C     0.51323   0.81602   0.51508   0.00000  Uiso   1.00
C1029  C     0.55544   0.79279   0.98670   0.00000  Uiso   1.00
C1030  C     0.55980   0.77634   0.93581   0.00000  Uiso   1.00
C1031  C     0.52582   0.78581   0.91179   0.00000  Uiso   1.00
C1032  C     0.50962   0.83407   0.56427   0.00000  Uiso   1.00
C1033  C     0.58409   0.80218   0.56265   0.00000  Uiso   1.00
C1034  C     0.45573   0.82768   0.91120   0.00000  Uiso   1.00
C1035  C     0.52105   0.97802   0.78021   0.00000  Uiso   1.00
C1036  C     0.47328   0.83120   0.85214   0.00000  Uiso   1.00
C1037  C     0.52102   0.68752   0.78154   0.00000  Uiso   1.00
C1038  C     0.50008   0.70942   0.74942   0.00000  Uiso   1.00
C1039  C     0.48025   0.68952   0.71495   0.00000  Uiso   1.00
C1040  C     0.48140   0.97986   0.71176   0.00000  Uiso   1.00
C1041  C     0.50103   0.95760   0.74595   0.00000  Uiso   1.00
C1042  C     0.65405   0.81061   0.71268   0.00000  Uiso   1.00
C1043  C     0.36865   0.81060   0.71271   0.00000  Uiso   1.00
C1044  C     0.34595   0.85603   0.78734   0.00000  Uiso   1.00
C1045  C     0.63135   0.85605   0.78731   0.00000  Uiso   1.00
C1046  C     0.49984   0.75341   0.75053   0.00000  Uiso   1.00
C1047  C     0.52669   0.83244   0.64778   0.00000  Uiso   1.00
C1048  C     0.59156   0.78653   0.51053   0.00000  Uiso   1.00
C1049  C     0.54256   0.82505   0.58965   0.00000  Uiso   1.00
C1050  C     0.41115   0.84541   0.94103   0.00000  Uiso   1.00
C1051  C     0.39780   0.84928   0.99696   0.00000  Uiso   1.00
C1052  C     0.43031   0.83866   0.52276   0.00000  Uiso   1.00
H1053  H     0.60939   0.79510   0.58315   0.00000  Uiso   1.00
H1054  H     0.53635   0.70352   0.80816   0.00000  Uiso   1.00
H1055  H     0.46552   0.70778   0.68937   0.00000  Uiso   1.00
H1056  H     0.64499   0.79246   0.68283   0.00000  Uiso   1.00
H1057  H     0.39584   0.79238   0.68288   0.00000  Uiso   1.00
H1058  H     0.35502   0.87420   0.81718   0.00000  Uiso   1.00
H1059  H     0.60417   0.87428   0.81712   0.00000  Uiso   1.00
H1060  H     0.58983   0.75689   0.91330   0.00000  Uiso   1.00
H1061  H     0.48009   0.85457   0.58487   0.00000  Uiso   1.00
H1062  H     0.38713   0.85714   0.92097   0.00000  Uiso   1.00
H1063  H     0.41812   0.84278   0.56622   0.00000  Uiso   1.00
H1064  H     0.36294   0.86214   0.52014   0.00000  Uiso   1.00
H1065  H     0.53088   0.77233   0.87245   0.00000  Uiso   1.00
H1066  H     0.53615   0.96076   0.80631   0.00000  Uiso   1.00
N1067  N     0.38093   0.83334   0.75001   0.00000  Uiso   1.00
N1068  N     0.61906   0.83331   0.75001   0.00000  Uiso   1.00
O1069  O     0.46179   0.89442   0.75000   0.00000  Uiso   1.00
O1070  O     0.53823   0.89441   0.75001   0.00000  Uiso   1.00
O1071  O     0.44280   0.83333   0.82681   0.00000  Uiso   1.00
O1072  O     0.51924   0.83332   0.82681   0.00000  Uiso   1.00
O1073  O     0.46177   0.77226   0.74999   0.00000  Uiso   1.00
O1074  O     0.53821   0.77225   0.75000   0.00000  Uiso   1.00
O1075  O     0.48076   0.83335   0.67319   0.00000  Uiso   1.00
O1076  O     0.55720   0.83334   0.67319   0.00000  Uiso   1.00
Zn1077 Zn    0.44896   0.83334   0.75000   0.00000  Uiso   1.00
Zn1078 Zn    0.55104   0.83333   0.75000   0.00000  Uiso   1.00
S1079  S     0.46329   0.95592   0.66094   0.00000  Uiso   1.00
O1080  O     0.41772   0.93131   0.68647   0.00000  Uiso   1.00
O1081  O     0.45451   0.98853   0.62379   0.00000  Uiso   1.00
O1082  O     0.50745   0.92372   0.62470   0.00000  Uiso   1.00
H1083  H     0.51153   0.92929   0.58616   0.00000  Uiso   1.00
S1084  S     0.64503   0.75791   0.97783   0.00000  Uiso   1.00
O1085  O     0.33802   0.77740   0.92336   0.00000  Uiso   1.00
O1086  O     0.34400   0.75769   0.51140   0.00000  Uiso   1.00
O1087  O     0.63021   0.70842   0.96894   0.00000  Uiso   1.00
H1088  H     0.66102   0.69495   0.94754   0.00000  Uiso   1.00
C1089  C     0.83395   0.91333   0.74773   0.00000  Uiso   1.00
C1090  C     0.80964   0.82207   0.99281   0.00000  Uiso   1.00
C1091  C     0.81928   0.81155   0.93818   0.00000  Uiso   1.00
C1092  C     0.84656   0.81602   0.51508   0.00000  Uiso   1.00
C1093  C     0.88877   0.79279   0.98670   0.00000  Uiso   1.00
C1094  C     0.89313   0.77634   0.93581   0.00000  Uiso   1.00
C1095  C     0.85915   0.78581   0.91179   0.00000  Uiso   1.00
C1096  C     0.84295   0.83407   0.56427   0.00000  Uiso   1.00
C1097  C     0.91742   0.80218   0.56265   0.00000  Uiso   1.00
C1098  C     0.78906   0.82768   0.91120   0.00000  Uiso   1.00
C1099  C     0.85438   0.97802   0.78021   0.00000  Uiso   1.00
C1100  C     0.80661   0.83120   0.85214   0.00000  Uiso   1.00
C1101  C     0.85435   0.68752   0.78154   0.00000  Uiso   1.00
C1102  C     0.83341   0.70942   0.74942   0.00000  Uiso   1.00
C1103  C     0.81358   0.68952   0.71495   0.00000  Uiso   1.00
C1104  C     0.81473   0.97986   0.71176   0.00000  Uiso   1.00
C1105  C     0.83436   0.95760   0.74595   0.00000  Uiso   1.00
C1106  C     0.98738   0.81061   0.71268   0.00000  Uiso   1.00
C1107  C     0.70198   0.81060   0.71271   0.00000  Uiso   1.00
C1108  C     0.67928   0.85603   0.78734   0.00000  Uiso   1.00
C1109  C     0.96468   0.85605   0.78731   0.00000  Uiso   1.00
C1110  C     0.83317   0.75341   0.75053   0.00000  Uiso   1.00
C1111  C     0.86003   0.83244   0.64778   0.00000  Uiso   1.00
C1112  C     0.92490   0.78653   0.51053   0.00000  Uiso   1.00
C1113  C     0.87589   0.82505   0.58965   0.00000  Uiso   1.00
C1114  C     0.74448   0.84541   0.94103   0.00000  Uiso   1.00
C1115  C     0.73114   0.84928   0.99696   0.00000  Uiso   1.00
C1116  C     0.76364   0.83866   0.52276   0.00000  Uiso   1.00
H1117  H     0.94272   0.79510   0.58315   0.00000  Uiso   1.00
H1118  H     0.86968   0.70352   0.80816   0.00000  Uiso   1.00
H1119  H     0.79885   0.70778   0.68937   0.00000  Uiso   1.00
H1120  H     0.97832   0.79246   0.68283   0.00000  Uiso   1.00
H1121  H     0.72917   0.79238   0.68288   0.00000  Uiso   1.00
H1122  H     0.68835   0.87420   0.81718   0.00000  Uiso   1.00
H1123  H     0.93750   0.87428   0.81712   0.00000  Uiso   1.00
H1124  H     0.92316   0.75689   0.91330   0.00000  Uiso   1.00
H1125  H     0.81342   0.85457   0.58487   0.00000  Uiso   1.00
H1126  H     0.72047   0.85714   0.92097   0.00000  Uiso   1.00
H1127  H     0.75145   0.84278   0.56622   0.00000  Uiso   1.00
H1128  H     0.69627   0.86214   0.52014   0.00000  Uiso   1.00
H1129  H     0.86421   0.77233   0.87245   0.00000  Uiso   1.00
H1130  H     0.86948   0.96076   0.80631   0.00000  Uiso   1.00
N1131  N     0.71426   0.83334   0.75001   0.00000  Uiso   1.00
N1132  N     0.95239   0.83331   0.75001   0.00000  Uiso   1.00
O1133  O     0.79512   0.89442   0.75000   0.00000  Uiso   1.00
O1134  O     0.87157   0.89441   0.75001   0.00000  Uiso   1.00
O1135  O     0.77613   0.83333   0.82681   0.00000  Uiso   1.00
O1136  O     0.85258   0.83332   0.82681   0.00000  Uiso   1.00
O1137  O     0.79510   0.77226   0.74999   0.00000  Uiso   1.00
O1138  O     0.87154   0.77225   0.75000   0.00000  Uiso   1.00
O1139  O     0.81409   0.83335   0.67319   0.00000  Uiso   1.00
O1140  O     0.89053   0.83334   0.67319   0.00000  Uiso   1.00
Zn1141 Zn    0.78229   0.83334   0.75000   0.00000  Uiso   1.00
Zn1142 Zn    0.88438   0.83333   0.75000   0.00000  Uiso   1.00
S1143  S     0.79662   0.95592   0.66094   0.00000  Uiso   1.00
O1144  O     0.75106   0.93131   0.68647   0.00000  Uiso   1.00
O1145  O     0.78784   0.98853   0.62379   0.00000  Uiso   1.00
O1146  O     0.84079   0.92372   0.62470   0.00000  Uiso   1.00
H1147  H     0.84487   0.92929   0.58616   0.00000  Uiso   1.00
S1148  S     0.97836   0.75791   0.97783   0.00000  Uiso   1.00
O1149  O     0.67136   0.77740   0.92336   0.00000  Uiso   1.00
O1150  O     0.67733   0.75769   0.51140   0.00000  Uiso   1.00
O1151  O     0.96354   0.70842   0.96894   0.00000  Uiso   1.00
H1152  H     0.99436   0.69495   0.94754   0.00000  Uiso   1.00
loop_
_geom_bond_atom_site_label_1
_geom_bond_atom_site_label_2
_geom_bond_distance
_geom_bond_site_symmetry_2
_ccdc_geom_bond_type
C1     C17     1.417   .     S
C1     O45     1.280   .     A
C1     O46     1.284   .     A
C2     C3      1.404   .     A
C2     C580    1.415   .     S
C2     C604    1.420   .     S
C3     C10     1.411   .     A
C3     C7      1.411   .     A
C4     C8      1.386   .     A
C4     C578    1.415   1_554 S
C4     C581    1.425   1_554 S
C5     C6      1.401   .     A
C5     C580    1.425   .     S
C5     C600    1.423   .     S
C6     H36     1.080   .     S
C6     C7      1.388   .     A
C7     H41     1.082   .     S
C8     C25     1.384   .     A
C8     H37     1.078   .     S
C9     C24     1.402   .     A
C9     H29     1.083   .     S
C9     C25     1.397   .     A
C10    C26     1.402   .     A
C10    C12     1.458   .     S
C11    H42     1.084   .     S
C11    C17     1.398   .     A
C11    C205    1.371   .     S
C12    O48     1.293   .     A
C12    O47     1.291   .     A
C13    H30     1.084   .     S
C13    C14     1.390   .     A
C13    C395    1.371   1_545 S
C14    C22     1.407   .     S
C14    C15     1.391   .     A
C15    H31     1.084   .     S
C15    C400    1.378   1_545 S
C16    S55     1.774   .     S
C16    C17     1.412   .     A
C16    C207    1.378   .     S
C18    N44     1.366   .     A
C18    H32     1.082   .     S
C18    C83     1.417   .     S
C19    N43     1.367   .     A
C19    H33     1.082   .     S
C19    C146    1.417   1_455 S
C20    H34     1.082   .     S
C20    N43     1.366   .     A
C20    C149    1.416   1_455 S
C21    H35     1.082   .     S
C21    N44     1.367   .     A
C21    C84     1.416   .     S
C22    O50     1.280   .     A
C22    O49     1.280   .     A
C23    C25     1.453   .     S
C23    O52     1.292   .     A
C23    O51     1.291   .     A
C24    C581    1.423   1_554 S
C24    S636    1.774   1_554 S
C26    H38     1.083   .     S
C26    C27     1.388   .     A
C27    C604    1.392   .     S
C27    H616    1.083   .     S
C28    H39     1.079   .     S
C28    C578    1.420   1_554 S
C28    C603    1.392   1_554 S
H40    C603    1.083   1_554 S
N43    Zn53    2.010   .     S
N44    Zn54    2.010   .     S
O45    Zn53    1.990   .     S
O46    Zn54    1.990   .     S
O47    Zn53    1.958   .     S
O48    Zn54    1.907   .     S
O49    Zn53    1.990   .     S
O50    Zn54    1.990   .     S
O51    Zn53    1.907   .     S
O52    Zn54    1.958   .     S
S55    O56     1.503   .     D
S55    O58     1.681   .     S
S55    O57     1.505   .     D
O58    H59     0.990   .     S
S60    O63     1.682   .     S
S60    C600    1.774   .     S
S60    O125    1.503   .     S
S60    O702    1.504   .     S
O61    S188    1.503   1_455 S
O62    S764    1.504   1_454 S
O63    H64     0.991   .     S
C65    C81     1.417   .     S
C65    O109    1.280   .     A
C65    O110    1.284   .     A
C66    C67     1.404   .     A
C66    C644    1.415   .     S
C66    C668    1.420   .     S
C67    C74     1.411   .     A
C67    C71     1.411   .     A
C68    C72     1.386   .     A
C68    C642    1.415   1_554 S
C68    C645    1.425   1_554 S
C69    C70     1.401   .     A
C69    C644    1.425   .     S
C69    C664    1.423   .     S
C70    H100    1.080   .     S
C70    C71     1.388   .     A
C71    H105    1.082   .     S
C72    C89     1.384   .     A
C72    H101    1.078   .     S
C73    C88     1.402   .     A
C73    H93     1.083   .     S
C73    C89     1.397   .     A
C74    C90     1.402   .     A
C74    C76     1.458   .     S
C75    H106    1.084   .     S
C75    C81     1.398   .     A
C75    C269    1.371   .     S
C76    O112    1.293   .     A
C76    O111    1.291   .     A
C77    H94     1.084   .     S
C77    C78     1.390   .     A
C77    C459    1.371   1_545 S
C78    C86     1.407   .     S
C78    C79     1.391   .     A
C79    H95     1.084   .     S
C79    C464    1.378   1_545 S
C80    S119    1.774   .     S
C80    C81     1.412   .     A
C80    C271    1.378   .     S
C82    N108    1.366   .     A
C82    H96     1.082   .     S
C82    C147    1.417   .     S
C83    N107    1.367   .     A
C83    H97     1.082   .     S
C84    H98     1.082   .     S
C84    N107    1.366   .     A
C85    H99     1.082   .     S
C85    N108    1.367   .     A
C85    C148    1.416   .     S
C86    O114    1.280   .     A
C86    O113    1.280   .     A
C87    C89     1.453   .     S
C87    O116    1.292   .     A
C87    O115    1.291   .     A
C88    C645    1.423   1_554 S
C88    S700    1.774   1_554 S
C90    H102    1.083   .     S
C90    C91     1.388   .     A
C91    C668    1.392   .     S
C91    H680    1.083   .     S
C92    H103    1.079   .     S
C92    C642    1.420   1_554 S
C92    C667    1.392   1_554 S
H104   C667    1.083   1_554 S
N107   Zn117   2.010   .     S
N108   Zn118   2.010   .     S
O109   Zn117   1.990   .     S
O110   Zn118   1.990   .     S
O111   Zn117   1.958   .     S
O112   Zn118   1.907   .     S
O113   Zn117   1.990   .     S
O114   Zn118   1.990   .     S
O115   Zn117   1.907   .     S
O116   Zn118   1.958   .     S
S119   O120    1.503   .     D
S119   O122    1.681   .     S
S119   O121    1.505   .     D
O122   H123    0.990   .     S
S124   O127    1.682   .     S
S124   C664    1.774   .     S
S124   O189    1.503   .     S
S124   O766    1.504   .     S
O126   S636    1.504   1_554 S
O127   H128    0.991   .     S
C129   C145    1.417   .     S
C129   O173    1.280   .     A
C129   O174    1.284   .     A
C130   C131    1.404   .     A
C130   C708    1.415   .     S
C130   C732    1.420   .     S
C131   C138    1.411   .     A
C131   C135    1.411   .     A
C132   C136    1.386   .     A
C132   C706    1.415   1_554 S
C132   C709    1.425   1_554 S
C133   C134    1.401   .     A
C133   C708    1.425   .     S
C133   C728    1.423   .     S
C134   H164    1.080   .     S
C134   C135    1.388   .     A
C135   H169    1.082   .     S
C136   C153    1.384   .     A
C136   H165    1.078   .     S
C137   C152    1.402   .     A
C137   H157    1.083   .     S
C137   C153    1.397   .     A
C138   C154    1.402   .     A
C138   C140    1.458   .     S
C139   H170    1.084   .     S
C139   C145    1.398   .     A
C139   C333    1.371   .     S
C140   O176    1.293   .     A
C140   O175    1.291   .     A
C141   H158    1.084   .     S
C141   C142    1.390   .     A
C141   C523    1.371   1_545 S
C142   C150    1.407   .     S
C142   C143    1.391   .     A
C143   H159    1.084   .     S
C143   C528    1.378   1_545 S
C144   S183    1.774   .     S
C144   C145    1.412   .     A
C144   C335    1.378   .     S
C146   N172    1.366   .     A
C146   H160    1.082   .     S
C146   C19     1.417   1_655 S
C147   N171    1.367   .     A
C147   H161    1.082   .     S
C148   H162    1.082   .     S
C148   N171    1.366   .     A
C149   H163    1.082   .     S
C149   N172    1.367   .     A
C149   C20     1.416   1_655 S
C150   O178    1.280   .     A
C150   O177    1.280   .     A
C151   C153    1.453   .     S
C151   O180    1.292   .     A
C151   O179    1.291   .     A
C152   C709    1.423   1_554 S
C152   S764    1.774   1_554 S
C154   H166    1.083   .     S
C154   C155    1.388   .     A
C155   C732    1.392   .     S
C155   H744    1.083   .     S
C156   H167    1.079   .     S
C156   C706    1.420   1_554 S
C156   C731    1.392   1_554 S
H168   C731    1.083   1_554 S
N171   Zn181   2.010   .     S
N172   Zn182   2.010   .     S
O173   Zn181   1.990   .     S
O174   Zn182   1.990   .     S
O175   Zn181   1.958   .     S
O176   Zn182   1.907   .     S
O177   Zn181   1.990   .     S
O178   Zn182   1.990   .     S
O179   Zn181   1.907   .     S
O180   Zn182   1.958   .     S
S183   O184    1.503   .     D
S183   O186    1.681   .     S
S183   O185    1.505   .     D
O186   H187    0.990   .     S
S188   O191    1.682   .     S
S188   C728    1.774   .     S
S188   O61     1.503   1_655 S
S188   O638    1.504   1_655 S
O190   S700    1.504   1_554 S
O191   H192    0.991   .     S
C193   C209    1.417   .     S
C193   O237    1.280   .     A
C193   O238    1.284   .     A
C194   C195    1.404   .     A
C194   C772    1.415   .     S
C194   C796    1.420   .     S
C195   C202    1.411   .     A
C195   C199    1.411   .     A
C196   C200    1.386   .     A
C196   C770    1.415   1_554 S
C196   C773    1.425   1_554 S
C197   C198    1.401   .     A
C197   C772    1.425   .     S
C197   C792    1.423   .     S
C198   H228    1.080   .     S
C198   C199    1.388   .     A
C199   H233    1.082   .     S
C200   C217    1.384   .     A
C200   H229    1.078   .     S
C201   C216    1.402   .     A
C201   H221    1.083   .     S
C201   C217    1.397   .     A
C202   C218    1.402   .     A
C202   C204    1.458   .     S
C203   H234    1.084   .     S
C203   C209    1.398   .     A
C203   C397    1.371   .     S
C204   O240    1.293   .     A
C204   O239    1.291   .     A
C205   H222    1.084   .     S
C205   C206    1.390   .     A
C206   C214    1.407   .     S
C206   C207    1.391   .     A
C207   H223    1.084   .     S
C208   S247    1.774   .     S
C208   C209    1.412   .     A
C208   C399    1.378   .     S
C210   N236    1.366   .     A
C210   H224    1.082   .     S
C210   C275    1.417   .     S
C211   N235    1.367   .     A
C211   H225    1.082   .     S
C211   C338    1.417   1_455 S
C212   H226    1.082   .     S
C212   N235    1.366   .     A
C212   C341    1.416   1_455 S
C213   H227    1.082   .     S
C213   N236    1.367   .     A
C213   C276    1.416   .     S
C214   O242    1.280   .     A
C214   O241    1.280   .     A
C215   C217    1.453   .     S
C215   O244    1.292   .     A
C215   O243    1.291   .     A
C216   C773    1.423   1_554 S
C216   S828    1.774   1_554 S
C218   H230    1.083   .     S
C218   C219    1.388   .     A
C219   C796    1.392   .     S
C219   H808    1.083   .     S
C220   H231    1.079   .     S
C220   C770    1.420   1_554 S
C220   C795    1.392   1_554 S
H232   C795    1.083   1_554 S
N235   Zn245   2.010   .     S
N236   Zn246   2.010   .     S
O237   Zn245   1.990   .     S
O238   Zn246   1.990   .     S
O239   Zn245   1.958   .     S
O240   Zn246   1.907   .     S
O241   Zn245   1.990   .     S
O242   Zn246   1.990   .     S
O243   Zn245   1.907   .     S
O244   Zn246   1.958   .     S
S247   O248    1.503   .     D
S247   O250    1.681   .     S
S247   O249    1.505   .     D
O250   H251    0.990   .     S
S252   O255    1.682   .     S
S252   C792    1.774   .     S
S252   O317    1.503   .     S
S252   O894    1.504   .     S
O253   S380    1.503   1_455 S
O254   S956    1.504   1_454 S
O255   H256    0.991   .     S
C257   C273    1.417   .     S
C257   O301    1.280   .     A
C257   O302    1.284   .     A
C258   C259    1.404   .     A
C258   C836    1.415   .     S
C258   C860    1.420   .     S
C259   C266    1.411   .     A
C259   C263    1.411   .     A
C260   C264    1.386   .     A
C260   C834    1.415   1_554 S
C260   C837    1.425   1_554 S
C261   C262    1.401   .     A
C261   C836    1.425   .     S
C261   C856    1.423   .     S
C262   H292    1.080   .     S
C262   C263    1.388   .     A
C263   H297    1.082   .     S
C264   C281    1.384   .     A
C264   H293    1.078   .     S
C265   C280    1.402   .     A
C265   H285    1.083   .     S
C265   C281    1.397   .     A
C266   C282    1.402   .     A
C266   C268    1.458   .     S
C267   H298    1.084   .     S
C267   C273    1.398   .     A
C267   C461    1.371   .     S
C268   O304    1.293   .     A
C268   O303    1.291   .     A
C269   H286    1.084   .     S
C269   C270    1.390   .     A
C270   C278    1.407   .     S
C270   C271    1.391   .     A
C271   H287    1.084   .     S
C272   S311    1.774   .     S
C272   C273    1.412   .     A
C272   C463    1.378   .     S
C274   N300    1.366   .     A
C274   H288    1.082   .     S
C274   C339    1.417   .     S
C275   N299    1.367   .     A
C275   H289    1.082   .     S
C276   H290    1.082   .     S
C276   N299    1.366   .     A
C277   H291    1.082   .     S
C277   N300    1.367   .     A
C277   C340    1.416   .     S
C278   O306    1.280   .     A
C278   O305    1.280   .     A
C279   C281    1.453   .     S
C279   O308    1.292   .     A
C279   O307    1.291   .     A
C280   C837    1.423   1_554 S
C280   S892    1.774   1_554 S
C282   H294    1.083   .     S
C282   C283    1.388   .     A
C283   C860    1.392   .     S
C283   H872    1.083   .     S
C284   H295    1.079   .     S
C284   C834    1.420   1_554 S
C284   C859    1.392   1_554 S
H296   C859    1.083   1_554 S
N299   Zn309   2.010   .     S
N300   Zn310   2.010   .     S
O301   Zn309   1.990   .     S
O302   Zn310   1.990   .     S
O303   Zn309   1.958   .     S
O304   Zn310   1.907   .     S
O305   Zn309   1.990   .     S
O306   Zn310   1.990   .     S
O307   Zn309   1.907   .     S
O308   Zn310   1.958   .     S
S311   O312    1.503   .     D
S311   O314    1.681   .     S
S311   O313    1.505   .     D
O314   H315    0.990   .     S
S316   O319    1.682   .     S
S316   C856    1.774   .     S
S316   O381    1.503   .     S
S316   O958    1.504   .     S
O318   S828    1.504   1_554 S
O319   H320    0.991   .     S
C321   C337    1.417   .     S
C321   O365    1.280   .     A
C321   O366    1.284   .     A
C322   C323    1.404   .     A
C322   C900    1.415   .     S
C322   C924    1.420   .     S
C323   C330    1.411   .     A
C323   C327    1.411   .     A
C324   C328    1.386   .     A
C324   C898    1.415   1_554 S
C324   C901    1.425   1_554 S
C325   C326    1.401   .     A
C325   C900    1.425   .     S
C325   C920    1.423   .     S
C326   H356    1.080   .     S
C326   C327    1.388   .     A
C327   H361    1.082   .     S
C328   C345    1.384   .     A
C328   H357    1.078   .     S
C329   C344    1.402   .     A
C329   H349    1.083   .     S
C329   C345    1.397   .     A
C330   C346    1.402   .     A
C330   C332    1.458   .     S
C331   H362    1.084   .     S
C331   C337    1.398   .     A
C331   C525    1.371   .     S
C332   O368    1.293   .     A
C332   O367    1.291   .     A
C333   H350    1.084   .     S
C333   C334    1.390   .     A
C334   C342    1.407   .     S
C334   C335    1.391   .     A
C335   H351    1.084   .     S
C336   S375    1.774   .     S
C336   C337    1.412   .     A
C336   C527    1.378   .     S
C338   N364    1.366   .     A
C338   H352    1.082   .     S
C338   C211    1.417   1_655 S
C339   N363    1.367   .     A
C339   H353    1.082   .     S
C340   H354    1.082   .     S
C340   N363    1.366   .     A
C341   H355    1.082   .     S
C341   N364    1.367   .     A
C341   C212    1.416   1_655 S
C342   O370    1.280   .     A
C342   O369    1.280   .     A
C343   C345    1.453   .     S
C343   O372    1.292   .     A
C343   O371    1.291   .     A
C344   C901    1.423   1_554 S
C344   S956    1.774   1_554 S
C346   H358    1.083   .     S
C346   C347    1.388   .     A
C347   C924    1.392   .     S
C347   H936    1.083   .     S
C348   H359    1.079   .     S
C348   C898    1.420   1_554 S
C348   C923    1.392   1_554 S
H360   C923    1.083   1_554 S
N363   Zn373   2.010   .     S
N364   Zn374   2.010   .     S
O365   Zn373   1.990   .     S
O366   Zn374   1.990   .     S
O367   Zn373   1.958   .     S
O368   Zn374   1.907   .     S
O369   Zn373   1.990   .     S
O370   Zn374   1.990   .     S
O371   Zn373   1.907   .     S
O372   Zn374   1.958   .     S
S375   O376    1.503   .     D
S375   O378    1.681   .     S
S375   O377    1.505   .     D
O378   H379    0.990   .     S
S380   O383    1.682   .     S
S380   C920    1.774   .     S
S380   O253    1.503   1_655 S
S380   O830    1.504   1_655 S
O382   S892    1.504   1_554 S
O383   H384    0.991   .     S
C385   C401    1.417   .     S
C385   O429    1.280   .     A
C385   O430    1.284   .     A
C386   C387    1.404   .     A
C386   C964    1.415   .     S
C386   C988    1.420   .     S
C387   C394    1.411   .     A
C387   C391    1.411   .     A
C388   C392    1.386   .     A
C388   C962    1.415   1_554 S
C388   C965    1.425   1_554 S
C389   C390    1.401   .     A
C389   C964    1.425   .     S
C389   C984    1.423   .     S
C390   H420    1.080   .     S
C390   C391    1.388   .     A
C391   H425    1.082   .     S
C392   C409    1.384   .     A
C392   H421    1.078   .     S
C393   C408    1.402   .     A
C393   H413    1.083   .     S
C393   C409    1.397   .     A
C394   C410    1.402   .     A
C394   C396    1.458   .     S
C395   H426    1.084   .     S
C395   C401    1.398   .     A
C395   C13     1.371   1_565 S
C396   O432    1.293   .     A
C396   O431    1.291   .     A
C397   H414    1.084   .     S
C397   C398    1.390   .     A
C398   C406    1.407   .     S
C398   C399    1.391   .     A
C399   H415    1.084   .     S
C400   S439    1.774   .     S
C400   C401    1.412   .     A
C400   C15     1.378   1_565 S
C402   N428    1.366   .     A
C402   H416    1.082   .     S
C402   C467    1.417   .     S
C403   N427    1.367   .     A
C403   H417    1.082   .     S
C403   C530    1.417   1_455 S
C404   H418    1.082   .     S
C404   N427    1.366   .     A
C404   C533    1.416   1_455 S
C405   H419    1.082   .     S
C405   N428    1.367   .     A
C405   C468    1.416   .     S
C406   O434    1.280   .     A
C406   O433    1.280   .     A
C407   C409    1.453   .     S
C407   O436    1.292   .     A
C407   O435    1.291   .     A
C408   C965    1.423   1_554 S
C408   S1020   1.774   1_554 S
C410   H422    1.083   .     S
C410   C411    1.388   .     A
C411   C988    1.392   .     S
C411   H1000   1.083   .     S
C412   H423    1.079   .     S
C412   C962    1.420   1_554 S
C412   C987    1.392   1_554 S
H424   C987    1.083   1_554 S
N427   Zn437   2.010   .     S
N428   Zn438   2.010   .     S
O429   Zn437   1.990   .     S
O430   Zn438   1.990   .     S
O431   Zn437   1.958   .     S
O432   Zn438   1.907   .     S
O433   Zn437   1.990   .     S
O434   Zn438   1.990   .     S
O435   Zn437   1.907   .     S
O436   Zn438   1.958   .     S
S439   O440    1.503   .     D
S439   O442    1.681   .     S
S439   O441    1.505   .     D
O442   H443    0.990   .     S
S444   O447    1.682   .     S
S444   C984    1.774   .     S
S444   O509    1.503   .     S
S444   O1086   1.504   .     S
O445   S572    1.503   1_455 S
O446   S1148   1.504   1_454 S
O447   H448    0.991   .     S
C449   C465    1.417   .     S
C449   O493    1.280   .     A
C449   O494    1.284   .     A
C450   C451    1.404   .     A
C450   C1028   1.415   .     S
C450   C1052   1.420   .     S
C451   C458    1.411   .     A
C451   C455    1.411   .     A
C452   C456    1.386   .     A
C452   C1026   1.415   1_554 S
C452   C1029   1.425   1_554 S
C453   C454    1.401   .     A
C453   C1028   1.425   .     S
C453   C1048   1.423   .     S
C454   H484    1.080   .     S
C454   C455    1.388   .     A
C455   H489    1.082   .     S
C456   C473    1.384   .     A
C456   H485    1.078   .     S
C457   C472    1.402   .     A
C457   H477    1.083   .     S
C457   C473    1.397   .     A
C458   C474    1.402   .     A
C458   C460    1.458   .     S
C459   H490    1.084   .     S
C459   C465    1.398   .     A
C459   C77     1.371   1_565 S
C460   O496    1.293   .     A
C460   O495    1.291   .     A
C461   H478    1.084   .     S
C461   C462    1.390   .     A
C462   C470    1.407   .     S
C462   C463    1.391   .     A
C463   H479    1.084   .     S
C464   S503    1.774   .     S
C464   C465    1.412   .     A
C464   C79     1.378   1_565 S
C466   N492    1.366   .     A
C466   H480    1.082   .     S
C466   C531    1.417   .     S
C467   N491    1.367   .     A
C467   H481    1.082   .     S
C468   H482    1.082   .     S
C468   N491    1.366   .     A
C469   H483    1.082   .     S
C469   N492    1.367   .     A
C469   C532    1.416   .     S
C470   O498    1.280   .     A
C470   O497    1.280   .     A
C471   C473    1.453   .     S
C471   O500    1.292   .     A
C471   O499    1.291   .     A
C472   C1029   1.423   1_554 S
C472   S1084   1.774   1_554 S
C474   H486    1.083   .     S
C474   C475    1.388   .     A
C475   C1052   1.392   .     S
C475   H1064   1.083   .     S
C476   H487    1.079   .     S
C476   C1026   1.420   1_554 S
C476   C1051   1.392   1_554 S
H488   C1051   1.083   1_554 S
N491   Zn501   2.010   .     S
N492   Zn502   2.010   .     S
O493   Zn501   1.990   .     S
O494   Zn502   1.990   .     S
O495   Zn501   1.958   .     S
O496   Zn502   1.907   .     S
O497   Zn501   1.990   .     S
O498   Zn502   1.990   .     S
O499   Zn501   1.907   .     S
O500   Zn502   1.958   .     S
S503   O504    1.503   .     D
S503   O506    1.681   .     S
S503   O505    1.505   .     D
O506   H507    0.990   .     S
S508   O511    1.682   .     S
S508   C1048   1.774   .     S
S508   O573    1.503   .     S
S508   O1150   1.504   .     S
O510   S1020   1.504   1_554 S
O511   H512    0.991   .     S
C513   C529    1.417   .     S
C513   O557    1.280   .     A
C513   O558    1.284   .     A
C514   C515    1.404   .     A
C514   C1092   1.415   .     S
C514   C1116   1.420   .     S
C515   C522    1.411   .     A
C515   C519    1.411   .     A
C516   C520    1.386   .     A
C516   C1090   1.415   1_554 S
C516   C1093   1.425   1_554 S
C517   C518    1.401   .     A
C517   C1092   1.425   .     S
C517   C1112   1.423   .     S
C518   H548    1.080   .     S
C518   C519    1.388   .     A
C519   H553    1.082   .     S
C520   C537    1.384   .     A
C520   H549    1.078   .     S
C521   C536    1.402   .     A
C521   H541    1.083   .     S
C521   C537    1.397   .     A
C522   C538    1.402   .     A
C522   C524    1.458   .     S
C523   H554    1.084   .     S
C523   C529    1.398   .     A
C523   C141    1.371   1_565 S
C524   O560    1.293   .     A
C524   O559    1.291   .     A
C525   H542    1.084   .     S
C525   C526    1.390   .     A
C526   C534    1.407   .     S
C526   C527    1.391   .     A
C527   H543    1.084   .     S
C528   S567    1.774   .     S
C528   C529    1.412   .     A
C528   C143    1.378   1_565 S
C530   N556    1.366   .     A
C530   H544    1.082   .     S
C530   C403    1.417   1_655 S
C531   N555    1.367   .     A
C531   H545    1.082   .     S
C532   H546    1.082   .     S
C532   N555    1.366   .     A
C533   H547    1.082   .     S
C533   N556    1.367   .     A
C533   C404    1.416   1_655 S
C534   O562    1.280   .     A
C534   O561    1.280   .     A
C535   C537    1.453   .     S
C535   O564    1.292   .     A
C535   O563    1.291   .     A
C536   C1093   1.423   1_554 S
C536   S1148   1.774   1_554 S
C538   H550    1.083   .     S
C538   C539    1.388   .     A
C539   C1116   1.392   .     S
C539   H1128   1.083   .     S
C540   H551    1.079   .     S
C540   C1090   1.420   1_554 S
C540   C1115   1.392   1_554 S
H552   C1115   1.083   1_554 S
N555   Zn565   2.010   .     S
N556   Zn566   2.010   .     S
O557   Zn565   1.990   .     S
O558   Zn566   1.990   .     S
O559   Zn565   1.958   .     S
O560   Zn566   1.907   .     S
O561   Zn565   1.990   .     S
O562   Zn566   1.990   .     S
O563   Zn565   1.907   .     S
O564   Zn566   1.958   .     S
S567   O568    1.503   .     D
S567   O570    1.681   .     S
S567   O569    1.505   .     D
O570   H571    0.990   .     S
S572   O575    1.682   .     S
S572   C1112   1.774   .     S
S572   O445    1.503   1_655 S
S572   O1022   1.504   1_655 S
O574   S1084   1.504   1_554 S
O575   H576    0.991   .     S
C577   C593    1.417   .     S
C577   O621    1.280   .     A
C577   O622    1.284   .     A
C578   C579    1.404   .     A
C578   C4      1.415   1_556 S
C578   C28     1.420   1_556 S
C579   C586    1.411   .     A
C579   C583    1.411   .     A
C580   C584    1.386   .     A
C581   C582    1.401   .     A
C581   C4      1.425   1_556 S
C581   C24     1.423   1_556 S
C582   H612    1.080   .     S
C582   C583    1.388   .     A
C583   H617    1.082   .     S
C584   C601    1.384   .     A
C584   H613    1.078   .     S
C585   C600    1.402   .     A
C585   H605    1.083   .     S
C585   C601    1.397   .     A
C586   C602    1.402   .     A
C586   C588    1.458   .     S
C587   H618    1.084   .     S
C587   C593    1.398   .     A
C587   C781    1.371   .     S
C588   O624    1.293   .     A
C588   O623    1.291   .     A
C589   H606    1.084   .     S
C589   C590    1.390   .     A
C589   C971    1.371   1_545 S
C590   C598    1.407   .     S
C590   C591    1.391   .     A
C591   H607    1.084   .     S
C591   C976    1.378   1_545 S
C592   S631    1.774   .     S
C592   C593    1.412   .     A
C592   C783    1.378   .     S
C594   N620    1.366   .     A
C594   H608    1.082   .     S
C594   C659    1.417   .     S
C595   N619    1.367   .     A
C595   H609    1.082   .     S
C595   C722    1.417   1_455 S
C596   H610    1.082   .     S
C596   N619    1.366   .     A
C596   C725    1.416   1_455 S
C597   H611    1.082   .     S
C597   N620    1.367   .     A
C597   C660    1.416   .     S
C598   O626    1.280   .     A
C598   O625    1.280   .     A
C599   C601    1.453   .     S
C599   O628    1.292   .     A
C599   O627    1.291   .     A
C602   H614    1.083   .     S
C602   C603    1.388   .     A
C603   C28     1.392   1_556 S
C603   H40     1.083   1_556 S
C604   H615    1.079   .     S
N619   Zn629   2.010   .     S
N620   Zn630   2.010   .     S
O621   Zn629   1.990   .     S
O622   Zn630   1.990   .     S
O623   Zn629   1.958   .     S
O624   Zn630   1.907   .     S
O625   Zn629   1.990   .     S
O626   Zn630   1.990   .     S
O627   Zn629   1.907   .     S
O628   Zn630   1.958   .     S
S631   O632    1.503   .     D
S631   O634    1.681   .     S
S631   O633    1.505   .     D
O634   H635    0.990   .     S
S636   O639    1.682   .     S
S636   C24     1.774   1_556 S
S636   O701    1.503   .     S
S636   O126    1.504   1_556 S
O637   S764    1.503   1_455 S
O638   S188    1.504   1_455 S
O639   H640    0.991   .     S
C641   C657    1.417   .     S
C641   O685    1.280   .     A
C641   O686    1.284   .     A
C642   C643    1.404   .     A
C642   C68     1.415   1_556 S
C642   C92     1.420   1_556 S
C643   C650    1.411   .     A
C643   C647    1.411   .     A
C644   C648    1.386   .     A
C645   C646    1.401   .     A
C645   C68     1.425   1_556 S
C645   C88     1.423   1_556 S
C646   H676    1.080   .     S
C646   C647    1.388   .     A
C647   H681    1.082   .     S
C648   C665    1.384   .     A
C648   H677    1.078   .     S
C649   C664    1.402   .     A
C649   H669    1.083   .     S
C649   C665    1.397   .     A
C650   C666    1.402   .     A
C650   C652    1.458   .     S
C651   H682    1.084   .     S
C651   C657    1.398   .     A
C651   C845    1.371   .     S
C652   O688    1.293   .     A
C652   O687    1.291   .     A
C653   H670    1.084   .     S
C653   C654    1.390   .     A
C653   C1035   1.371   1_545 S
C654   C662    1.407   .     S
C654   C655    1.391   .     A
C655   H671    1.084   .     S
C655   C1040   1.378   1_545 S
C656   S695    1.774   .     S
C656   C657    1.412   .     A
C656   C847    1.378   .     S
C658   N684    1.366   .     A
C658   H672    1.082   .     S
C658   C723    1.417   .     S
C659   N683    1.367   .     A
C659   H673    1.082   .     S
C660   H674    1.082   .     S
C660   N683    1.366   .     A
C661   H675    1.082   .     S
C661   N684    1.367   .     A
C661   C724    1.416   .     S
C662   O690    1.280   .     A
C662   O689    1.280   .     A
C663   C665    1.453   .     S
C663   O692    1.292   .     A
C663   O691    1.291   .     A
C666   H678    1.083   .     S
C666   C667    1.388   .     A
C667   C92     1.392   1_556 S
C667   H104    1.083   1_556 S
C668   H679    1.079   .     S
N683   Zn693   2.010   .     S
N684   Zn694   2.010   .     S
O685   Zn693   1.990   .     S
O686   Zn694   1.990   .     S
O687   Zn693   1.958   .     S
O688   Zn694   1.907   .     S
O689   Zn693   1.990   .     S
O690   Zn694   1.990   .     S
O691   Zn693   1.907   .     S
O692   Zn694   1.958   .     S
S695   O696    1.503   .     D
S695   O698    1.681   .     S
S695   O697    1.505   .     D
O698   H699    0.990   .     S
S700   O703    1.682   .     S
S700   C88     1.774   1_556 S
S700   O765    1.503   .     S
S700   O190    1.504   1_556 S
O703   H704    0.991   .     S
C705   C721    1.417   .     S
C705   O749    1.280   .     A
C705   O750    1.284   .     A
C706   C707    1.404   .     A
C706   C132    1.415   1_556 S
C706   C156    1.420   1_556 S
C707   C714    1.411   .     A
C707   C711    1.411   .     A
C708   C712    1.386   .     A
C709   C710    1.401   .     A
C709   C132    1.425   1_556 S
C709   C152    1.423   1_556 S
C710   H740    1.080   .     S
C710   C711    1.388   .     A
C711   H745    1.082   .     S
C712   C729    1.384   .     A
C712   H741    1.078   .     S
C713   C728    1.402   .     A
C713   H733    1.083   .     S
C713   C729    1.397   .     A
C714   C730    1.402   .     A
C714   C716    1.458   .     S
C715   H746    1.084   .     S
C715   C721    1.398   .     A
C715   C909    1.371   .     S
C716   O752    1.293   .     A
C716   O751    1.291   .     A
C717   H734    1.084   .     S
C717   C718    1.390   .     A
C717   C1099   1.371   1_545 S
C718   C726    1.407   .     S
C718   C719    1.391   .     A
C719   H735    1.084   .     S
C719   C1104   1.378   1_545 S
C720   S759    1.774   .     S
C720   C721    1.412   .     A
C720   C911    1.378   .     S
C722   N748    1.366   .     A
C722   H736    1.082   .     S
C722   C595    1.417   1_655 S
C723   N747    1.367   .     A
C723   H737    1.082   .     S
C724   H738    1.082   .     S
C724   N747    1.366   .     A
C725   H739    1.082   .     S
C725   N748    1.367   .     A
C725   C596    1.416   1_655 S
C726   O754    1.280   .     A
C726   O753    1.280   .     A
C727   C729    1.453   .     S
C727   O756    1.292   .     A
C727   O755    1.291   .     A
C730   H742    1.083   .     S
C730   C731    1.388   .     A
C731   C156    1.392   1_556 S
C731   H168    1.083   1_556 S
C732   H743    1.079   .     S
N747   Zn757   2.010   .     S
N748   Zn758   2.010   .     S
O749   Zn757   1.990   .     S
O750   Zn758   1.990   .     S
O751   Zn757   1.958   .     S
O752   Zn758   1.907   .     S
O753   Zn757   1.990   .     S
O754   Zn758   1.990   .     S
O755   Zn757   1.907   .     S
O756   Zn758   1.958   .     S
S759   O760    1.503   .     D
S759   O762    1.681   .     S
S759   O761    1.505   .     D
O762   H763    0.990   .     S
S764   O767    1.682   .     S
S764   C152    1.774   1_556 S
S764   O637    1.503   1_655 S
S764   O62     1.504   1_656 S
O767   H768    0.991   .     S
C769   C785    1.417   .     S
C769   O813    1.280   .     A
C769   O814    1.284   .     A
C770   C771    1.404   .     A
C770   C196    1.415   1_556 S
C770   C220    1.420   1_556 S
C771   C778    1.411   .     A
C771   C775    1.411   .     A
C772   C776    1.386   .     A
C773   C774    1.401   .     A
C773   C196    1.425   1_556 S
C773   C216    1.423   1_556 S
C774   H804    1.080   .     S
C774   C775    1.388   .     A
C775   H809    1.082   .     S
C776   C793    1.384   .     A
C776   H805    1.078   .     S
C777   C792    1.402   .     A
C777   H797    1.083   .     S
C777   C793    1.397   .     A
C778   C794    1.402   .     A
C778   C780    1.458   .     S
C779   H810    1.084   .     S
C779   C785    1.398   .     A
C779   C973    1.371   .     S
C780   O816    1.293   .     A
C780   O815    1.291   .     A
C781   H798    1.084   .     S
C781   C782    1.390   .     A
C782   C790    1.407   .     S
C782   C783    1.391   .     A
C783   H799    1.084   .     S
C784   S823    1.774   .     S
C784   C785    1.412   .     A
C784   C975    1.378   .     S
C786   N812    1.366   .     A
C786   H800    1.082   .     S
C786   C851    1.417   .     S
C787   N811    1.367   .     A
C787   H801    1.082   .     S
C787   C914    1.417   1_455 S
C788   H802    1.082   .     S
C788   N811    1.366   .     A
C788   C917    1.416   1_455 S
C789   H803    1.082   .     S
C789   N812    1.367   .     A
C789   C852    1.416   .     S
C790   O818    1.280   .     A
C790   O817    1.280   .     A
C791   C793    1.453   .     S
C791   O820    1.292   .     A
C791   O819    1.291   .     A
C794   H806    1.083   .     S
C794   C795    1.388   .     A
C795   C220    1.392   1_556 S
C795   H232    1.083   1_556 S
C796   H807    1.079   .     S
N811   Zn821   2.010   .     S
N812   Zn822   2.010   .     S
O813   Zn821   1.990   .     S
O814   Zn822   1.990   .     S
O815   Zn821   1.958   .     S
O816   Zn822   1.907   .     S
O817   Zn821   1.990   .     S
O818   Zn822   1.990   .     S
O819   Zn821   1.907   .     S
O820   Zn822   1.958   .     S
S823   O824    1.503   .     D
S823   O826    1.681   .     S
S823   O825    1.505   .     D
O826   H827    0.990   .     S
S828   O831    1.682   .     S
S828   C216    1.774   1_556 S
S828   O893    1.503   .     S
S828   O318    1.504   1_556 S
O829   S956    1.503   1_455 S
O830   S380    1.504   1_455 S
O831   H832    0.991   .     S
C833   C849    1.417   .     S
C833   O877    1.280   .     A
C833   O878    1.284   .     A
C834   C835    1.404   .     A
C834   C260    1.415   1_556 S
C834   C284    1.420   1_556 S
C835   C842    1.411   .     A
C835   C839    1.411   .     A
C836   C840    1.386   .     A
C837   C838    1.401   .     A
C837   C260    1.425   1_556 S
C837   C280    1.423   1_556 S
C838   H868    1.080   .     S
C838   C839    1.388   .     A
C839   H873    1.082   .     S
C840   C857    1.384   .     A
C840   H869    1.078   .     S
C841   C856    1.402   .     A
C841   H861    1.083   .     S
C841   C857    1.397   .     A
C842   C858    1.402   .     A
C842   C844    1.458   .     S
C843   H874    1.084   .     S
C843   C849    1.398   .     A
C843   C1037   1.371   .     S
C844   O880    1.293   .     A
C844   O879    1.291   .     A
C845   H862    1.084   .     S
C845   C846    1.390   .     A
C846   C854    1.407   .     S
C846   C847    1.391   .     A
C847   H863    1.084   .     S
C848   S887    1.774   .     S
C848   C849    1.412   .     A
C848   C1039   1.378   .     S
C850   N876    1.366   .     A
C850   H864    1.082   .     S
C850   C915    1.417   .     S
C851   N875    1.367   .     A
C851   H865    1.082   .     S
C852   H866    1.082   .     S
C852   N875    1.366   .     A
C853   H867    1.082   .     S
C853   N876    1.367   .     A
C853   C916    1.416   .     S
C854   O882    1.280   .     A
C854   O881    1.280   .     A
C855   C857    1.453   .     S
C855   O884    1.292   .     A
C855   O883    1.291   .     A
C858   H870    1.083   .     S
C858   C859    1.388   .     A
C859   C284    1.392   1_556 S
C859   H296    1.083   1_556 S
C860   H871    1.079   .     S
N875   Zn885   2.010   .     S
N876   Zn886   2.010   .     S
O877   Zn885   1.990   .     S
O878   Zn886   1.990   .     S
O879   Zn885   1.958   .     S
O880   Zn886   1.907   .     S
O881   Zn885   1.990   .     S
O882   Zn886   1.990   .     S
O883   Zn885   1.907   .     S
O884   Zn886   1.958   .     S
S887   O888    1.503   .     D
S887   O890    1.681   .     S
S887   O889    1.505   .     D
O890   H891    0.990   .     S
S892   O895    1.682   .     S
S892   C280    1.774   1_556 S
S892   O957    1.503   .     S
S892   O382    1.504   1_556 S
O895   H896    0.991   .     S
C897   C913    1.417   .     S
C897   O941    1.280   .     A
C897   O942    1.284   .     A
C898   C899    1.404   .     A
C898   C324    1.415   1_556 S
C898   C348    1.420   1_556 S
C899   C906    1.411   .     A
C899   C903    1.411   .     A
C900   C904    1.386   .     A
C901   C902    1.401   .     A
C901   C324    1.425   1_556 S
C901   C344    1.423   1_556 S
C902   H932    1.080   .     S
C902   C903    1.388   .     A
C903   H937    1.082   .     S
C904   C921    1.384   .     A
C904   H933    1.078   .     S
C905   C920    1.402   .     A
C905   H925    1.083   .     S
C905   C921    1.397   .     A
C906   C922    1.402   .     A
C906   C908    1.458   .     S
C907   H938    1.084   .     S
C907   C913    1.398   .     A
C907   C1101   1.371   .     S
C908   O944    1.293   .     A
C908   O943    1.291   .     A
C909   H926    1.084   .     S
C909   C910    1.390   .     A
C910   C918    1.407   .     S
C910   C911    1.391   .     A
C911   H927    1.084   .     S
C912   S951    1.774   .     S
C912   C913    1.412   .     A
C912   C1103   1.378   .     S
C914   N940    1.366   .     A
C914   H928    1.082   .     S
C914   C787    1.417   1_655 S
C915   N939    1.367   .     A
C915   H929    1.082   .     S
C916   H930    1.082   .     S
C916   N939    1.366   .     A
C917   H931    1.082   .     S
C917   N940    1.367   .     A
C917   C788    1.416   1_655 S
C918   O946    1.280   .     A
C918   O945    1.280   .     A
C919   C921    1.453   .     S
C919   O948    1.292   .     A
C919   O947    1.291   .     A
C922   H934    1.083   .     S
C922   C923    1.388   .     A
C923   C348    1.392   1_556 S
C923   H360    1.083   1_556 S
C924   H935    1.079   .     S
N939   Zn949   2.010   .     S
N940   Zn950   2.010   .     S
O941   Zn949   1.990   .     S
O942   Zn950   1.990   .     S
O943   Zn949   1.958   .     S
O944   Zn950   1.907   .     S
O945   Zn949   1.990   .     S
O946   Zn950   1.990   .     S
O947   Zn949   1.907   .     S
O948   Zn950   1.958   .     S
S951   O952    1.503   .     D
S951   O954    1.681   .     S
S951   O953    1.505   .     D
O954   H955    0.990   .     S
S956   O959    1.682   .     S
S956   C344    1.774   1_556 S
S956   O829    1.503   1_655 S
S956   O254    1.504   1_656 S
O959   H960    0.991   .     S
C961   C977    1.417   .     S
C961   O1005   1.280   .     A
C961   O1006   1.284   .     A
C962   C963    1.404   .     A
C962   C388    1.415   1_556 S
C962   C412    1.420   1_556 S
C963   C970    1.411   .     A
C963   C967    1.411   .     A
C964   C968    1.386   .     A
C965   C966    1.401   .     A
C965   C388    1.425   1_556 S
C965   C408    1.423   1_556 S
C966   H996    1.080   .     S
C966   C967    1.388   .     A
C967   H1001   1.082   .     S
C968   C985    1.384   .     A
C968   H997    1.078   .     S
C969   C984    1.402   .     A
C969   H989    1.083   .     S
C969   C985    1.397   .     A
C970   C986    1.402   .     A
C970   C972    1.458   .     S
C971   H1002   1.084   .     S
C971   C977    1.398   .     A
C971   C589    1.371   1_565 S
C972   O1008   1.293   .     A
C972   O1007   1.291   .     A
C973   H990    1.084   .     S
C973   C974    1.390   .     A
C974   C982    1.407   .     S
C974   C975    1.391   .     A
C975   H991    1.084   .     S
C976   S1015   1.774   .     S
C976   C977    1.412   .     A
C976   C591    1.378   1_565 S
C978   N1004   1.366   .     A
C978   H992    1.082   .     S
C978   C1043   1.417   .     S
C979   N1003   1.367   .     A
C979   H993    1.082   .     S
C979   C1106   1.417   1_455 S
C980   H994    1.082   .     S
C980   N1003   1.366   .     A
C980   C1109   1.416   1_455 S
C981   H995    1.082   .     S
C981   N1004   1.367   .     A
C981   C1044   1.416   .     S
C982   O1010   1.280   .     A
C982   O1009   1.280   .     A
C983   C985    1.453   .     S
C983   O1012   1.292   .     A
C983   O1011   1.291   .     A
C986   H998    1.083   .     S
C986   C987    1.388   .     A
C987   C412    1.392   1_556 S
C987   H424    1.083   1_556 S
C988   H999    1.079   .     S
N1003  Zn1013  2.010   .     S
N1004  Zn1014  2.010   .     S
O1005  Zn1013  1.990   .     S
O1006  Zn1014  1.990   .     S
O1007  Zn1013  1.958   .     S
O1008  Zn1014  1.907   .     S
O1009  Zn1013  1.990   .     S
O1010  Zn1014  1.990   .     S
O1011  Zn1013  1.907   .     S
O1012  Zn1014  1.958   .     S
S1015  O1016   1.503   .     D
S1015  O1018   1.681   .     S
S1015  O1017   1.505   .     D
O1018  H1019   0.990   .     S
S1020  O1023   1.682   .     S
S1020  C408    1.774   1_556 S
S1020  O1085   1.503   .     S
S1020  O510    1.504   1_556 S
O1021  S1148   1.503   1_455 S
O1022  S572    1.504   1_455 S
O1023  H1024   0.991   .     S
C1025  C1041   1.417   .     S
C1025  O1069   1.280   .     A
C1025  O1070   1.284   .     A
C1026  C1027   1.404   .     A
C1026  C452    1.415   1_556 S
C1026  C476    1.420   1_556 S
C1027  C1034   1.411   .     A
C1027  C1031   1.411   .     A
C1028  C1032   1.386   .     A
C1029  C1030   1.401   .     A
C1029  C452    1.425   1_556 S
C1029  C472    1.423   1_556 S
C1030  H1060   1.080   .     S
C1030  C1031   1.388   .     A
C1031  H1065   1.082   .     S
C1032  C1049   1.384   .     A
C1032  H1061   1.078   .     S
C1033  C1048   1.402   .     A
C1033  H1053   1.083   .     S
C1033  C1049   1.397   .     A
C1034  C1050   1.402   .     A
C1034  C1036   1.458   .     S
C1035  H1066   1.084   .     S
C1035  C1041   1.398   .     A
C1035  C653    1.371   1_565 S
C1036  O1072   1.293   .     A
C1036  O1071   1.291   .     A
C1037  H1054   1.084   .     S
C1037  C1038   1.390   .     A
C1038  C1046   1.407   .     S
C1038  C1039   1.391   .     A
C1039  H1055   1.084   .     S
C1040  S1079   1.774   .     S
C1040  C1041   1.412   .     A
C1040  C655    1.378   1_565 S
C1042  N1068   1.366   .     A
C1042  H1056   1.082   .     S
C1042  C1107   1.417   .     S
C1043  N1067   1.367   .     A
C1043  H1057   1.082   .     S
C1044  H1058   1.082   .     S
C1044  N1067   1.366   .     A
C1045  H1059   1.082   .     S
C1045  N1068   1.367   .     A
C1045  C1108   1.416   .     S
C1046  O1074   1.280   .     A
C1046  O1073   1.280   .     A
C1047  C1049   1.453   .     S
C1047  O1076   1.292   .     A
C1047  O1075   1.291   .     A
C1050  H1062   1.083   .     S
C1050  C1051   1.388   .     A
C1051  C476    1.392   1_556 S
C1051  H488    1.083   1_556 S
C1052  H1063   1.079   .     S
N1067  Zn1077  2.010   .     S
N1068  Zn1078  2.010   .     S
O1069  Zn1077  1.990   .     S
O1070  Zn1078  1.990   .     S
O1071  Zn1077  1.958   .     S
O1072  Zn1078  1.907   .     S
O1073  Zn1077  1.990   .     S
O1074  Zn1078  1.990   .     S
O1075  Zn1077  1.907   .     S
O1076  Zn1078  1.958   .     S
S1079  O1080   1.503   .     D
S1079  O1082   1.681   .     S
S1079  O1081   1.505   .     D
O1082  H1083   0.990   .     S
S1084  O1087   1.682   .     S
S1084  C472    1.774   1_556 S
S1084  O1149   1.503   .     S
S1084  O574    1.504   1_556 S
O1087  H1088   0.991   .     S
C1089  C1105   1.417   .     S
C1089  O1133   1.280   .     A
C1089  O1134   1.284   .     A
C1090  C1091   1.404   .     A
C1090  C516    1.415   1_556 S
C1090  C540    1.420   1_556 S
C1091  C1098   1.411   .     A
C1091  C1095   1.411   .     A
C1092  C1096   1.386   .     A
C1093  C1094   1.401   .     A
C1093  C516    1.425   1_556 S
C1093  C536    1.423   1_556 S
C1094  H1124   1.080   .     S
C1094  C1095   1.388   .     A
C1095  H1129   1.082   .     S
C1096  C1113   1.384   .     A
C1096  H1125   1.078   .     S
C1097  C1112   1.402   .     A
C1097  H1117   1.083   .     S
C1097  C1113   1.397   .     A
C1098  C1114   1.402   .     A
C1098  C1100   1.458   .     S
C1099  H1130   1.084   .     S
C1099  C1105   1.398   .     A
C1099  C717    1.371   1_565 S
C1100  O1136   1.293   .     A
C1100  O1135   1.291   .     A
C1101  H1118   1.084   .     S
C1101  C1102   1.390   .     A
C1102  C1110   1.407   .     S
C1102  C1103   1.391   .     A
C1103  H1119   1.084   .     S
C1104  S1143   1.774   .     S
C1104  C1105   1.412   .     A
C1104  C719    1.378   1_565 S
C1106  N1132   1.366   .     A
C1106  H1120   1.082   .     S
C1106  C979    1.417   1_655 S
C1107  N1131   1.367   .     A
C1107  H1121   1.082   .     S
C1108  H1122   1.082   .     S
C1108  N1131   1.366   .     A
C1109  H1123   1.082   .     S
C1109  N1132   1.367   .     A
C1109  C980    1.416   1_655 S
C1110  O1138   1.280   .     A
C1110  O1137   1.280   .     A
C1111  C1113   1.453   .     S
C1111  O1140   1.292   .     A
C1111  O1139   1.291   .     A
C1114  H1126   1.083   .     S
C1114  C1115   1.388   .     A
C1115  C540    1.392   1_556 S
C1115  H552    1.083   1_556 S
C1116  H1127   1.079   .     S
N1131  Zn1141  2.010   .     S
N1132  Zn1142  2.010   .     S
O1133  Zn1141  1.990   .     S
O1134  Zn1142  1.990   .     S
O1135  Zn1141  1.958   .     S
O1136  Zn1142  1.907   .     S
O1137  Zn1141  1.990   .     S
O1138  Zn1142  1.990   .     S
O1139  Zn1141  1.907   .     S
O1140  Zn1142  1.958   .     S
S1143  O1144   1.503   .     D
S1143  O1146   1.681   .     S
S1143  O1145   1.505   .     D
O1146  H1147   0.990   .     S
S1148  O1151   1.682   .     S
S1148  C536    1.774   1_556 S
S1148  O1021   1.503   1_655 S
S1148  O446    1.504   1_656 S
O1151  H1152   0.991   .     S
