data_str_m3_o2_o5_pcu_sym.25
_audit_creation_date              2020-01-03
_audit_creation_method            'Materials Studio'
_symmetry_space_group_name_H-M    'P1'
_symmetry_Int_Tables_number       1
_symmetry_cell_setting            triclinic
loop_
_symmetry_equiv_pos_as_xyz
  x,y,z
_cell_length_a                    29.9921
_cell_length_b                    28.3279
_cell_length_c                    26.7563
_cell_angle_alpha                 90.0005
_cell_angle_beta                  89.9962
_cell_angle_gamma                 90.0003
loop_
_atom_site_label
_atom_site_type_symbol
_atom_site_fract_x
_atom_site_fract_y
_atom_site_fract_z
_atom_site_U_iso_or_equiv
_atom_site_adp_type
_atom_site_occupancy
C1     C     0.16394   0.25000   0.16667   0.00000  Uiso   1.00
C2     C     0.21501   0.44759   0.14453   0.00000  Uiso   1.00
C3     C     0.25000   0.25000   0.07283   0.00000  Uiso   1.00
C4     C     0.25000   0.25000   0.26050   0.00000  Uiso   1.00
C5     C     0.25000   0.02661   0.16666   0.00000  Uiso   1.00
C6     C     0.25000   0.47338   0.16667   0.00000  Uiso   1.00
C7     C     0.25000   0.25000   0.02178   0.00000  Uiso   1.00
C8     C     0.25000   0.25000   0.31156   0.00000  Uiso   1.00
C9     C     0.04721   0.28254   0.13593   0.00000  Uiso   1.00
C10    C     0.45280   0.21747   0.13592   0.00000  Uiso   1.00
C11    C     0.45280   0.28255   0.19736   0.00000  Uiso   1.00
C12    C     0.33606   0.25000   0.16666   0.00000  Uiso   1.00
C13    C     0.04719   0.21747   0.19737   0.00000  Uiso   1.00
C14    C     0.09330   0.28241   0.13676   0.00000  Uiso   1.00
C15    C     0.40671   0.21759   0.13676   0.00000  Uiso   1.00
C16    C     0.40671   0.28242   0.19654   0.00000  Uiso   1.00
C17    C     0.09329   0.21759   0.19655   0.00000  Uiso   1.00
C18    C     0.11611   0.25000   0.16666   0.00000  Uiso   1.00
C19    C     0.38389   0.25000   0.16666   0.00000  Uiso   1.00
C20    C     0.02405   0.25000   0.16664   0.00000  Uiso   1.00
C21    C     0.47595   0.25001   0.16664   0.00000  Uiso   1.00
C22    C     0.21551   0.10214   0.18798   0.00000  Uiso   1.00
C23    C     0.28421   0.39786   0.18854   0.00000  Uiso   1.00
C24    C     0.28449   0.10214   0.14535   0.00000  Uiso   1.00
C25    C     0.21579   0.39786   0.14479   0.00000  Uiso   1.00
C26    C     0.21472   0.05240   0.18822   0.00000  Uiso   1.00
C27    C     0.28499   0.44759   0.18880   0.00000  Uiso   1.00
C28    C     0.28528   0.05240   0.14511   0.00000  Uiso   1.00
F29    F     0.11589   0.31311   0.10701   0.00000  Uiso   1.00
F30    F     0.38413   0.18688   0.10702   0.00000  Uiso   1.00
F31    F     0.38413   0.31313   0.22628   0.00000  Uiso   1.00
F32    F     0.11585   0.18689   0.22631   0.00000  Uiso   1.00
F33    F     0.18010   0.02969   0.21033   0.00000  Uiso   1.00
F34    F     0.31931   0.47030   0.21149   0.00000  Uiso   1.00
F35    F     0.31989   0.02969   0.12298   0.00000  Uiso   1.00
F36    F     0.18069   0.47030   0.12184   0.00000  Uiso   1.00
H37    H     0.18843   0.12151   0.20505   0.00000  Uiso   1.00
H38    H     0.31106   0.37848   0.20605   0.00000  Uiso   1.00
H39    H     0.31157   0.12151   0.12827   0.00000  Uiso   1.00
H40    H     0.18894   0.37848   0.12728   0.00000  Uiso   1.00
H41    H     0.49391   0.31031   0.10499   0.00000  Uiso   1.00
H42    H     0.00610   0.18974   0.10495   0.00000  Uiso   1.00
H43    H     0.00611   0.31029   0.22830   0.00000  Uiso   1.00
H44    H     0.49388   0.18971   0.22828   0.00000  Uiso   1.00
N45    N     0.25000   0.12624   0.16667   0.00000  Uiso   1.00
N46    N     0.25000   0.37377   0.16667   0.00000  Uiso   1.00
O47    O     0.18453   0.28974   0.16667   0.00000  Uiso   1.00
O48    O     0.47344   0.18522   0.10469   0.00000  Uiso   1.00
O49    O     0.47345   0.31480   0.22858   0.00000  Uiso   1.00
O50    O     0.02654   0.18522   0.22859   0.00000  Uiso   1.00
O51    O     0.31547   0.21026   0.16666   0.00000  Uiso   1.00
O52    O     0.31547   0.28974   0.16666   0.00000  Uiso   1.00
O53    O     0.18453   0.21026   0.16667   0.00000  Uiso   1.00
O54    O     0.25000   0.28973   0.09511   0.00000  Uiso   1.00
O55    O     0.25000   0.21027   0.23822   0.00000  Uiso   1.00
O56    O     0.25000   0.28973   0.23822   0.00000  Uiso   1.00
O57    O     0.25000   0.21027   0.09511   0.00000  Uiso   1.00
O58    O     0.02657   0.31478   0.10469   0.00000  Uiso   1.00
Zn59   Zn    0.25000   0.30307   0.16667   0.00000  Uiso   1.00
Zn60   Zn    0.25000   0.19693   0.16667   0.00000  Uiso   1.00
C61    C     0.66394   0.25000   0.16667   0.00000  Uiso   1.00
C62    C     0.71501   0.44759   0.14453   0.00000  Uiso   1.00
C63    C     0.75000   0.25000   0.07283   0.00000  Uiso   1.00
C64    C     0.75000   0.25000   0.26050   0.00000  Uiso   1.00
C65    C     0.75000   0.02661   0.16666   0.00000  Uiso   1.00
C66    C     0.75000   0.47338   0.16667   0.00000  Uiso   1.00
C67    C     0.75000   0.25000   0.02178   0.00000  Uiso   1.00
C68    C     0.75000   0.25000   0.31156   0.00000  Uiso   1.00
C69    C     0.54721   0.28254   0.13593   0.00000  Uiso   1.00
C70    C     0.95280   0.21747   0.13592   0.00000  Uiso   1.00
C71    C     0.95280   0.28255   0.19736   0.00000  Uiso   1.00
C72    C     0.83606   0.25000   0.16666   0.00000  Uiso   1.00
C73    C     0.54719   0.21747   0.19737   0.00000  Uiso   1.00
C74    C     0.59330   0.28241   0.13676   0.00000  Uiso   1.00
C75    C     0.90671   0.21759   0.13676   0.00000  Uiso   1.00
C76    C     0.90671   0.28242   0.19654   0.00000  Uiso   1.00
C77    C     0.59329   0.21759   0.19655   0.00000  Uiso   1.00
C78    C     0.61611   0.25000   0.16666   0.00000  Uiso   1.00
C79    C     0.88389   0.25000   0.16666   0.00000  Uiso   1.00
C80    C     0.52405   0.25000   0.16664   0.00000  Uiso   1.00
C81    C     0.97595   0.25001   0.16664   0.00000  Uiso   1.00
C82    C     0.71551   0.10214   0.18798   0.00000  Uiso   1.00
C83    C     0.78421   0.39786   0.18854   0.00000  Uiso   1.00
C84    C     0.78449   0.10214   0.14535   0.00000  Uiso   1.00
C85    C     0.71579   0.39786   0.14479   0.00000  Uiso   1.00
C86    C     0.71472   0.05240   0.18822   0.00000  Uiso   1.00
C87    C     0.78499   0.44759   0.18880   0.00000  Uiso   1.00
C88    C     0.78528   0.05240   0.14511   0.00000  Uiso   1.00
F89    F     0.61589   0.31311   0.10701   0.00000  Uiso   1.00
F90    F     0.88413   0.18688   0.10702   0.00000  Uiso   1.00
F91    F     0.88413   0.31313   0.22628   0.00000  Uiso   1.00
F92    F     0.61585   0.18689   0.22631   0.00000  Uiso   1.00
F93    F     0.68010   0.02969   0.21033   0.00000  Uiso   1.00
F94    F     0.81931   0.47030   0.21149   0.00000  Uiso   1.00
F95    F     0.81989   0.02969   0.12298   0.00000  Uiso   1.00
F96    F     0.68069   0.47030   0.12184   0.00000  Uiso   1.00
H97    H     0.68843   0.12151   0.20505   0.00000  Uiso   1.00
H98    H     0.81106   0.37848   0.20605   0.00000  Uiso   1.00
H99    H     0.81157   0.12151   0.12827   0.00000  Uiso   1.00
H100   H     0.68894   0.37848   0.12728   0.00000  Uiso   1.00
H101   H     0.99391   0.31031   0.10499   0.00000  Uiso   1.00
H102   H     0.50610   0.18974   0.10495   0.00000  Uiso   1.00
H103   H     0.50611   0.31029   0.22830   0.00000  Uiso   1.00
H104   H     0.99388   0.18971   0.22828   0.00000  Uiso   1.00
N105   N     0.75000   0.12624   0.16667   0.00000  Uiso   1.00
N106   N     0.75000   0.37377   0.16667   0.00000  Uiso   1.00
O107   O     0.68453   0.28974   0.16667   0.00000  Uiso   1.00
O108   O     0.97344   0.18522   0.10469   0.00000  Uiso   1.00
O109   O     0.97345   0.31480   0.22858   0.00000  Uiso   1.00
O110   O     0.52654   0.18522   0.22859   0.00000  Uiso   1.00
O111   O     0.81547   0.21026   0.16666   0.00000  Uiso   1.00
O112   O     0.81547   0.28974   0.16666   0.00000  Uiso   1.00
O113   O     0.68453   0.21026   0.16667   0.00000  Uiso   1.00
O114   O     0.75000   0.28973   0.09511   0.00000  Uiso   1.00
O115   O     0.75000   0.21027   0.23822   0.00000  Uiso   1.00
O116   O     0.75000   0.28973   0.23822   0.00000  Uiso   1.00
O117   O     0.75000   0.21027   0.09511   0.00000  Uiso   1.00
O118   O     0.52657   0.31478   0.10469   0.00000  Uiso   1.00
Zn119  Zn    0.75000   0.30307   0.16667   0.00000  Uiso   1.00
Zn120  Zn    0.75000   0.19693   0.16667   0.00000  Uiso   1.00
C121   C     0.16394   0.75000   0.16667   0.00000  Uiso   1.00
C122   C     0.21501   0.94759   0.14453   0.00000  Uiso   1.00
C123   C     0.25000   0.75000   0.07283   0.00000  Uiso   1.00
C124   C     0.25000   0.75000   0.26050   0.00000  Uiso   1.00
C125   C     0.25000   0.52661   0.16666   0.00000  Uiso   1.00
C126   C     0.25000   0.97338   0.16667   0.00000  Uiso   1.00
C127   C     0.25000   0.75000   0.02178   0.00000  Uiso   1.00
C128   C     0.25000   0.75000   0.31156   0.00000  Uiso   1.00
C129   C     0.04721   0.78254   0.13593   0.00000  Uiso   1.00
C130   C     0.45280   0.71747   0.13592   0.00000  Uiso   1.00
C131   C     0.45280   0.78255   0.19736   0.00000  Uiso   1.00
C132   C     0.33606   0.75000   0.16666   0.00000  Uiso   1.00
C133   C     0.04719   0.71747   0.19737   0.00000  Uiso   1.00
C134   C     0.09330   0.78241   0.13676   0.00000  Uiso   1.00
C135   C     0.40671   0.71759   0.13676   0.00000  Uiso   1.00
C136   C     0.40671   0.78242   0.19654   0.00000  Uiso   1.00
C137   C     0.09329   0.71759   0.19655   0.00000  Uiso   1.00
C138   C     0.11611   0.75000   0.16666   0.00000  Uiso   1.00
C139   C     0.38389   0.75000   0.16666   0.00000  Uiso   1.00
C140   C     0.02405   0.75000   0.16664   0.00000  Uiso   1.00
C141   C     0.47595   0.75001   0.16664   0.00000  Uiso   1.00
C142   C     0.21551   0.60214   0.18798   0.00000  Uiso   1.00
C143   C     0.28421   0.89786   0.18854   0.00000  Uiso   1.00
C144   C     0.28449   0.60214   0.14535   0.00000  Uiso   1.00
C145   C     0.21579   0.89786   0.14479   0.00000  Uiso   1.00
C146   C     0.21472   0.55240   0.18822   0.00000  Uiso   1.00
C147   C     0.28499   0.94759   0.18880   0.00000  Uiso   1.00
C148   C     0.28528   0.55240   0.14511   0.00000  Uiso   1.00
F149   F     0.11589   0.81311   0.10701   0.00000  Uiso   1.00
F150   F     0.38413   0.68688   0.10702   0.00000  Uiso   1.00
F151   F     0.38413   0.81313   0.22628   0.00000  Uiso   1.00
F152   F     0.11585   0.68689   0.22631   0.00000  Uiso   1.00
F153   F     0.18010   0.52969   0.21033   0.00000  Uiso   1.00
F154   F     0.31931   0.97030   0.21149   0.00000  Uiso   1.00
F155   F     0.31989   0.52969   0.12298   0.00000  Uiso   1.00
F156   F     0.18069   0.97030   0.12184   0.00000  Uiso   1.00
H157   H     0.18843   0.62151   0.20505   0.00000  Uiso   1.00
H158   H     0.31106   0.87848   0.20605   0.00000  Uiso   1.00
H159   H     0.31157   0.62151   0.12827   0.00000  Uiso   1.00
H160   H     0.18894   0.87848   0.12728   0.00000  Uiso   1.00
H161   H     0.49391   0.81031   0.10499   0.00000  Uiso   1.00
H162   H     0.00610   0.68974   0.10495   0.00000  Uiso   1.00
H163   H     0.00611   0.81029   0.22830   0.00000  Uiso   1.00
H164   H     0.49388   0.68971   0.22828   0.00000  Uiso   1.00
N165   N     0.25000   0.62624   0.16667   0.00000  Uiso   1.00
N166   N     0.25000   0.87377   0.16667   0.00000  Uiso   1.00
O167   O     0.18453   0.78974   0.16667   0.00000  Uiso   1.00
O168   O     0.47344   0.68522   0.10469   0.00000  Uiso   1.00
O169   O     0.47345   0.81480   0.22858   0.00000  Uiso   1.00
O170   O     0.02654   0.68522   0.22859   0.00000  Uiso   1.00
O171   O     0.31547   0.71026   0.16666   0.00000  Uiso   1.00
O172   O     0.31547   0.78974   0.16666   0.00000  Uiso   1.00
O173   O     0.18453   0.71026   0.16667   0.00000  Uiso   1.00
O174   O     0.25000   0.78973   0.09511   0.00000  Uiso   1.00
O175   O     0.25000   0.71027   0.23822   0.00000  Uiso   1.00
O176   O     0.25000   0.78973   0.23822   0.00000  Uiso   1.00
O177   O     0.25000   0.71027   0.09511   0.00000  Uiso   1.00
O178   O     0.02657   0.81478   0.10469   0.00000  Uiso   1.00
Zn179  Zn    0.25000   0.80307   0.16667   0.00000  Uiso   1.00
Zn180  Zn    0.25000   0.69693   0.16667   0.00000  Uiso   1.00
C181   C     0.66394   0.75000   0.16667   0.00000  Uiso   1.00
C182   C     0.71501   0.94759   0.14453   0.00000  Uiso   1.00
C183   C     0.75000   0.75000   0.07283   0.00000  Uiso   1.00
C184   C     0.75000   0.75000   0.26050   0.00000  Uiso   1.00
C185   C     0.75000   0.52661   0.16666   0.00000  Uiso   1.00
C186   C     0.75000   0.97338   0.16667   0.00000  Uiso   1.00
C187   C     0.75000   0.75000   0.02178   0.00000  Uiso   1.00
C188   C     0.75000   0.75000   0.31156   0.00000  Uiso   1.00
C189   C     0.54721   0.78254   0.13593   0.00000  Uiso   1.00
C190   C     0.95280   0.71747   0.13592   0.00000  Uiso   1.00
C191   C     0.95280   0.78255   0.19736   0.00000  Uiso   1.00
C192   C     0.83606   0.75000   0.16666   0.00000  Uiso   1.00
C193   C     0.54719   0.71747   0.19737   0.00000  Uiso   1.00
C194   C     0.59330   0.78241   0.13676   0.00000  Uiso   1.00
C195   C     0.90671   0.71759   0.13676   0.00000  Uiso   1.00
C196   C     0.90671   0.78242   0.19654   0.00000  Uiso   1.00
C197   C     0.59329   0.71759   0.19655   0.00000  Uiso   1.00
C198   C     0.61611   0.75000   0.16666   0.00000  Uiso   1.00
C199   C     0.88389   0.75000   0.16666   0.00000  Uiso   1.00
C200   C     0.52405   0.75000   0.16664   0.00000  Uiso   1.00
C201   C     0.97595   0.75001   0.16664   0.00000  Uiso   1.00
C202   C     0.71551   0.60214   0.18798   0.00000  Uiso   1.00
C203   C     0.78421   0.89786   0.18854   0.00000  Uiso   1.00
C204   C     0.78449   0.60214   0.14535   0.00000  Uiso   1.00
C205   C     0.71579   0.89786   0.14479   0.00000  Uiso   1.00
C206   C     0.71472   0.55240   0.18822   0.00000  Uiso   1.00
C207   C     0.78499   0.94759   0.18880   0.00000  Uiso   1.00
C208   C     0.78528   0.55240   0.14511   0.00000  Uiso   1.00
F209   F     0.61589   0.81311   0.10701   0.00000  Uiso   1.00
F210   F     0.88413   0.68688   0.10702   0.00000  Uiso   1.00
F211   F     0.88413   0.81313   0.22628   0.00000  Uiso   1.00
F212   F     0.61585   0.68689   0.22631   0.00000  Uiso   1.00
F213   F     0.68010   0.52969   0.21033   0.00000  Uiso   1.00
F214   F     0.81931   0.97030   0.21149   0.00000  Uiso   1.00
F215   F     0.81989   0.52969   0.12298   0.00000  Uiso   1.00
F216   F     0.68069   0.97030   0.12184   0.00000  Uiso   1.00
H217   H     0.68843   0.62151   0.20505   0.00000  Uiso   1.00
H218   H     0.81106   0.87848   0.20605   0.00000  Uiso   1.00
H219   H     0.81157   0.62151   0.12827   0.00000  Uiso   1.00
H220   H     0.68894   0.87848   0.12728   0.00000  Uiso   1.00
H221   H     0.99391   0.81031   0.10499   0.00000  Uiso   1.00
H222   H     0.50610   0.68974   0.10495   0.00000  Uiso   1.00
H223   H     0.50611   0.81029   0.22830   0.00000  Uiso   1.00
H224   H     0.99388   0.68971   0.22828   0.00000  Uiso   1.00
N225   N     0.75000   0.62624   0.16667   0.00000  Uiso   1.00
N226   N     0.75000   0.87377   0.16667   0.00000  Uiso   1.00
O227   O     0.68453   0.78974   0.16667   0.00000  Uiso   1.00
O228   O     0.97344   0.68522   0.10469   0.00000  Uiso   1.00
O229   O     0.97345   0.81480   0.22858   0.00000  Uiso   1.00
O230   O     0.52654   0.68522   0.22859   0.00000  Uiso   1.00
O231   O     0.81547   0.71026   0.16666   0.00000  Uiso   1.00
O232   O     0.81547   0.78974   0.16666   0.00000  Uiso   1.00
O233   O     0.68453   0.71026   0.16667   0.00000  Uiso   1.00
O234   O     0.75000   0.78973   0.09511   0.00000  Uiso   1.00
O235   O     0.75000   0.71027   0.23822   0.00000  Uiso   1.00
O236   O     0.75000   0.78973   0.23822   0.00000  Uiso   1.00
O237   O     0.75000   0.71027   0.09511   0.00000  Uiso   1.00
O238   O     0.52657   0.81478   0.10469   0.00000  Uiso   1.00
Zn239  Zn    0.75000   0.80307   0.16667   0.00000  Uiso   1.00
Zn240  Zn    0.75000   0.69693   0.16667   0.00000  Uiso   1.00
C241   C     0.16394   0.25000   0.50000   0.00000  Uiso   1.00
C242   C     0.21501   0.44759   0.47786   0.00000  Uiso   1.00
C243   C     0.25000   0.25000   0.40617   0.00000  Uiso   1.00
C244   C     0.25000   0.25000   0.59383   0.00000  Uiso   1.00
C245   C     0.25000   0.02661   0.50000   0.00000  Uiso   1.00
C246   C     0.25000   0.47338   0.50000   0.00000  Uiso   1.00
C247   C     0.25000   0.25000   0.35511   0.00000  Uiso   1.00
C248   C     0.25000   0.25000   0.64489   0.00000  Uiso   1.00
C249   C     0.04721   0.28254   0.46926   0.00000  Uiso   1.00
C250   C     0.45280   0.21747   0.46926   0.00000  Uiso   1.00
C251   C     0.45280   0.28255   0.53069   0.00000  Uiso   1.00
C252   C     0.33606   0.25000   0.50000   0.00000  Uiso   1.00
C253   C     0.04719   0.21747   0.53070   0.00000  Uiso   1.00
C254   C     0.09330   0.28241   0.47009   0.00000  Uiso   1.00
C255   C     0.40671   0.21759   0.47009   0.00000  Uiso   1.00
C256   C     0.40671   0.28242   0.52987   0.00000  Uiso   1.00
C257   C     0.09329   0.21759   0.52989   0.00000  Uiso   1.00
C258   C     0.11611   0.25000   0.49999   0.00000  Uiso   1.00
C259   C     0.38389   0.25000   0.49999   0.00000  Uiso   1.00
C260   C     0.02405   0.25000   0.49998   0.00000  Uiso   1.00
C261   C     0.47595   0.25001   0.49997   0.00000  Uiso   1.00
C262   C     0.21551   0.10214   0.52131   0.00000  Uiso   1.00
C263   C     0.28421   0.39786   0.52188   0.00000  Uiso   1.00
C264   C     0.28449   0.10214   0.47868   0.00000  Uiso   1.00
C265   C     0.21579   0.39786   0.47812   0.00000  Uiso   1.00
C266   C     0.21472   0.05240   0.52155   0.00000  Uiso   1.00
C267   C     0.28499   0.44759   0.52214   0.00000  Uiso   1.00
C268   C     0.28528   0.05240   0.47844   0.00000  Uiso   1.00
F269   F     0.11589   0.31311   0.44035   0.00000  Uiso   1.00
F270   F     0.38413   0.18688   0.44035   0.00000  Uiso   1.00
F271   F     0.38413   0.31313   0.55962   0.00000  Uiso   1.00
F272   F     0.11585   0.18689   0.55964   0.00000  Uiso   1.00
F273   F     0.18010   0.02969   0.54366   0.00000  Uiso   1.00
F274   F     0.31931   0.47030   0.54482   0.00000  Uiso   1.00
F275   F     0.31989   0.02969   0.45632   0.00000  Uiso   1.00
F276   F     0.18069   0.47030   0.45517   0.00000  Uiso   1.00
H277   H     0.18843   0.12151   0.53838   0.00000  Uiso   1.00
H278   H     0.31106   0.37848   0.53939   0.00000  Uiso   1.00
H279   H     0.31157   0.12151   0.46161   0.00000  Uiso   1.00
H280   H     0.18894   0.37848   0.46061   0.00000  Uiso   1.00
H281   H     0.49391   0.31031   0.43833   0.00000  Uiso   1.00
H282   H     0.00610   0.18974   0.43829   0.00000  Uiso   1.00
H283   H     0.00611   0.31029   0.56163   0.00000  Uiso   1.00
H284   H     0.49388   0.18971   0.56162   0.00000  Uiso   1.00
N285   N     0.25000   0.12624   0.50000   0.00000  Uiso   1.00
N286   N     0.25000   0.37377   0.50000   0.00000  Uiso   1.00
O287   O     0.18453   0.28974   0.50000   0.00000  Uiso   1.00
O288   O     0.47344   0.18522   0.43803   0.00000  Uiso   1.00
O289   O     0.47345   0.31480   0.56191   0.00000  Uiso   1.00
O290   O     0.02654   0.18522   0.56193   0.00000  Uiso   1.00
O291   O     0.31547   0.21026   0.50000   0.00000  Uiso   1.00
O292   O     0.31547   0.28974   0.50000   0.00000  Uiso   1.00
O293   O     0.18453   0.21026   0.50000   0.00000  Uiso   1.00
O294   O     0.25000   0.28973   0.42845   0.00000  Uiso   1.00
O295   O     0.25000   0.21027   0.57155   0.00000  Uiso   1.00
O296   O     0.25000   0.28973   0.57155   0.00000  Uiso   1.00
O297   O     0.25000   0.21027   0.42845   0.00000  Uiso   1.00
O298   O     0.02657   0.31478   0.43802   0.00000  Uiso   1.00
Zn299  Zn    0.25000   0.30307   0.50000   0.00000  Uiso   1.00
Zn300  Zn    0.25000   0.19693   0.50000   0.00000  Uiso   1.00
C301   C     0.66394   0.25000   0.50000   0.00000  Uiso   1.00
C302   C     0.71501   0.44759   0.47786   0.00000  Uiso   1.00
C303   C     0.75000   0.25000   0.40617   0.00000  Uiso   1.00
C304   C     0.75000   0.25000   0.59383   0.00000  Uiso   1.00
C305   C     0.75000   0.02661   0.50000   0.00000  Uiso   1.00
C306   C     0.75000   0.47338   0.50000   0.00000  Uiso   1.00
C307   C     0.75000   0.25000   0.35511   0.00000  Uiso   1.00
C308   C     0.75000   0.25000   0.64489   0.00000  Uiso   1.00
C309   C     0.54721   0.28254   0.46926   0.00000  Uiso   1.00
C310   C     0.95280   0.21747   0.46926   0.00000  Uiso   1.00
C311   C     0.95280   0.28255   0.53069   0.00000  Uiso   1.00
C312   C     0.83606   0.25000   0.50000   0.00000  Uiso   1.00
C313   C     0.54719   0.21747   0.53070   0.00000  Uiso   1.00
C314   C     0.59330   0.28241   0.47009   0.00000  Uiso   1.00
C315   C     0.90671   0.21759   0.47009   0.00000  Uiso   1.00
C316   C     0.90671   0.28242   0.52987   0.00000  Uiso   1.00
C317   C     0.59329   0.21759   0.52989   0.00000  Uiso   1.00
C318   C     0.61611   0.25000   0.49999   0.00000  Uiso   1.00
C319   C     0.88389   0.25000   0.49999   0.00000  Uiso   1.00
C320   C     0.52405   0.25000   0.49998   0.00000  Uiso   1.00
C321   C     0.97595   0.25001   0.49997   0.00000  Uiso   1.00
C322   C     0.71551   0.10214   0.52131   0.00000  Uiso   1.00
C323   C     0.78421   0.39786   0.52188   0.00000  Uiso   1.00
C324   C     0.78449   0.10214   0.47868   0.00000  Uiso   1.00
C325   C     0.71579   0.39786   0.47812   0.00000  Uiso   1.00
C326   C     0.71472   0.05240   0.52155   0.00000  Uiso   1.00
C327   C     0.78499   0.44759   0.52214   0.00000  Uiso   1.00
C328   C     0.78528   0.05240   0.47844   0.00000  Uiso   1.00
F329   F     0.61589   0.31311   0.44035   0.00000  Uiso   1.00
F330   F     0.88413   0.18688   0.44035   0.00000  Uiso   1.00
F331   F     0.88413   0.31313   0.55962   0.00000  Uiso   1.00
F332   F     0.61585   0.18689   0.55964   0.00000  Uiso   1.00
F333   F     0.68010   0.02969   0.54366   0.00000  Uiso   1.00
F334   F     0.81931   0.47030   0.54482   0.00000  Uiso   1.00
F335   F     0.81989   0.02969   0.45632   0.00000  Uiso   1.00
F336   F     0.68069   0.47030   0.45517   0.00000  Uiso   1.00
H337   H     0.68843   0.12151   0.53838   0.00000  Uiso   1.00
H338   H     0.81106   0.37848   0.53939   0.00000  Uiso   1.00
H339   H     0.81157   0.12151   0.46161   0.00000  Uiso   1.00
H340   H     0.68894   0.37848   0.46061   0.00000  Uiso   1.00
H341   H     0.99391   0.31031   0.43833   0.00000  Uiso   1.00
H342   H     0.50610   0.18974   0.43829   0.00000  Uiso   1.00
H343   H     0.50611   0.31029   0.56163   0.00000  Uiso   1.00
H344   H     0.99388   0.18971   0.56162   0.00000  Uiso   1.00
N345   N     0.75000   0.12624   0.50000   0.00000  Uiso   1.00
N346   N     0.75000   0.37377   0.50000   0.00000  Uiso   1.00
O347   O     0.68453   0.28974   0.50000   0.00000  Uiso   1.00
O348   O     0.97344   0.18522   0.43803   0.00000  Uiso   1.00
O349   O     0.97345   0.31480   0.56191   0.00000  Uiso   1.00
O350   O     0.52654   0.18522   0.56193   0.00000  Uiso   1.00
O351   O     0.81547   0.21026   0.50000   0.00000  Uiso   1.00
O352   O     0.81547   0.28974   0.50000   0.00000  Uiso   1.00
O353   O     0.68453   0.21026   0.50000   0.00000  Uiso   1.00
O354   O     0.75000   0.28973   0.42845   0.00000  Uiso   1.00
O355   O     0.75000   0.21027   0.57155   0.00000  Uiso   1.00
O356   O     0.75000   0.28973   0.57155   0.00000  Uiso   1.00
O357   O     0.75000   0.21027   0.42845   0.00000  Uiso   1.00
O358   O     0.52657   0.31478   0.43802   0.00000  Uiso   1.00
Zn359  Zn    0.75000   0.30307   0.50000   0.00000  Uiso   1.00
Zn360  Zn    0.75000   0.19693   0.50000   0.00000  Uiso   1.00
C361   C     0.16394   0.75000   0.50000   0.00000  Uiso   1.00
C362   C     0.21501   0.94759   0.47786   0.00000  Uiso   1.00
C363   C     0.25000   0.75000   0.40617   0.00000  Uiso   1.00
C364   C     0.25000   0.75000   0.59383   0.00000  Uiso   1.00
C365   C     0.25000   0.52661   0.50000   0.00000  Uiso   1.00
C366   C     0.25000   0.97338   0.50000   0.00000  Uiso   1.00
C367   C     0.25000   0.75000   0.35511   0.00000  Uiso   1.00
C368   C     0.25000   0.75000   0.64489   0.00000  Uiso   1.00
C369   C     0.04721   0.78254   0.46926   0.00000  Uiso   1.00
C370   C     0.45280   0.71747   0.46926   0.00000  Uiso   1.00
C371   C     0.45280   0.78255   0.53069   0.00000  Uiso   1.00
C372   C     0.33606   0.75000   0.50000   0.00000  Uiso   1.00
C373   C     0.04719   0.71747   0.53070   0.00000  Uiso   1.00
C374   C     0.09330   0.78241   0.47009   0.00000  Uiso   1.00
C375   C     0.40671   0.71759   0.47009   0.00000  Uiso   1.00
C376   C     0.40671   0.78242   0.52987   0.00000  Uiso   1.00
C377   C     0.09329   0.71759   0.52989   0.00000  Uiso   1.00
C378   C     0.11611   0.75000   0.49999   0.00000  Uiso   1.00
C379   C     0.38389   0.75000   0.49999   0.00000  Uiso   1.00
C380   C     0.02405   0.75000   0.49998   0.00000  Uiso   1.00
C381   C     0.47595   0.75001   0.49997   0.00000  Uiso   1.00
C382   C     0.21551   0.60214   0.52131   0.00000  Uiso   1.00
C383   C     0.28421   0.89786   0.52188   0.00000  Uiso   1.00
C384   C     0.28449   0.60214   0.47868   0.00000  Uiso   1.00
C385   C     0.21579   0.89786   0.47812   0.00000  Uiso   1.00
C386   C     0.21472   0.55240   0.52155   0.00000  Uiso   1.00
C387   C     0.28499   0.94759   0.52214   0.00000  Uiso   1.00
C388   C     0.28528   0.55240   0.47844   0.00000  Uiso   1.00
F389   F     0.11589   0.81311   0.44035   0.00000  Uiso   1.00
F390   F     0.38413   0.68688   0.44035   0.00000  Uiso   1.00
F391   F     0.38413   0.81313   0.55962   0.00000  Uiso   1.00
F392   F     0.11585   0.68689   0.55964   0.00000  Uiso   1.00
F393   F     0.18010   0.52969   0.54366   0.00000  Uiso   1.00
F394   F     0.31931   0.97030   0.54482   0.00000  Uiso   1.00
F395   F     0.31989   0.52969   0.45632   0.00000  Uiso   1.00
F396   F     0.18069   0.97030   0.45517   0.00000  Uiso   1.00
H397   H     0.18843   0.62151   0.53838   0.00000  Uiso   1.00
H398   H     0.31106   0.87848   0.53939   0.00000  Uiso   1.00
H399   H     0.31157   0.62151   0.46161   0.00000  Uiso   1.00
H400   H     0.18894   0.87848   0.46061   0.00000  Uiso   1.00
H401   H     0.49391   0.81031   0.43833   0.00000  Uiso   1.00
H402   H     0.00610   0.68974   0.43829   0.00000  Uiso   1.00
H403   H     0.00611   0.81029   0.56163   0.00000  Uiso   1.00
H404   H     0.49388   0.68971   0.56162   0.00000  Uiso   1.00
N405   N     0.25000   0.62624   0.50000   0.00000  Uiso   1.00
N406   N     0.25000   0.87377   0.50000   0.00000  Uiso   1.00
O407   O     0.18453   0.78974   0.50000   0.00000  Uiso   1.00
O408   O     0.47344   0.68522   0.43803   0.00000  Uiso   1.00
O409   O     0.47345   0.81480   0.56191   0.00000  Uiso   1.00
O410   O     0.02654   0.68522   0.56193   0.00000  Uiso   1.00
O411   O     0.31547   0.71026   0.50000   0.00000  Uiso   1.00
O412   O     0.31547   0.78974   0.50000   0.00000  Uiso   1.00
O413   O     0.18453   0.71026   0.50000   0.00000  Uiso   1.00
O414   O     0.25000   0.78973   0.42845   0.00000  Uiso   1.00
O415   O     0.25000   0.71027   0.57155   0.00000  Uiso   1.00
O416   O     0.25000   0.78973   0.57155   0.00000  Uiso   1.00
O417   O     0.25000   0.71027   0.42845   0.00000  Uiso   1.00
O418   O     0.02657   0.81478   0.43802   0.00000  Uiso   1.00
Zn419  Zn    0.25000   0.80307   0.50000   0.00000  Uiso   1.00
Zn420  Zn    0.25000   0.69693   0.50000   0.00000  Uiso   1.00
C421   C     0.66394   0.75000   0.50000   0.00000  Uiso   1.00
C422   C     0.71501   0.94759   0.47786   0.00000  Uiso   1.00
C423   C     0.75000   0.75000   0.40617   0.00000  Uiso   1.00
C424   C     0.75000   0.75000   0.59383   0.00000  Uiso   1.00
C425   C     0.75000   0.52661   0.50000   0.00000  Uiso   1.00
C426   C     0.75000   0.97338   0.50000   0.00000  Uiso   1.00
C427   C     0.75000   0.75000   0.35511   0.00000  Uiso   1.00
C428   C     0.75000   0.75000   0.64489   0.00000  Uiso   1.00
C429   C     0.54721   0.78254   0.46926   0.00000  Uiso   1.00
C430   C     0.95280   0.71747   0.46926   0.00000  Uiso   1.00
C431   C     0.95280   0.78255   0.53069   0.00000  Uiso   1.00
C432   C     0.83606   0.75000   0.50000   0.00000  Uiso   1.00
C433   C     0.54719   0.71747   0.53070   0.00000  Uiso   1.00
C434   C     0.59330   0.78241   0.47009   0.00000  Uiso   1.00
C435   C     0.90671   0.71759   0.47009   0.00000  Uiso   1.00
C436   C     0.90671   0.78242   0.52987   0.00000  Uiso   1.00
C437   C     0.59329   0.71759   0.52989   0.00000  Uiso   1.00
C438   C     0.61611   0.75000   0.49999   0.00000  Uiso   1.00
C439   C     0.88389   0.75000   0.49999   0.00000  Uiso   1.00
C440   C     0.52405   0.75000   0.49998   0.00000  Uiso   1.00
C441   C     0.97595   0.75001   0.49997   0.00000  Uiso   1.00
C442   C     0.71551   0.60214   0.52131   0.00000  Uiso   1.00
C443   C     0.78421   0.89786   0.52188   0.00000  Uiso   1.00
C444   C     0.78449   0.60214   0.47868   0.00000  Uiso   1.00
C445   C     0.71579   0.89786   0.47812   0.00000  Uiso   1.00
C446   C     0.71472   0.55240   0.52155   0.00000  Uiso   1.00
C447   C     0.78499   0.94759   0.52214   0.00000  Uiso   1.00
C448   C     0.78528   0.55240   0.47844   0.00000  Uiso   1.00
F449   F     0.61589   0.81311   0.44035   0.00000  Uiso   1.00
F450   F     0.88413   0.68688   0.44035   0.00000  Uiso   1.00
F451   F     0.88413   0.81313   0.55962   0.00000  Uiso   1.00
F452   F     0.61585   0.68689   0.55964   0.00000  Uiso   1.00
F453   F     0.68010   0.52969   0.54366   0.00000  Uiso   1.00
F454   F     0.81931   0.97030   0.54482   0.00000  Uiso   1.00
F455   F     0.81989   0.52969   0.45632   0.00000  Uiso   1.00
F456   F     0.68069   0.97030   0.45517   0.00000  Uiso   1.00
H457   H     0.68843   0.62151   0.53838   0.00000  Uiso   1.00
H458   H     0.81106   0.87848   0.53939   0.00000  Uiso   1.00
H459   H     0.81157   0.62151   0.46161   0.00000  Uiso   1.00
H460   H     0.68894   0.87848   0.46061   0.00000  Uiso   1.00
H461   H     0.99391   0.81031   0.43833   0.00000  Uiso   1.00
H462   H     0.50610   0.68974   0.43829   0.00000  Uiso   1.00
H463   H     0.50611   0.81029   0.56163   0.00000  Uiso   1.00
H464   H     0.99388   0.68971   0.56162   0.00000  Uiso   1.00
N465   N     0.75000   0.62624   0.50000   0.00000  Uiso   1.00
N466   N     0.75000   0.87377   0.50000   0.00000  Uiso   1.00
O467   O     0.68453   0.78974   0.50000   0.00000  Uiso   1.00
O468   O     0.97344   0.68522   0.43803   0.00000  Uiso   1.00
O469   O     0.97345   0.81480   0.56191   0.00000  Uiso   1.00
O470   O     0.52654   0.68522   0.56193   0.00000  Uiso   1.00
O471   O     0.81547   0.71026   0.50000   0.00000  Uiso   1.00
O472   O     0.81547   0.78974   0.50000   0.00000  Uiso   1.00
O473   O     0.68453   0.71026   0.50000   0.00000  Uiso   1.00
O474   O     0.75000   0.78973   0.42845   0.00000  Uiso   1.00
O475   O     0.75000   0.71027   0.57155   0.00000  Uiso   1.00
O476   O     0.75000   0.78973   0.57155   0.00000  Uiso   1.00
O477   O     0.75000   0.71027   0.42845   0.00000  Uiso   1.00
O478   O     0.52657   0.81478   0.43802   0.00000  Uiso   1.00
Zn479  Zn    0.75000   0.80307   0.50000   0.00000  Uiso   1.00
Zn480  Zn    0.75000   0.69693   0.50000   0.00000  Uiso   1.00
C481   C     0.16394   0.25000   0.83334   0.00000  Uiso   1.00
C482   C     0.21501   0.44759   0.81119   0.00000  Uiso   1.00
C483   C     0.25000   0.25000   0.73950   0.00000  Uiso   1.00
C484   C     0.25000   0.25000   0.92717   0.00000  Uiso   1.00
C485   C     0.25000   0.02661   0.83333   0.00000  Uiso   1.00
C486   C     0.25000   0.47338   0.83333   0.00000  Uiso   1.00
C487   C     0.25000   0.25000   0.68844   0.00000  Uiso   1.00
C488   C     0.25000   0.25000   0.97822   0.00000  Uiso   1.00
C489   C     0.04721   0.28254   0.80259   0.00000  Uiso   1.00
C490   C     0.45280   0.21747   0.80259   0.00000  Uiso   1.00
C491   C     0.45280   0.28255   0.86402   0.00000  Uiso   1.00
C492   C     0.33606   0.25000   0.83333   0.00000  Uiso   1.00
C493   C     0.04719   0.21747   0.86403   0.00000  Uiso   1.00
C494   C     0.09330   0.28241   0.80342   0.00000  Uiso   1.00
C495   C     0.40671   0.21759   0.80343   0.00000  Uiso   1.00
C496   C     0.40671   0.28242   0.86321   0.00000  Uiso   1.00
C497   C     0.09329   0.21759   0.86322   0.00000  Uiso   1.00
C498   C     0.11611   0.25000   0.83333   0.00000  Uiso   1.00
C499   C     0.38389   0.25000   0.83332   0.00000  Uiso   1.00
C500   C     0.02405   0.25000   0.83331   0.00000  Uiso   1.00
C501   C     0.47595   0.25001   0.83330   0.00000  Uiso   1.00
C502   C     0.21551   0.10214   0.85464   0.00000  Uiso   1.00
C503   C     0.28421   0.39786   0.85521   0.00000  Uiso   1.00
C504   C     0.28449   0.10214   0.81202   0.00000  Uiso   1.00
C505   C     0.21579   0.39786   0.81146   0.00000  Uiso   1.00
C506   C     0.21472   0.05240   0.85489   0.00000  Uiso   1.00
C507   C     0.28499   0.44759   0.85547   0.00000  Uiso   1.00
C508   C     0.28528   0.05240   0.81177   0.00000  Uiso   1.00
F509   F     0.11589   0.31311   0.77368   0.00000  Uiso   1.00
F510   F     0.38413   0.18688   0.77369   0.00000  Uiso   1.00
F511   F     0.38413   0.31313   0.89295   0.00000  Uiso   1.00
F512   F     0.11585   0.18689   0.89297   0.00000  Uiso   1.00
F513   F     0.18010   0.02969   0.87700   0.00000  Uiso   1.00
F514   F     0.31931   0.47030   0.87816   0.00000  Uiso   1.00
F515   F     0.31989   0.02969   0.78965   0.00000  Uiso   1.00
F516   F     0.18069   0.47030   0.78850   0.00000  Uiso   1.00
H517   H     0.18843   0.12151   0.87172   0.00000  Uiso   1.00
H518   H     0.31106   0.37848   0.87272   0.00000  Uiso   1.00
H519   H     0.31157   0.12151   0.79494   0.00000  Uiso   1.00
H520   H     0.18894   0.37848   0.79395   0.00000  Uiso   1.00
H521   H     0.49391   0.31031   0.77166   0.00000  Uiso   1.00
H522   H     0.00610   0.18974   0.77162   0.00000  Uiso   1.00
H523   H     0.00611   0.31029   0.89497   0.00000  Uiso   1.00
H524   H     0.49388   0.18971   0.89495   0.00000  Uiso   1.00
N525   N     0.25000   0.12624   0.83333   0.00000  Uiso   1.00
N526   N     0.25000   0.37377   0.83333   0.00000  Uiso   1.00
O527   O     0.18453   0.28974   0.83334   0.00000  Uiso   1.00
O528   O     0.47344   0.18522   0.77136   0.00000  Uiso   1.00
O529   O     0.47345   0.31480   0.89524   0.00000  Uiso   1.00
O530   O     0.02654   0.18522   0.89526   0.00000  Uiso   1.00
O531   O     0.31547   0.21026   0.83333   0.00000  Uiso   1.00
O532   O     0.31547   0.28974   0.83333   0.00000  Uiso   1.00
O533   O     0.18453   0.21026   0.83334   0.00000  Uiso   1.00
O534   O     0.25000   0.28973   0.76178   0.00000  Uiso   1.00
O535   O     0.25000   0.21027   0.90489   0.00000  Uiso   1.00
O536   O     0.25000   0.28973   0.90489   0.00000  Uiso   1.00
O537   O     0.25000   0.21027   0.76178   0.00000  Uiso   1.00
O538   O     0.02657   0.31478   0.77136   0.00000  Uiso   1.00
Zn539  Zn    0.25000   0.30307   0.83333   0.00000  Uiso   1.00
Zn540  Zn    0.25000   0.19693   0.83333   0.00000  Uiso   1.00
C541   C     0.66394   0.25000   0.83334   0.00000  Uiso   1.00
C542   C     0.71501   0.44759   0.81119   0.00000  Uiso   1.00
C543   C     0.75000   0.25000   0.73950   0.00000  Uiso   1.00
C544   C     0.75000   0.25000   0.92717   0.00000  Uiso   1.00
C545   C     0.75000   0.02661   0.83333   0.00000  Uiso   1.00
C546   C     0.75000   0.47338   0.83333   0.00000  Uiso   1.00
C547   C     0.75000   0.25000   0.68844   0.00000  Uiso   1.00
C548   C     0.75000   0.25000   0.97822   0.00000  Uiso   1.00
C549   C     0.54721   0.28254   0.80259   0.00000  Uiso   1.00
C550   C     0.95280   0.21747   0.80259   0.00000  Uiso   1.00
C551   C     0.95280   0.28255   0.86402   0.00000  Uiso   1.00
C552   C     0.83606   0.25000   0.83333   0.00000  Uiso   1.00
C553   C     0.54719   0.21747   0.86403   0.00000  Uiso   1.00
C554   C     0.59330   0.28241   0.80342   0.00000  Uiso   1.00
C555   C     0.90671   0.21759   0.80343   0.00000  Uiso   1.00
C556   C     0.90671   0.28242   0.86321   0.00000  Uiso   1.00
C557   C     0.59329   0.21759   0.86322   0.00000  Uiso   1.00
C558   C     0.61611   0.25000   0.83333   0.00000  Uiso   1.00
C559   C     0.88389   0.25000   0.83332   0.00000  Uiso   1.00
C560   C     0.52405   0.25000   0.83331   0.00000  Uiso   1.00
C561   C     0.97595   0.25001   0.83330   0.00000  Uiso   1.00
C562   C     0.71551   0.10214   0.85464   0.00000  Uiso   1.00
C563   C     0.78421   0.39786   0.85521   0.00000  Uiso   1.00
C564   C     0.78449   0.10214   0.81202   0.00000  Uiso   1.00
C565   C     0.71579   0.39786   0.81146   0.00000  Uiso   1.00
C566   C     0.71472   0.05240   0.85489   0.00000  Uiso   1.00
C567   C     0.78499   0.44759   0.85547   0.00000  Uiso   1.00
C568   C     0.78528   0.05240   0.81177   0.00000  Uiso   1.00
F569   F     0.61589   0.31311   0.77368   0.00000  Uiso   1.00
F570   F     0.88413   0.18688   0.77369   0.00000  Uiso   1.00
F571   F     0.88413   0.31313   0.89295   0.00000  Uiso   1.00
F572   F     0.61585   0.18689   0.89297   0.00000  Uiso   1.00
F573   F     0.68010   0.02969   0.87700   0.00000  Uiso   1.00
F574   F     0.81931   0.47030   0.87816   0.00000  Uiso   1.00
F575   F     0.81989   0.02969   0.78965   0.00000  Uiso   1.00
F576   F     0.68069   0.47030   0.78850   0.00000  Uiso   1.00
H577   H     0.68843   0.12151   0.87172   0.00000  Uiso   1.00
H578   H     0.81106   0.37848   0.87272   0.00000  Uiso   1.00
H579   H     0.81157   0.12151   0.79494   0.00000  Uiso   1.00
H580   H     0.68894   0.37848   0.79395   0.00000  Uiso   1.00
H581   H     0.99391   0.31031   0.77166   0.00000  Uiso   1.00
H582   H     0.50610   0.18974   0.77162   0.00000  Uiso   1.00
H583   H     0.50611   0.31029   0.89497   0.00000  Uiso   1.00
H584   H     0.99388   0.18971   0.89495   0.00000  Uiso   1.00
N585   N     0.75000   0.12624   0.83333   0.00000  Uiso   1.00
N586   N     0.75000   0.37377   0.83333   0.00000  Uiso   1.00
O587   O     0.68453   0.28974   0.83334   0.00000  Uiso   1.00
O588   O     0.97344   0.18522   0.77136   0.00000  Uiso   1.00
O589   O     0.97345   0.31480   0.89524   0.00000  Uiso   1.00
O590   O     0.52654   0.18522   0.89526   0.00000  Uiso   1.00
O591   O     0.81547   0.21026   0.83333   0.00000  Uiso   1.00
O592   O     0.81547   0.28974   0.83333   0.00000  Uiso   1.00
O593   O     0.68453   0.21026   0.83334   0.00000  Uiso   1.00
O594   O     0.75000   0.28973   0.76178   0.00000  Uiso   1.00
O595   O     0.75000   0.21027   0.90489   0.00000  Uiso   1.00
O596   O     0.75000   0.28973   0.90489   0.00000  Uiso   1.00
O597   O     0.75000   0.21027   0.76178   0.00000  Uiso   1.00
O598   O     0.52657   0.31478   0.77136   0.00000  Uiso   1.00
Zn599  Zn    0.75000   0.30307   0.83333   0.00000  Uiso   1.00
Zn600  Zn    0.75000   0.19693   0.83333   0.00000  Uiso   1.00
C601   C     0.16394   0.75000   0.83334   0.00000  Uiso   1.00
C602   C     0.21501   0.94759   0.81119   0.00000  Uiso   1.00
C603   C     0.25000   0.75000   0.73950   0.00000  Uiso   1.00
C604   C     0.25000   0.75000   0.92717   0.00000  Uiso   1.00
C605   C     0.25000   0.52661   0.83333   0.00000  Uiso   1.00
C606   C     0.25000   0.97338   0.83333   0.00000  Uiso   1.00
C607   C     0.25000   0.75000   0.68844   0.00000  Uiso   1.00
C608   C     0.25000   0.75000   0.97822   0.00000  Uiso   1.00
C609   C     0.04721   0.78254   0.80259   0.00000  Uiso   1.00
C610   C     0.45280   0.71747   0.80259   0.00000  Uiso   1.00
C611   C     0.45280   0.78255   0.86402   0.00000  Uiso   1.00
C612   C     0.33606   0.75000   0.83333   0.00000  Uiso   1.00
C613   C     0.04719   0.71747   0.86403   0.00000  Uiso   1.00
C614   C     0.09330   0.78241   0.80342   0.00000  Uiso   1.00
C615   C     0.40671   0.71759   0.80343   0.00000  Uiso   1.00
C616   C     0.40671   0.78242   0.86321   0.00000  Uiso   1.00
C617   C     0.09329   0.71759   0.86322   0.00000  Uiso   1.00
C618   C     0.11611   0.75000   0.83333   0.00000  Uiso   1.00
C619   C     0.38389   0.75000   0.83332   0.00000  Uiso   1.00
C620   C     0.02405   0.75000   0.83331   0.00000  Uiso   1.00
C621   C     0.47595   0.75001   0.83330   0.00000  Uiso   1.00
C622   C     0.21551   0.60214   0.85464   0.00000  Uiso   1.00
C623   C     0.28421   0.89786   0.85521   0.00000  Uiso   1.00
C624   C     0.28449   0.60214   0.81202   0.00000  Uiso   1.00
C625   C     0.21579   0.89786   0.81146   0.00000  Uiso   1.00
C626   C     0.21472   0.55240   0.85489   0.00000  Uiso   1.00
C627   C     0.28499   0.94759   0.85547   0.00000  Uiso   1.00
C628   C     0.28528   0.55240   0.81177   0.00000  Uiso   1.00
F629   F     0.11589   0.81311   0.77368   0.00000  Uiso   1.00
F630   F     0.38413   0.68688   0.77369   0.00000  Uiso   1.00
F631   F     0.38413   0.81313   0.89295   0.00000  Uiso   1.00
F632   F     0.11585   0.68689   0.89297   0.00000  Uiso   1.00
F633   F     0.18010   0.52969   0.87700   0.00000  Uiso   1.00
F634   F     0.31931   0.97030   0.87816   0.00000  Uiso   1.00
F635   F     0.31989   0.52969   0.78965   0.00000  Uiso   1.00
F636   F     0.18069   0.97030   0.78850   0.00000  Uiso   1.00
H637   H     0.18843   0.62151   0.87172   0.00000  Uiso   1.00
H638   H     0.31106   0.87848   0.87272   0.00000  Uiso   1.00
H639   H     0.31157   0.62151   0.79494   0.00000  Uiso   1.00
H640   H     0.18894   0.87848   0.79395   0.00000  Uiso   1.00
H641   H     0.49391   0.81031   0.77166   0.00000  Uiso   1.00
H642   H     0.00610   0.68974   0.77162   0.00000  Uiso   1.00
H643   H     0.00611   0.81029   0.89497   0.00000  Uiso   1.00
H644   H     0.49388   0.68971   0.89495   0.00000  Uiso   1.00
N645   N     0.25000   0.62624   0.83333   0.00000  Uiso   1.00
N646   N     0.25000   0.87377   0.83333   0.00000  Uiso   1.00
O647   O     0.18453   0.78974   0.83334   0.00000  Uiso   1.00
O648   O     0.47344   0.68522   0.77136   0.00000  Uiso   1.00
O649   O     0.47345   0.81480   0.89524   0.00000  Uiso   1.00
O650   O     0.02654   0.68522   0.89526   0.00000  Uiso   1.00
O651   O     0.31547   0.71026   0.83333   0.00000  Uiso   1.00
O652   O     0.31547   0.78974   0.83333   0.00000  Uiso   1.00
O653   O     0.18453   0.71026   0.83334   0.00000  Uiso   1.00
O654   O     0.25000   0.78973   0.76178   0.00000  Uiso   1.00
O655   O     0.25000   0.71027   0.90489   0.00000  Uiso   1.00
O656   O     0.25000   0.78973   0.90489   0.00000  Uiso   1.00
O657   O     0.25000   0.71027   0.76178   0.00000  Uiso   1.00
O658   O     0.02657   0.81478   0.77136   0.00000  Uiso   1.00
Zn659  Zn    0.25000   0.80307   0.83333   0.00000  Uiso   1.00
Zn660  Zn    0.25000   0.69693   0.83333   0.00000  Uiso   1.00
C661   C     0.66394   0.75000   0.83334   0.00000  Uiso   1.00
C662   C     0.71501   0.94759   0.81119   0.00000  Uiso   1.00
C663   C     0.75000   0.75000   0.73950   0.00000  Uiso   1.00
C664   C     0.75000   0.75000   0.92717   0.00000  Uiso   1.00
C665   C     0.75000   0.52661   0.83333   0.00000  Uiso   1.00
C666   C     0.75000   0.97338   0.83333   0.00000  Uiso   1.00
C667   C     0.75000   0.75000   0.68844   0.00000  Uiso   1.00
C668   C     0.75000   0.75000   0.97822   0.00000  Uiso   1.00
C669   C     0.54721   0.78254   0.80259   0.00000  Uiso   1.00
C670   C     0.95280   0.71747   0.80259   0.00000  Uiso   1.00
C671   C     0.95280   0.78255   0.86402   0.00000  Uiso   1.00
C672   C     0.83606   0.75000   0.83333   0.00000  Uiso   1.00
C673   C     0.54719   0.71747   0.86403   0.00000  Uiso   1.00
C674   C     0.59330   0.78241   0.80342   0.00000  Uiso   1.00
C675   C     0.90671   0.71759   0.80343   0.00000  Uiso   1.00
C676   C     0.90671   0.78242   0.86321   0.00000  Uiso   1.00
C677   C     0.59329   0.71759   0.86322   0.00000  Uiso   1.00
C678   C     0.61611   0.75000   0.83333   0.00000  Uiso   1.00
C679   C     0.88389   0.75000   0.83332   0.00000  Uiso   1.00
C680   C     0.52405   0.75000   0.83331   0.00000  Uiso   1.00
C681   C     0.97595   0.75001   0.83330   0.00000  Uiso   1.00
C682   C     0.71551   0.60214   0.85464   0.00000  Uiso   1.00
C683   C     0.78421   0.89786   0.85521   0.00000  Uiso   1.00
C684   C     0.78449   0.60214   0.81202   0.00000  Uiso   1.00
C685   C     0.71579   0.89786   0.81146   0.00000  Uiso   1.00
C686   C     0.71472   0.55240   0.85489   0.00000  Uiso   1.00
C687   C     0.78499   0.94759   0.85547   0.00000  Uiso   1.00
C688   C     0.78528   0.55240   0.81177   0.00000  Uiso   1.00
F689   F     0.61589   0.81311   0.77368   0.00000  Uiso   1.00
F690   F     0.88413   0.68688   0.77369   0.00000  Uiso   1.00
F691   F     0.88413   0.81313   0.89295   0.00000  Uiso   1.00
F692   F     0.61585   0.68689   0.89297   0.00000  Uiso   1.00
F693   F     0.68010   0.52969   0.87700   0.00000  Uiso   1.00
F694   F     0.81931   0.97030   0.87816   0.00000  Uiso   1.00
F695   F     0.81989   0.52969   0.78965   0.00000  Uiso   1.00
F696   F     0.68069   0.97030   0.78850   0.00000  Uiso   1.00
H697   H     0.68843   0.62151   0.87172   0.00000  Uiso   1.00
H698   H     0.81106   0.87848   0.87272   0.00000  Uiso   1.00
H699   H     0.81157   0.62151   0.79494   0.00000  Uiso   1.00
H700   H     0.68894   0.87848   0.79395   0.00000  Uiso   1.00
H701   H     0.99391   0.81031   0.77166   0.00000  Uiso   1.00
H702   H     0.50610   0.68974   0.77162   0.00000  Uiso   1.00
H703   H     0.50611   0.81029   0.89497   0.00000  Uiso   1.00
H704   H     0.99388   0.68971   0.89495   0.00000  Uiso   1.00
N705   N     0.75000   0.62624   0.83333   0.00000  Uiso   1.00
N706   N     0.75000   0.87377   0.83333   0.00000  Uiso   1.00
O707   O     0.68453   0.78974   0.83334   0.00000  Uiso   1.00
O708   O     0.97344   0.68522   0.77136   0.00000  Uiso   1.00
O709   O     0.97345   0.81480   0.89524   0.00000  Uiso   1.00
O710   O     0.52654   0.68522   0.89526   0.00000  Uiso   1.00
O711   O     0.81547   0.71026   0.83333   0.00000  Uiso   1.00
O712   O     0.81547   0.78974   0.83333   0.00000  Uiso   1.00
O713   O     0.68453   0.71026   0.83334   0.00000  Uiso   1.00
O714   O     0.75000   0.78973   0.76178   0.00000  Uiso   1.00
O715   O     0.75000   0.71027   0.90489   0.00000  Uiso   1.00
O716   O     0.75000   0.78973   0.90489   0.00000  Uiso   1.00
O717   O     0.75000   0.71027   0.76178   0.00000  Uiso   1.00
O718   O     0.52657   0.81478   0.77136   0.00000  Uiso   1.00
Zn719  Zn    0.75000   0.80307   0.83333   0.00000  Uiso   1.00
Zn720  Zn    0.75000   0.69693   0.83333   0.00000  Uiso   1.00
loop_
_geom_bond_atom_site_label_1
_geom_bond_atom_site_label_2
_geom_bond_distance
_geom_bond_site_symmetry_2
_ccdc_geom_bond_type
C1     C18     1.435   .     S
C1     O53     1.284   .     A
C1     O47     1.284   .     A
C2     C6      1.409   .     A
C2     C25     1.409   .     A
C2     F36     1.357   .     S
C3     O57     1.274   .     A
C3     C7      1.366   .     S
C3     O54     1.274   .     A
C4     C8      1.366   .     S
C4     O56     1.274   .     A
C4     O55     1.274   .     A
C5     C28     1.409   .     A
C5     C26     1.409   .     A
C5     C126    1.508   1_545 S
C6     C27     1.409   .     A
C6     C125    1.508   .     S
C7     C488    1.165   1_554 S
C8     C247    1.165   .     S
C9     C14     1.383   .     A
C9     O58     1.384   .     S
C9     C20     1.417   .     A
C10    C21     1.417   .     A
C10    O48     1.384   .     S
C10    C15     1.383   .     A
C11    O49     1.384   .     S
C11    C16     1.383   .     A
C11    C21     1.417   .     A
C12    C19     1.435   .     S
C12    O52     1.284   .     A
C12    O51     1.284   .     A
C13    C17     1.383   .     A
C13    O50     1.384   .     S
C13    C20     1.417   .     A
C14    C18     1.397   .     A
C14    F29     1.360   .     S
C15    C19     1.397   .     A
C15    F30     1.360   .     S
C16    F31     1.360   .     S
C16    C19     1.397   .     A
C17    C18     1.397   .     A
C17    F32     1.360   .     S
C20    C81     1.443   1_455 S
C21    C80     1.443   .     S
C22    N45     1.364   .     A
C22    C26     1.409   .     A
C22    H37     1.081   .     S
C23    C27     1.409   .     A
C23    N46     1.364   .     A
C23    H38     1.081   .     S
C24    N45     1.364   .     A
C24    C28     1.409   .     A
C24    H39     1.081   .     S
C25    H40     1.081   .     S
C25    N46     1.364   .     A
C26    F33     1.357   .     S
C27    F34     1.357   .     S
C28    F35     1.357   .     S
H41    O118    0.988   .     S
H42    O108    0.988   1_455 S
H43    O109    0.988   1_455 S
H44    O110    0.988   .     S
N45    Zn60    2.003   .     S
N46    Zn59    2.003   .     S
O47    Zn59    2.000   .     S
O48    H102    0.988   .     S
O49    H103    0.988   .     S
O50    H104    0.988   1_455 S
O51    Zn60    2.000   .     S
O52    Zn59    2.000   .     S
O53    Zn60    2.000   .     S
O54    Zn59    1.951   .     S
O55    Zn60    1.951   .     S
O56    Zn59    1.951   .     S
O57    Zn60    1.951   .     S
O58    H101    0.988   1_455 S
C61    C78     1.435   .     S
C61    O113    1.284   .     A
C61    O107    1.284   .     A
C62    C66     1.409   .     A
C62    C85     1.409   .     A
C62    F96     1.357   .     S
C63    O117    1.274   .     A
C63    C67     1.366   .     S
C63    O114    1.274   .     A
C64    C68     1.366   .     S
C64    O116    1.274   .     A
C64    O115    1.274   .     A
C65    C88     1.409   .     A
C65    C86     1.409   .     A
C65    C186    1.508   1_545 S
C66    C87     1.409   .     A
C66    C185    1.508   .     S
C67    C548    1.165   1_554 S
C68    C307    1.165   .     S
C69    C74     1.383   .     A
C69    O118    1.384   .     S
C69    C80     1.417   .     A
C70    C81     1.417   .     A
C70    O108    1.384   .     S
C70    C75     1.383   .     A
C71    O109    1.384   .     S
C71    C76     1.383   .     A
C71    C81     1.417   .     A
C72    C79     1.435   .     S
C72    O112    1.284   .     A
C72    O111    1.284   .     A
C73    C77     1.383   .     A
C73    O110    1.384   .     S
C73    C80     1.417   .     A
C74    C78     1.397   .     A
C74    F89     1.360   .     S
C75    C79     1.397   .     A
C75    F90     1.360   .     S
C76    F91     1.360   .     S
C76    C79     1.397   .     A
C77    C78     1.397   .     A
C77    F92     1.360   .     S
C81    C20     1.443   1_655 S
C82    N105    1.364   .     A
C82    C86     1.409   .     A
C82    H97     1.081   .     S
C83    C87     1.409   .     A
C83    N106    1.364   .     A
C83    H98     1.081   .     S
C84    N105    1.364   .     A
C84    C88     1.409   .     A
C84    H99     1.081   .     S
C85    H100    1.081   .     S
C85    N106    1.364   .     A
C86    F93     1.357   .     S
C87    F94     1.357   .     S
C88    F95     1.357   .     S
H101   O58     0.988   1_655 S
H104   O50     0.988   1_655 S
N105   Zn120   2.003   .     S
N106   Zn119   2.003   .     S
O107   Zn119   2.000   .     S
O108   H42     0.988   1_655 S
O109   H43     0.988   1_655 S
O111   Zn120   2.000   .     S
O112   Zn119   2.000   .     S
O113   Zn120   2.000   .     S
O114   Zn119   1.951   .     S
O115   Zn120   1.951   .     S
O116   Zn119   1.951   .     S
O117   Zn120   1.951   .     S
C121   C138    1.435   .     S
C121   O173    1.284   .     A
C121   O167    1.284   .     A
C122   C126    1.409   .     A
C122   C145    1.409   .     A
C122   F156    1.357   .     S
C123   O177    1.274   .     A
C123   C127    1.366   .     S
C123   O174    1.274   .     A
C124   C128    1.366   .     S
C124   O176    1.274   .     A
C124   O175    1.274   .     A
C125   C148    1.409   .     A
C125   C146    1.409   .     A
C126   C147    1.409   .     A
C126   C5      1.508   1_565 S
C127   C608    1.165   1_554 S
C128   C367    1.165   .     S
C129   C134    1.383   .     A
C129   O178    1.384   .     S
C129   C140    1.417   .     A
C130   C141    1.417   .     A
C130   O168    1.384   .     S
C130   C135    1.383   .     A
C131   O169    1.384   .     S
C131   C136    1.383   .     A
C131   C141    1.417   .     A
C132   C139    1.435   .     S
C132   O172    1.284   .     A
C132   O171    1.284   .     A
C133   C137    1.383   .     A
C133   O170    1.384   .     S
C133   C140    1.417   .     A
C134   C138    1.397   .     A
C134   F149    1.360   .     S
C135   C139    1.397   .     A
C135   F150    1.360   .     S
C136   F151    1.360   .     S
C136   C139    1.397   .     A
C137   C138    1.397   .     A
C137   F152    1.360   .     S
C140   C201    1.443   1_455 S
C141   C200    1.443   .     S
C142   N165    1.364   .     A
C142   C146    1.409   .     A
C142   H157    1.081   .     S
C143   C147    1.409   .     A
C143   N166    1.364   .     A
C143   H158    1.081   .     S
C144   N165    1.364   .     A
C144   C148    1.409   .     A
C144   H159    1.081   .     S
C145   H160    1.081   .     S
C145   N166    1.364   .     A
C146   F153    1.357   .     S
C147   F154    1.357   .     S
C148   F155    1.357   .     S
H161   O238    0.988   .     S
H162   O228    0.988   1_455 S
H163   O229    0.988   1_455 S
H164   O230    0.988   .     S
N165   Zn180   2.003   .     S
N166   Zn179   2.003   .     S
O167   Zn179   2.000   .     S
O168   H222    0.988   .     S
O169   H223    0.988   .     S
O170   H224    0.988   1_455 S
O171   Zn180   2.000   .     S
O172   Zn179   2.000   .     S
O173   Zn180   2.000   .     S
O174   Zn179   1.951   .     S
O175   Zn180   1.951   .     S
O176   Zn179   1.951   .     S
O177   Zn180   1.951   .     S
O178   H221    0.988   1_455 S
C181   C198    1.435   .     S
C181   O233    1.284   .     A
C181   O227    1.284   .     A
C182   C186    1.409   .     A
C182   C205    1.409   .     A
C182   F216    1.357   .     S
C183   O237    1.274   .     A
C183   C187    1.366   .     S
C183   O234    1.274   .     A
C184   C188    1.366   .     S
C184   O236    1.274   .     A
C184   O235    1.274   .     A
C185   C208    1.409   .     A
C185   C206    1.409   .     A
C186   C207    1.409   .     A
C186   C65     1.508   1_565 S
C187   C668    1.165   1_554 S
C188   C427    1.165   .     S
C189   C194    1.383   .     A
C189   O238    1.384   .     S
C189   C200    1.417   .     A
C190   C201    1.417   .     A
C190   O228    1.384   .     S
C190   C195    1.383   .     A
C191   O229    1.384   .     S
C191   C196    1.383   .     A
C191   C201    1.417   .     A
C192   C199    1.435   .     S
C192   O232    1.284   .     A
C192   O231    1.284   .     A
C193   C197    1.383   .     A
C193   O230    1.384   .     S
C193   C200    1.417   .     A
C194   C198    1.397   .     A
C194   F209    1.360   .     S
C195   C199    1.397   .     A
C195   F210    1.360   .     S
C196   F211    1.360   .     S
C196   C199    1.397   .     A
C197   C198    1.397   .     A
C197   F212    1.360   .     S
C201   C140    1.443   1_655 S
C202   N225    1.364   .     A
C202   C206    1.409   .     A
C202   H217    1.081   .     S
C203   C207    1.409   .     A
C203   N226    1.364   .     A
C203   H218    1.081   .     S
C204   N225    1.364   .     A
C204   C208    1.409   .     A
C204   H219    1.081   .     S
C205   H220    1.081   .     S
C205   N226    1.364   .     A
C206   F213    1.357   .     S
C207   F214    1.357   .     S
C208   F215    1.357   .     S
H221   O178    0.988   1_655 S
H224   O170    0.988   1_655 S
N225   Zn240   2.003   .     S
N226   Zn239   2.003   .     S
O227   Zn239   2.000   .     S
O228   H162    0.988   1_655 S
O229   H163    0.988   1_655 S
O231   Zn240   2.000   .     S
O232   Zn239   2.000   .     S
O233   Zn240   2.000   .     S
O234   Zn239   1.951   .     S
O235   Zn240   1.951   .     S
O236   Zn239   1.951   .     S
O237   Zn240   1.951   .     S
C241   C258    1.435   .     S
C241   O293    1.284   .     A
C241   O287    1.284   .     A
C242   C246    1.409   .     A
C242   C265    1.409   .     A
C242   F276    1.357   .     S
C243   O297    1.274   .     A
C243   C247    1.366   .     S
C243   O294    1.274   .     A
C244   C248    1.366   .     S
C244   O296    1.274   .     A
C244   O295    1.274   .     A
C245   C268    1.409   .     A
C245   C266    1.409   .     A
C245   C366    1.508   1_545 S
C246   C267    1.409   .     A
C246   C365    1.508   .     S
C248   C487    1.165   .     S
C249   C254    1.383   .     A
C249   O298    1.384   .     S
C249   C260    1.417   .     A
C250   C261    1.417   .     A
C250   O288    1.384   .     S
C250   C255    1.383   .     A
C251   O289    1.384   .     S
C251   C256    1.383   .     A
C251   C261    1.417   .     A
C252   C259    1.435   .     S
C252   O292    1.284   .     A
C252   O291    1.284   .     A
C253   C257    1.383   .     A
C253   O290    1.384   .     S
C253   C260    1.417   .     A
C254   C258    1.397   .     A
C254   F269    1.360   .     S
C255   C259    1.397   .     A
C255   F270    1.360   .     S
C256   F271    1.360   .     S
C256   C259    1.397   .     A
C257   C258    1.397   .     A
C257   F272    1.360   .     S
C260   C321    1.443   1_455 S
C261   C320    1.443   .     S
C262   N285    1.364   .     A
C262   C266    1.409   .     A
C262   H277    1.081   .     S
C263   C267    1.409   .     A
C263   N286    1.364   .     A
C263   H278    1.081   .     S
C264   N285    1.364   .     A
C264   C268    1.409   .     A
C264   H279    1.081   .     S
C265   H280    1.081   .     S
C265   N286    1.364   .     A
C266   F273    1.357   .     S
C267   F274    1.357   .     S
C268   F275    1.357   .     S
H281   O358    0.988   .     S
H282   O348    0.988   1_455 S
H283   O349    0.988   1_455 S
H284   O350    0.988   .     S
N285   Zn300   2.003   .     S
N286   Zn299   2.003   .     S
O287   Zn299   2.000   .     S
O288   H342    0.988   .     S
O289   H343    0.988   .     S
O290   H344    0.988   1_455 S
O291   Zn300   2.000   .     S
O292   Zn299   2.000   .     S
O293   Zn300   2.000   .     S
O294   Zn299   1.951   .     S
O295   Zn300   1.951   .     S
O296   Zn299   1.951   .     S
O297   Zn300   1.951   .     S
O298   H341    0.988   1_455 S
C301   C318    1.435   .     S
C301   O353    1.284   .     A
C301   O347    1.284   .     A
C302   C306    1.409   .     A
C302   C325    1.409   .     A
C302   F336    1.357   .     S
C303   O357    1.274   .     A
C303   C307    1.366   .     S
C303   O354    1.274   .     A
C304   C308    1.366   .     S
C304   O356    1.274   .     A
C304   O355    1.274   .     A
C305   C328    1.409   .     A
C305   C326    1.409   .     A
C305   C426    1.508   1_545 S
C306   C327    1.409   .     A
C306   C425    1.508   .     S
C308   C547    1.165   .     S
C309   C314    1.383   .     A
C309   O358    1.384   .     S
C309   C320    1.417   .     A
C310   C321    1.417   .     A
C310   O348    1.384   .     S
C310   C315    1.383   .     A
C311   O349    1.384   .     S
C311   C316    1.383   .     A
C311   C321    1.417   .     A
C312   C319    1.435   .     S
C312   O352    1.284   .     A
C312   O351    1.284   .     A
C313   C317    1.383   .     A
C313   O350    1.384   .     S
C313   C320    1.417   .     A
C314   C318    1.397   .     A
C314   F329    1.360   .     S
C315   C319    1.397   .     A
C315   F330    1.360   .     S
C316   F331    1.360   .     S
C316   C319    1.397   .     A
C317   C318    1.397   .     A
C317   F332    1.360   .     S
C321   C260    1.443   1_655 S
C322   N345    1.364   .     A
C322   C326    1.409   .     A
C322   H337    1.081   .     S
C323   C327    1.409   .     A
C323   N346    1.364   .     A
C323   H338    1.081   .     S
C324   N345    1.364   .     A
C324   C328    1.409   .     A
C324   H339    1.081   .     S
C325   H340    1.081   .     S
C325   N346    1.364   .     A
C326   F333    1.357   .     S
C327   F334    1.357   .     S
C328   F335    1.357   .     S
H341   O298    0.988   1_655 S
H344   O290    0.988   1_655 S
N345   Zn360   2.003   .     S
N346   Zn359   2.003   .     S
O347   Zn359   2.000   .     S
O348   H282    0.988   1_655 S
O349   H283    0.988   1_655 S
O351   Zn360   2.000   .     S
O352   Zn359   2.000   .     S
O353   Zn360   2.000   .     S
O354   Zn359   1.951   .     S
O355   Zn360   1.951   .     S
O356   Zn359   1.951   .     S
O357   Zn360   1.951   .     S
C361   C378    1.435   .     S
C361   O413    1.284   .     A
C361   O407    1.284   .     A
C362   C366    1.409   .     A
C362   C385    1.409   .     A
C362   F396    1.357   .     S
C363   O417    1.274   .     A
C363   C367    1.366   .     S
C363   O414    1.274   .     A
C364   C368    1.366   .     S
C364   O416    1.274   .     A
C364   O415    1.274   .     A
C365   C388    1.409   .     A
C365   C386    1.409   .     A
C366   C387    1.409   .     A
C366   C245    1.508   1_565 S
C368   C607    1.165   .     S
C369   C374    1.383   .     A
C369   O418    1.384   .     S
C369   C380    1.417   .     A
C370   C381    1.417   .     A
C370   O408    1.384   .     S
C370   C375    1.383   .     A
C371   O409    1.384   .     S
C371   C376    1.383   .     A
C371   C381    1.417   .     A
C372   C379    1.435   .     S
C372   O412    1.284   .     A
C372   O411    1.284   .     A
C373   C377    1.383   .     A
C373   O410    1.384   .     S
C373   C380    1.417   .     A
C374   C378    1.397   .     A
C374   F389    1.360   .     S
C375   C379    1.397   .     A
C375   F390    1.360   .     S
C376   F391    1.360   .     S
C376   C379    1.397   .     A
C377   C378    1.397   .     A
C377   F392    1.360   .     S
C380   C441    1.443   1_455 S
C381   C440    1.443   .     S
C382   N405    1.364   .     A
C382   C386    1.409   .     A
C382   H397    1.081   .     S
C383   C387    1.409   .     A
C383   N406    1.364   .     A
C383   H398    1.081   .     S
C384   N405    1.364   .     A
C384   C388    1.409   .     A
C384   H399    1.081   .     S
C385   H400    1.081   .     S
C385   N406    1.364   .     A
C386   F393    1.357   .     S
C387   F394    1.357   .     S
C388   F395    1.357   .     S
H401   O478    0.988   .     S
H402   O468    0.988   1_455 S
H403   O469    0.988   1_455 S
H404   O470    0.988   .     S
N405   Zn420   2.003   .     S
N406   Zn419   2.003   .     S
O407   Zn419   2.000   .     S
O408   H462    0.988   .     S
O409   H463    0.988   .     S
O410   H464    0.988   1_455 S
O411   Zn420   2.000   .     S
O412   Zn419   2.000   .     S
O413   Zn420   2.000   .     S
O414   Zn419   1.951   .     S
O415   Zn420   1.951   .     S
O416   Zn419   1.951   .     S
O417   Zn420   1.951   .     S
O418   H461    0.988   1_455 S
C421   C438    1.435   .     S
C421   O473    1.284   .     A
C421   O467    1.284   .     A
C422   C426    1.409   .     A
C422   C445    1.409   .     A
C422   F456    1.357   .     S
C423   O477    1.274   .     A
C423   C427    1.366   .     S
C423   O474    1.274   .     A
C424   C428    1.366   .     S
C424   O476    1.274   .     A
C424   O475    1.274   .     A
C425   C448    1.409   .     A
C425   C446    1.409   .     A
C426   C447    1.409   .     A
C426   C305    1.508   1_565 S
C428   C667    1.165   .     S
C429   C434    1.383   .     A
C429   O478    1.384   .     S
C429   C440    1.417   .     A
C430   C441    1.417   .     A
C430   O468    1.384   .     S
C430   C435    1.383   .     A
C431   O469    1.384   .     S
C431   C436    1.383   .     A
C431   C441    1.417   .     A
C432   C439    1.435   .     S
C432   O472    1.284   .     A
C432   O471    1.284   .     A
C433   C437    1.383   .     A
C433   O470    1.384   .     S
C433   C440    1.417   .     A
C434   C438    1.397   .     A
C434   F449    1.360   .     S
C435   C439    1.397   .     A
C435   F450    1.360   .     S
C436   F451    1.360   .     S
C436   C439    1.397   .     A
C437   C438    1.397   .     A
C437   F452    1.360   .     S
C441   C380    1.443   1_655 S
C442   N465    1.364   .     A
C442   C446    1.409   .     A
C442   H457    1.081   .     S
C443   C447    1.409   .     A
C443   N466    1.364   .     A
C443   H458    1.081   .     S
C444   N465    1.364   .     A
C444   C448    1.409   .     A
C444   H459    1.081   .     S
C445   H460    1.081   .     S
C445   N466    1.364   .     A
C446   F453    1.357   .     S
C447   F454    1.357   .     S
C448   F455    1.357   .     S
H461   O418    0.988   1_655 S
H464   O410    0.988   1_655 S
N465   Zn480   2.003   .     S
N466   Zn479   2.003   .     S
O467   Zn479   2.000   .     S
O468   H402    0.988   1_655 S
O469   H403    0.988   1_655 S
O471   Zn480   2.000   .     S
O472   Zn479   2.000   .     S
O473   Zn480   2.000   .     S
O474   Zn479   1.951   .     S
O475   Zn480   1.951   .     S
O476   Zn479   1.951   .     S
O477   Zn480   1.951   .     S
C481   C498    1.435   .     S
C481   O533    1.284   .     A
C481   O527    1.284   .     A
C482   C486    1.409   .     A
C482   C505    1.409   .     A
C482   F516    1.357   .     S
C483   O537    1.274   .     A
C483   C487    1.366   .     S
C483   O534    1.274   .     A
C484   C488    1.366   .     S
C484   O536    1.274   .     A
C484   O535    1.274   .     A
C485   C508    1.409   .     A
C485   C506    1.409   .     A
C485   C606    1.508   1_545 S
C486   C507    1.409   .     A
C486   C605    1.508   .     S
C488   C7      1.165   1_556 S
C489   C494    1.383   .     A
C489   O538    1.384   .     S
C489   C500    1.417   .     A
C490   C501    1.417   .     A
C490   O528    1.384   .     S
C490   C495    1.383   .     A
C491   O529    1.384   .     S
C491   C496    1.383   .     A
C491   C501    1.417   .     A
C492   C499    1.435   .     S
C492   O532    1.284   .     A
C492   O531    1.284   .     A
C493   C497    1.383   .     A
C493   O530    1.384   .     S
C493   C500    1.417   .     A
C494   C498    1.397   .     A
C494   F509    1.360   .     S
C495   C499    1.397   .     A
C495   F510    1.360   .     S
C496   F511    1.360   .     S
C496   C499    1.397   .     A
C497   C498    1.397   .     A
C497   F512    1.360   .     S
C500   C561    1.443   1_455 S
C501   C560    1.443   .     S
C502   N525    1.364   .     A
C502   C506    1.409   .     A
C502   H517    1.081   .     S
C503   C507    1.409   .     A
C503   N526    1.364   .     A
C503   H518    1.081   .     S
C504   N525    1.364   .     A
C504   C508    1.409   .     A
C504   H519    1.081   .     S
C505   H520    1.081   .     S
C505   N526    1.364   .     A
C506   F513    1.357   .     S
C507   F514    1.357   .     S
C508   F515    1.357   .     S
H521   O598    0.988   .     S
H522   O588    0.988   1_455 S
H523   O589    0.988   1_455 S
H524   O590    0.988   .     S
N525   Zn540   2.003   .     S
N526   Zn539   2.003   .     S
O527   Zn539   2.000   .     S
O528   H582    0.988   .     S
O529   H583    0.988   .     S
O530   H584    0.988   1_455 S
O531   Zn540   2.000   .     S
O532   Zn539   2.000   .     S
O533   Zn540   2.000   .     S
O534   Zn539   1.951   .     S
O535   Zn540   1.951   .     S
O536   Zn539   1.951   .     S
O537   Zn540   1.951   .     S
O538   H581    0.988   1_455 S
C541   C558    1.435   .     S
C541   O593    1.284   .     A
C541   O587    1.284   .     A
C542   C546    1.409   .     A
C542   C565    1.409   .     A
C542   F576    1.357   .     S
C543   O597    1.274   .     A
C543   C547    1.366   .     S
C543   O594    1.274   .     A
C544   C548    1.366   .     S
C544   O596    1.274   .     A
C544   O595    1.274   .     A
C545   C568    1.409   .     A
C545   C566    1.409   .     A
C545   C666    1.508   1_545 S
C546   C567    1.409   .     A
C546   C665    1.508   .     S
C548   C67     1.165   1_556 S
C549   C554    1.383   .     A
C549   O598    1.384   .     S
C549   C560    1.417   .     A
C550   C561    1.417   .     A
C550   O588    1.384   .     S
C550   C555    1.383   .     A
C551   O589    1.384   .     S
C551   C556    1.383   .     A
C551   C561    1.417   .     A
C552   C559    1.435   .     S
C552   O592    1.284   .     A
C552   O591    1.284   .     A
C553   C557    1.383   .     A
C553   O590    1.384   .     S
C553   C560    1.417   .     A
C554   C558    1.397   .     A
C554   F569    1.360   .     S
C555   C559    1.397   .     A
C555   F570    1.360   .     S
C556   F571    1.360   .     S
C556   C559    1.397   .     A
C557   C558    1.397   .     A
C557   F572    1.360   .     S
C561   C500    1.443   1_655 S
C562   N585    1.364   .     A
C562   C566    1.409   .     A
C562   H577    1.081   .     S
C563   C567    1.409   .     A
C563   N586    1.364   .     A
C563   H578    1.081   .     S
C564   N585    1.364   .     A
C564   C568    1.409   .     A
C564   H579    1.081   .     S
C565   H580    1.081   .     S
C565   N586    1.364   .     A
C566   F573    1.357   .     S
C567   F574    1.357   .     S
C568   F575    1.357   .     S
H581   O538    0.988   1_655 S
H584   O530    0.988   1_655 S
N585   Zn600   2.003   .     S
N586   Zn599   2.003   .     S
O587   Zn599   2.000   .     S
O588   H522    0.988   1_655 S
O589   H523    0.988   1_655 S
O591   Zn600   2.000   .     S
O592   Zn599   2.000   .     S
O593   Zn600   2.000   .     S
O594   Zn599   1.951   .     S
O595   Zn600   1.951   .     S
O596   Zn599   1.951   .     S
O597   Zn600   1.951   .     S
C601   C618    1.435   .     S
C601   O653    1.284   .     A
C601   O647    1.284   .     A
C602   C606    1.409   .     A
C602   C625    1.409   .     A
C602   F636    1.357   .     S
C603   O657    1.274   .     A
C603   C607    1.366   .     S
C603   O654    1.274   .     A
C604   C608    1.366   .     S
C604   O656    1.274   .     A
C604   O655    1.274   .     A
C605   C628    1.409   .     A
C605   C626    1.409   .     A
C606   C627    1.409   .     A
C606   C485    1.508   1_565 S
C608   C127    1.165   1_556 S
C609   C614    1.383   .     A
C609   O658    1.384   .     S
C609   C620    1.417   .     A
C610   C621    1.417   .     A
C610   O648    1.384   .     S
C610   C615    1.383   .     A
C611   O649    1.384   .     S
C611   C616    1.383   .     A
C611   C621    1.417   .     A
C612   C619    1.435   .     S
C612   O652    1.284   .     A
C612   O651    1.284   .     A
C613   C617    1.383   .     A
C613   O650    1.384   .     S
C613   C620    1.417   .     A
C614   C618    1.397   .     A
C614   F629    1.360   .     S
C615   C619    1.397   .     A
C615   F630    1.360   .     S
C616   F631    1.360   .     S
C616   C619    1.397   .     A
C617   C618    1.397   .     A
C617   F632    1.360   .     S
C620   C681    1.443   1_455 S
C621   C680    1.443   .     S
C622   N645    1.364   .     A
C622   C626    1.409   .     A
C622   H637    1.081   .     S
C623   C627    1.409   .     A
C623   N646    1.364   .     A
C623   H638    1.081   .     S
C624   N645    1.364   .     A
C624   C628    1.409   .     A
C624   H639    1.081   .     S
C625   H640    1.081   .     S
C625   N646    1.364   .     A
C626   F633    1.357   .     S
C627   F634    1.357   .     S
C628   F635    1.357   .     S
H641   O718    0.988   .     S
H642   O708    0.988   1_455 S
H643   O709    0.988   1_455 S
H644   O710    0.988   .     S
N645   Zn660   2.003   .     S
N646   Zn659   2.003   .     S
O647   Zn659   2.000   .     S
O648   H702    0.988   .     S
O649   H703    0.988   .     S
O650   H704    0.988   1_455 S
O651   Zn660   2.000   .     S
O652   Zn659   2.000   .     S
O653   Zn660   2.000   .     S
O654   Zn659   1.951   .     S
O655   Zn660   1.951   .     S
O656   Zn659   1.951   .     S
O657   Zn660   1.951   .     S
O658   H701    0.988   1_455 S
C661   C678    1.435   .     S
C661   O713    1.284   .     A
C661   O707    1.284   .     A
C662   C666    1.409   .     A
C662   C685    1.409   .     A
C662   F696    1.357   .     S
C663   O717    1.274   .     A
C663   C667    1.366   .     S
C663   O714    1.274   .     A
C664   C668    1.366   .     S
C664   O716    1.274   .     A
C664   O715    1.274   .     A
C665   C688    1.409   .     A
C665   C686    1.409   .     A
C666   C687    1.409   .     A
C666   C545    1.508   1_565 S
C668   C187    1.165   1_556 S
C669   C674    1.383   .     A
C669   O718    1.384   .     S
C669   C680    1.417   .     A
C670   C681    1.417   .     A
C670   O708    1.384   .     S
C670   C675    1.383   .     A
C671   O709    1.384   .     S
C671   C676    1.383   .     A
C671   C681    1.417   .     A
C672   C679    1.435   .     S
C672   O712    1.284   .     A
C672   O711    1.284   .     A
C673   C677    1.383   .     A
C673   O710    1.384   .     S
C673   C680    1.417   .     A
C674   C678    1.397   .     A
C674   F689    1.360   .     S
C675   C679    1.397   .     A
C675   F690    1.360   .     S
C676   F691    1.360   .     S
C676   C679    1.397   .     A
C677   C678    1.397   .     A
C677   F692    1.360   .     S
C681   C620    1.443   1_655 S
C682   N705    1.364   .     A
C682   C686    1.409   .     A
C682   H697    1.081   .     S
C683   C687    1.409   .     A
C683   N706    1.364   .     A
C683   H698    1.081   .     S
C684   N705    1.364   .     A
C684   C688    1.409   .     A
C684   H699    1.081   .     S
C685   H700    1.081   .     S
C685   N706    1.364   .     A
C686   F693    1.357   .     S
C687   F694    1.357   .     S
C688   F695    1.357   .     S
H701   O658    0.988   1_655 S
H704   O650    0.988   1_655 S
N705   Zn720   2.003   .     S
N706   Zn719   2.003   .     S
O707   Zn719   2.000   .     S
O708   H642    0.988   1_655 S
O709   H643    0.988   1_655 S
O711   Zn720   2.000   .     S
O712   Zn719   2.000   .     S
O713   Zn720   2.000   .     S
O714   Zn719   1.951   .     S
O715   Zn720   1.951   .     S
O716   Zn719   1.951   .     S
O717   Zn720   1.951   .     S
