data_str_m3_o1_o10_pcu_sym.13
_audit_creation_date              2020-01-03
_audit_creation_method            'Materials Studio'
_symmetry_space_group_name_H-M    'P1'
_symmetry_Int_Tables_number       1
_symmetry_cell_setting            triclinic
loop_
_symmetry_equiv_pos_as_xyz
  x,y,z
_cell_length_a                    25.9618
_cell_length_b                    32.1738
_cell_length_c                    29.4811
_cell_angle_alpha                 90.7338
_cell_angle_beta                  98.2032
_cell_angle_gamma                 89.2897
loop_
_atom_site_label
_atom_site_type_symbol
_atom_site_fract_x
_atom_site_fract_y
_atom_site_fract_z
_atom_site_U_iso_or_equiv
_atom_site_adp_type
_atom_site_occupancy
Br1    Br    0.32013   0.12819   0.09532   0.00000  Uiso   1.00
Br2    Br    0.01321   0.20518   0.23799   0.00000  Uiso   1.00
Br3    Br    0.22770   0.04324   0.08744   0.00000  Uiso   1.00
Br4    Br    0.10566   0.29010   0.24594   0.00000  Uiso   1.00
C5     C     0.16792   0.08664   0.16644   0.00000  Uiso   1.00
C6     C     0.14356   0.02296   0.19895   0.00000  Uiso   1.00
C7     C     0.16538   0.29082   0.16748   0.00000  Uiso   1.00
C8     C     0.16794   0.04251   0.16585   0.00000  Uiso   1.00
C9     C     0.19853   0.19262   0.02835   0.00000  Uiso   1.00
C10    C     0.13480   0.14072   0.30498   0.00000  Uiso   1.00
C11    C     0.19850   0.19262   0.31368   0.00000  Uiso   1.00
C12    C     0.13483   0.14072   0.01965   0.00000  Uiso   1.00
C13    C     0.16540   0.24669   0.16690   0.00000  Uiso   1.00
C14    C     0.06718   0.16691   0.15500   0.00000  Uiso   1.00
C15    C     0.26616   0.16643   0.17833   0.00000  Uiso   1.00
C16    C     0.01324   0.16087   0.14948   0.00000  Uiso   1.00
C17    C     0.32009   0.17248   0.18385   0.00000  Uiso   1.00
C18    C     0.19129   0.01958   0.13320   0.00000  Uiso   1.00
C19    C     0.14204   0.31375   0.20015   0.00000  Uiso   1.00
C20    C     0.18976   0.31037   0.13439   0.00000  Uiso   1.00
H21    H     0.20843   0.29250   0.10974   0.00000  Uiso   1.00
H22    H     0.12490   0.04083   0.22361   0.00000  Uiso   1.00
H23    H     0.22401   0.21333   0.05005   0.00000  Uiso   1.00
H24    H     0.10932   0.12000   0.28328   0.00000  Uiso   1.00
H25    H     0.22393   0.21335   0.29892   0.00000  Uiso   1.00
H26    H     0.10940   0.11999   0.03441   0.00000  Uiso   1.00
N27    N     0.16665   0.16666   0.28573   0.00000  Uiso   1.00
N28    N     0.16668   0.16668   0.04760   0.00000  Uiso   1.00
O29    O     0.16666   0.10558   0.20487   0.00000  Uiso   1.00
O30    O     0.16667   0.22775   0.12846   0.00000  Uiso   1.00
O31    O     0.16666   0.10559   0.12843   0.00000  Uiso   1.00
O32    O     0.16667   0.22774   0.20490   0.00000  Uiso   1.00
O33    O     0.09058   0.16666   0.19595   0.00000  Uiso   1.00
O34    O     0.24275   0.16667   0.13739   0.00000  Uiso   1.00
O35    O     0.09058   0.16667   0.11950   0.00000  Uiso   1.00
O36    O     0.24275   0.16666   0.21383   0.00000  Uiso   1.00
Zn37   Zn    0.16667   0.16666   0.21771   0.00000  Uiso   1.00
Zn38   Zn    0.16667   0.16667   0.11563   0.00000  Uiso   1.00
Br39   Br    0.65346   0.12819   0.09532   0.00000  Uiso   1.00
Br40   Br    0.34654   0.20518   0.23799   0.00000  Uiso   1.00
Br41   Br    0.56104   0.04324   0.08744   0.00000  Uiso   1.00
Br42   Br    0.43899   0.29010   0.24594   0.00000  Uiso   1.00
C43    C     0.50126   0.08664   0.16644   0.00000  Uiso   1.00
C44    C     0.47689   0.02296   0.19895   0.00000  Uiso   1.00
C45    C     0.49871   0.29082   0.16748   0.00000  Uiso   1.00
C46    C     0.50127   0.04251   0.16585   0.00000  Uiso   1.00
C47    C     0.53187   0.19262   0.02835   0.00000  Uiso   1.00
C48    C     0.46813   0.14072   0.30498   0.00000  Uiso   1.00
C49    C     0.53184   0.19262   0.31368   0.00000  Uiso   1.00
C50    C     0.46816   0.14072   0.01965   0.00000  Uiso   1.00
C51    C     0.49873   0.24669   0.16690   0.00000  Uiso   1.00
C52    C     0.40051   0.16691   0.15500   0.00000  Uiso   1.00
C53    C     0.59949   0.16643   0.17833   0.00000  Uiso   1.00
C54    C     0.34657   0.16087   0.14948   0.00000  Uiso   1.00
C55    C     0.65343   0.17248   0.18385   0.00000  Uiso   1.00
C56    C     0.52462   0.01958   0.13320   0.00000  Uiso   1.00
C57    C     0.47537   0.31375   0.20015   0.00000  Uiso   1.00
C58    C     0.52309   0.31037   0.13439   0.00000  Uiso   1.00
H59    H     0.54177   0.29250   0.10974   0.00000  Uiso   1.00
H60    H     0.45823   0.04083   0.22361   0.00000  Uiso   1.00
H61    H     0.55734   0.21333   0.05005   0.00000  Uiso   1.00
H62    H     0.44266   0.12000   0.28328   0.00000  Uiso   1.00
H63    H     0.55726   0.21335   0.29892   0.00000  Uiso   1.00
H64    H     0.44274   0.11999   0.03441   0.00000  Uiso   1.00
N65    N     0.49999   0.16666   0.28573   0.00000  Uiso   1.00
N66    N     0.50001   0.16668   0.04760   0.00000  Uiso   1.00
O67    O     0.50000   0.10558   0.20487   0.00000  Uiso   1.00
O68    O     0.50000   0.22775   0.12846   0.00000  Uiso   1.00
O69    O     0.50000   0.10559   0.12843   0.00000  Uiso   1.00
O70    O     0.50000   0.22774   0.20490   0.00000  Uiso   1.00
O71    O     0.42392   0.16666   0.19595   0.00000  Uiso   1.00
O72    O     0.57608   0.16667   0.13739   0.00000  Uiso   1.00
O73    O     0.42392   0.16667   0.11950   0.00000  Uiso   1.00
O74    O     0.57608   0.16666   0.21383   0.00000  Uiso   1.00
Zn75   Zn    0.50000   0.16666   0.21771   0.00000  Uiso   1.00
Zn76   Zn    0.50000   0.16667   0.11563   0.00000  Uiso   1.00
Br77   Br    0.98679   0.12819   0.09532   0.00000  Uiso   1.00
Br78   Br    0.67987   0.20518   0.23799   0.00000  Uiso   1.00
Br79   Br    0.89437   0.04324   0.08744   0.00000  Uiso   1.00
Br80   Br    0.77232   0.29010   0.24594   0.00000  Uiso   1.00
C81    C     0.83459   0.08664   0.16644   0.00000  Uiso   1.00
C82    C     0.81023   0.02296   0.19895   0.00000  Uiso   1.00
C83    C     0.83204   0.29082   0.16748   0.00000  Uiso   1.00
C84    C     0.83460   0.04251   0.16585   0.00000  Uiso   1.00
C85    C     0.86520   0.19262   0.02835   0.00000  Uiso   1.00
C86    C     0.80147   0.14072   0.30498   0.00000  Uiso   1.00
C87    C     0.86517   0.19262   0.31368   0.00000  Uiso   1.00
C88    C     0.80149   0.14072   0.01965   0.00000  Uiso   1.00
C89    C     0.83207   0.24669   0.16690   0.00000  Uiso   1.00
C90    C     0.73384   0.16691   0.15500   0.00000  Uiso   1.00
C91    C     0.93282   0.16643   0.17833   0.00000  Uiso   1.00
C92    C     0.67991   0.16087   0.14948   0.00000  Uiso   1.00
C93    C     0.98676   0.17248   0.18385   0.00000  Uiso   1.00
C94    C     0.85796   0.01958   0.13320   0.00000  Uiso   1.00
C95    C     0.80870   0.31375   0.20015   0.00000  Uiso   1.00
C96    C     0.85643   0.31037   0.13439   0.00000  Uiso   1.00
H97    H     0.87510   0.29250   0.10974   0.00000  Uiso   1.00
H98    H     0.79156   0.04083   0.22361   0.00000  Uiso   1.00
H99    H     0.89068   0.21333   0.05005   0.00000  Uiso   1.00
H100   H     0.77599   0.12000   0.28328   0.00000  Uiso   1.00
H101   H     0.89059   0.21335   0.29892   0.00000  Uiso   1.00
H102   H     0.77607   0.11999   0.03441   0.00000  Uiso   1.00
N103   N     0.83332   0.16666   0.28573   0.00000  Uiso   1.00
N104   N     0.83335   0.16668   0.04760   0.00000  Uiso   1.00
O105   O     0.83333   0.10558   0.20487   0.00000  Uiso   1.00
O106   O     0.83334   0.22775   0.12846   0.00000  Uiso   1.00
O107   O     0.83333   0.10559   0.12843   0.00000  Uiso   1.00
O108   O     0.83334   0.22774   0.20490   0.00000  Uiso   1.00
O109   O     0.75725   0.16666   0.19595   0.00000  Uiso   1.00
O110   O     0.90942   0.16667   0.13739   0.00000  Uiso   1.00
O111   O     0.75725   0.16667   0.11950   0.00000  Uiso   1.00
O112   O     0.90942   0.16666   0.21383   0.00000  Uiso   1.00
Zn113  Zn    0.83333   0.16666   0.21771   0.00000  Uiso   1.00
Zn114  Zn    0.83333   0.16667   0.11563   0.00000  Uiso   1.00
Br115  Br    0.32013   0.46152   0.09532   0.00000  Uiso   1.00
Br116  Br    0.01321   0.53852   0.23799   0.00000  Uiso   1.00
Br117  Br    0.22770   0.37657   0.08744   0.00000  Uiso   1.00
Br118  Br    0.10566   0.62343   0.24594   0.00000  Uiso   1.00
C119   C     0.16792   0.41997   0.16644   0.00000  Uiso   1.00
C120   C     0.14356   0.35629   0.19895   0.00000  Uiso   1.00
C121   C     0.16538   0.62416   0.16748   0.00000  Uiso   1.00
C122   C     0.16794   0.37584   0.16585   0.00000  Uiso   1.00
C123   C     0.19853   0.52595   0.02835   0.00000  Uiso   1.00
C124   C     0.13480   0.47405   0.30498   0.00000  Uiso   1.00
C125   C     0.19850   0.52595   0.31368   0.00000  Uiso   1.00
C126   C     0.13483   0.47405   0.01965   0.00000  Uiso   1.00
C127   C     0.16540   0.58002   0.16690   0.00000  Uiso   1.00
C128   C     0.06718   0.50024   0.15500   0.00000  Uiso   1.00
C129   C     0.26616   0.49976   0.17833   0.00000  Uiso   1.00
C130   C     0.01324   0.49420   0.14948   0.00000  Uiso   1.00
C131   C     0.32009   0.50582   0.18385   0.00000  Uiso   1.00
C132   C     0.19129   0.35292   0.13320   0.00000  Uiso   1.00
C133   C     0.14204   0.64708   0.20015   0.00000  Uiso   1.00
C134   C     0.18976   0.64370   0.13439   0.00000  Uiso   1.00
H135   H     0.20843   0.62583   0.10974   0.00000  Uiso   1.00
H136   H     0.12490   0.37416   0.22361   0.00000  Uiso   1.00
H137   H     0.22401   0.54667   0.05005   0.00000  Uiso   1.00
H138   H     0.10932   0.45333   0.28328   0.00000  Uiso   1.00
H139   H     0.22393   0.54668   0.29892   0.00000  Uiso   1.00
H140   H     0.10940   0.45332   0.03441   0.00000  Uiso   1.00
N141   N     0.16665   0.49999   0.28573   0.00000  Uiso   1.00
N142   N     0.16668   0.50001   0.04760   0.00000  Uiso   1.00
O143   O     0.16666   0.43892   0.20487   0.00000  Uiso   1.00
O144   O     0.16667   0.56108   0.12846   0.00000  Uiso   1.00
O145   O     0.16666   0.43893   0.12843   0.00000  Uiso   1.00
O146   O     0.16667   0.56107   0.20490   0.00000  Uiso   1.00
O147   O     0.09058   0.50000   0.19595   0.00000  Uiso   1.00
O148   O     0.24275   0.50000   0.13739   0.00000  Uiso   1.00
O149   O     0.09058   0.50000   0.11950   0.00000  Uiso   1.00
O150   O     0.24275   0.50000   0.21383   0.00000  Uiso   1.00
Zn151  Zn    0.16667   0.49999   0.21771   0.00000  Uiso   1.00
Zn152  Zn    0.16667   0.50001   0.11563   0.00000  Uiso   1.00
Br153  Br    0.65346   0.46152   0.09532   0.00000  Uiso   1.00
Br154  Br    0.34654   0.53852   0.23799   0.00000  Uiso   1.00
Br155  Br    0.56104   0.37657   0.08744   0.00000  Uiso   1.00
Br156  Br    0.43899   0.62343   0.24594   0.00000  Uiso   1.00
C157   C     0.50126   0.41997   0.16644   0.00000  Uiso   1.00
C158   C     0.47689   0.35629   0.19895   0.00000  Uiso   1.00
C159   C     0.49871   0.62416   0.16748   0.00000  Uiso   1.00
C160   C     0.50127   0.37584   0.16585   0.00000  Uiso   1.00
C161   C     0.53187   0.52595   0.02835   0.00000  Uiso   1.00
C162   C     0.46813   0.47405   0.30498   0.00000  Uiso   1.00
C163   C     0.53184   0.52595   0.31368   0.00000  Uiso   1.00
C164   C     0.46816   0.47405   0.01965   0.00000  Uiso   1.00
C165   C     0.49873   0.58002   0.16690   0.00000  Uiso   1.00
C166   C     0.40051   0.50024   0.15500   0.00000  Uiso   1.00
C167   C     0.59949   0.49976   0.17833   0.00000  Uiso   1.00
C168   C     0.34657   0.49420   0.14948   0.00000  Uiso   1.00
C169   C     0.65343   0.50582   0.18385   0.00000  Uiso   1.00
C170   C     0.52462   0.35292   0.13320   0.00000  Uiso   1.00
C171   C     0.47537   0.64708   0.20015   0.00000  Uiso   1.00
C172   C     0.52309   0.64370   0.13439   0.00000  Uiso   1.00
H173   H     0.54177   0.62583   0.10974   0.00000  Uiso   1.00
H174   H     0.45823   0.37416   0.22361   0.00000  Uiso   1.00
H175   H     0.55734   0.54667   0.05005   0.00000  Uiso   1.00
H176   H     0.44266   0.45333   0.28328   0.00000  Uiso   1.00
H177   H     0.55726   0.54668   0.29892   0.00000  Uiso   1.00
H178   H     0.44274   0.45332   0.03441   0.00000  Uiso   1.00
N179   N     0.49999   0.49999   0.28573   0.00000  Uiso   1.00
N180   N     0.50001   0.50001   0.04760   0.00000  Uiso   1.00
O181   O     0.50000   0.43892   0.20487   0.00000  Uiso   1.00
O182   O     0.50000   0.56108   0.12846   0.00000  Uiso   1.00
O183   O     0.50000   0.43893   0.12843   0.00000  Uiso   1.00
O184   O     0.50000   0.56107   0.20490   0.00000  Uiso   1.00
O185   O     0.42392   0.50000   0.19595   0.00000  Uiso   1.00
O186   O     0.57608   0.50000   0.13739   0.00000  Uiso   1.00
O187   O     0.42392   0.50000   0.11950   0.00000  Uiso   1.00
O188   O     0.57608   0.50000   0.21383   0.00000  Uiso   1.00
Zn189  Zn    0.50000   0.49999   0.21771   0.00000  Uiso   1.00
Zn190  Zn    0.50000   0.50001   0.11563   0.00000  Uiso   1.00
Br191  Br    0.98679   0.46152   0.09532   0.00000  Uiso   1.00
Br192  Br    0.67987   0.53852   0.23799   0.00000  Uiso   1.00
Br193  Br    0.89437   0.37657   0.08744   0.00000  Uiso   1.00
Br194  Br    0.77232   0.62343   0.24594   0.00000  Uiso   1.00
C195   C     0.83459   0.41997   0.16644   0.00000  Uiso   1.00
C196   C     0.81023   0.35629   0.19895   0.00000  Uiso   1.00
C197   C     0.83204   0.62416   0.16748   0.00000  Uiso   1.00
C198   C     0.83460   0.37584   0.16585   0.00000  Uiso   1.00
C199   C     0.86520   0.52595   0.02835   0.00000  Uiso   1.00
C200   C     0.80147   0.47405   0.30498   0.00000  Uiso   1.00
C201   C     0.86517   0.52595   0.31368   0.00000  Uiso   1.00
C202   C     0.80149   0.47405   0.01965   0.00000  Uiso   1.00
C203   C     0.83207   0.58002   0.16690   0.00000  Uiso   1.00
C204   C     0.73384   0.50024   0.15500   0.00000  Uiso   1.00
C205   C     0.93282   0.49976   0.17833   0.00000  Uiso   1.00
C206   C     0.67991   0.49420   0.14948   0.00000  Uiso   1.00
C207   C     0.98676   0.50582   0.18385   0.00000  Uiso   1.00
C208   C     0.85796   0.35292   0.13320   0.00000  Uiso   1.00
C209   C     0.80870   0.64708   0.20015   0.00000  Uiso   1.00
C210   C     0.85643   0.64370   0.13439   0.00000  Uiso   1.00
H211   H     0.87510   0.62583   0.10974   0.00000  Uiso   1.00
H212   H     0.79156   0.37416   0.22361   0.00000  Uiso   1.00
H213   H     0.89068   0.54667   0.05005   0.00000  Uiso   1.00
H214   H     0.77599   0.45333   0.28328   0.00000  Uiso   1.00
H215   H     0.89059   0.54668   0.29892   0.00000  Uiso   1.00
H216   H     0.77607   0.45332   0.03441   0.00000  Uiso   1.00
N217   N     0.83332   0.49999   0.28573   0.00000  Uiso   1.00
N218   N     0.83335   0.50001   0.04760   0.00000  Uiso   1.00
O219   O     0.83333   0.43892   0.20487   0.00000  Uiso   1.00
O220   O     0.83334   0.56108   0.12846   0.00000  Uiso   1.00
O221   O     0.83333   0.43893   0.12843   0.00000  Uiso   1.00
O222   O     0.83334   0.56107   0.20490   0.00000  Uiso   1.00
O223   O     0.75725   0.50000   0.19595   0.00000  Uiso   1.00
O224   O     0.90942   0.50000   0.13739   0.00000  Uiso   1.00
O225   O     0.75725   0.50000   0.11950   0.00000  Uiso   1.00
O226   O     0.90942   0.50000   0.21383   0.00000  Uiso   1.00
Zn227  Zn    0.83333   0.49999   0.21771   0.00000  Uiso   1.00
Zn228  Zn    0.83333   0.50001   0.11563   0.00000  Uiso   1.00
Br229  Br    0.32013   0.79486   0.09532   0.00000  Uiso   1.00
Br230  Br    0.01321   0.87185   0.23799   0.00000  Uiso   1.00
Br231  Br    0.22770   0.70990   0.08744   0.00000  Uiso   1.00
Br232  Br    0.10566   0.95677   0.24594   0.00000  Uiso   1.00
C233   C     0.16792   0.75331   0.16644   0.00000  Uiso   1.00
C234   C     0.14356   0.68963   0.19895   0.00000  Uiso   1.00
C235   C     0.16538   0.95749   0.16748   0.00000  Uiso   1.00
C236   C     0.16794   0.70917   0.16585   0.00000  Uiso   1.00
C237   C     0.19853   0.85928   0.02835   0.00000  Uiso   1.00
C238   C     0.13480   0.80738   0.30498   0.00000  Uiso   1.00
C239   C     0.19850   0.85928   0.31368   0.00000  Uiso   1.00
C240   C     0.13483   0.80738   0.01965   0.00000  Uiso   1.00
C241   C     0.16540   0.91336   0.16690   0.00000  Uiso   1.00
C242   C     0.06718   0.83358   0.15500   0.00000  Uiso   1.00
C243   C     0.26616   0.83309   0.17833   0.00000  Uiso   1.00
C244   C     0.01324   0.82753   0.14948   0.00000  Uiso   1.00
C245   C     0.32009   0.83915   0.18385   0.00000  Uiso   1.00
C246   C     0.19129   0.68625   0.13320   0.00000  Uiso   1.00
C247   C     0.14204   0.98041   0.20015   0.00000  Uiso   1.00
C248   C     0.18976   0.97704   0.13439   0.00000  Uiso   1.00
H249   H     0.20843   0.95917   0.10974   0.00000  Uiso   1.00
H250   H     0.12490   0.70750   0.22361   0.00000  Uiso   1.00
H251   H     0.22401   0.88000   0.05005   0.00000  Uiso   1.00
H252   H     0.10932   0.78667   0.28328   0.00000  Uiso   1.00
H253   H     0.22393   0.88002   0.29892   0.00000  Uiso   1.00
H254   H     0.10940   0.78665   0.03441   0.00000  Uiso   1.00
N255   N     0.16665   0.83332   0.28573   0.00000  Uiso   1.00
N256   N     0.16668   0.83334   0.04760   0.00000  Uiso   1.00
O257   O     0.16666   0.77225   0.20487   0.00000  Uiso   1.00
O258   O     0.16667   0.89442   0.12846   0.00000  Uiso   1.00
O259   O     0.16666   0.77226   0.12843   0.00000  Uiso   1.00
O260   O     0.16667   0.89441   0.20490   0.00000  Uiso   1.00
O261   O     0.09058   0.83333   0.19595   0.00000  Uiso   1.00
O262   O     0.24275   0.83334   0.13739   0.00000  Uiso   1.00
O263   O     0.09058   0.83334   0.11950   0.00000  Uiso   1.00
O264   O     0.24275   0.83333   0.21383   0.00000  Uiso   1.00
Zn265  Zn    0.16667   0.83333   0.21771   0.00000  Uiso   1.00
Zn266  Zn    0.16667   0.83334   0.11563   0.00000  Uiso   1.00
Br267  Br    0.65346   0.79486   0.09532   0.00000  Uiso   1.00
Br268  Br    0.34654   0.87185   0.23799   0.00000  Uiso   1.00
Br269  Br    0.56104   0.70990   0.08744   0.00000  Uiso   1.00
Br270  Br    0.43899   0.95677   0.24594   0.00000  Uiso   1.00
C271   C     0.50126   0.75331   0.16644   0.00000  Uiso   1.00
C272   C     0.47689   0.68963   0.19895   0.00000  Uiso   1.00
C273   C     0.49871   0.95749   0.16748   0.00000  Uiso   1.00
C274   C     0.50127   0.70917   0.16585   0.00000  Uiso   1.00
C275   C     0.53187   0.85928   0.02835   0.00000  Uiso   1.00
C276   C     0.46813   0.80738   0.30498   0.00000  Uiso   1.00
C277   C     0.53184   0.85928   0.31368   0.00000  Uiso   1.00
C278   C     0.46816   0.80738   0.01965   0.00000  Uiso   1.00
C279   C     0.49873   0.91336   0.16690   0.00000  Uiso   1.00
C280   C     0.40051   0.83358   0.15500   0.00000  Uiso   1.00
C281   C     0.59949   0.83309   0.17833   0.00000  Uiso   1.00
C282   C     0.34657   0.82753   0.14948   0.00000  Uiso   1.00
C283   C     0.65343   0.83915   0.18385   0.00000  Uiso   1.00
C284   C     0.52462   0.68625   0.13320   0.00000  Uiso   1.00
C285   C     0.47537   0.98041   0.20015   0.00000  Uiso   1.00
C286   C     0.52309   0.97704   0.13439   0.00000  Uiso   1.00
H287   H     0.54177   0.95917   0.10974   0.00000  Uiso   1.00
H288   H     0.45823   0.70750   0.22361   0.00000  Uiso   1.00
H289   H     0.55734   0.88000   0.05005   0.00000  Uiso   1.00
H290   H     0.44266   0.78667   0.28328   0.00000  Uiso   1.00
H291   H     0.55726   0.88002   0.29892   0.00000  Uiso   1.00
H292   H     0.44274   0.78665   0.03441   0.00000  Uiso   1.00
N293   N     0.49999   0.83332   0.28573   0.00000  Uiso   1.00
N294   N     0.50001   0.83334   0.04760   0.00000  Uiso   1.00
O295   O     0.50000   0.77225   0.20487   0.00000  Uiso   1.00
O296   O     0.50000   0.89442   0.12846   0.00000  Uiso   1.00
O297   O     0.50000   0.77226   0.12843   0.00000  Uiso   1.00
O298   O     0.50000   0.89441   0.20490   0.00000  Uiso   1.00
O299   O     0.42392   0.83333   0.19595   0.00000  Uiso   1.00
O300   O     0.57608   0.83334   0.13739   0.00000  Uiso   1.00
O301   O     0.42392   0.83334   0.11950   0.00000  Uiso   1.00
O302   O     0.57608   0.83333   0.21383   0.00000  Uiso   1.00
Zn303  Zn    0.50000   0.83333   0.21771   0.00000  Uiso   1.00
Zn304  Zn    0.50000   0.83334   0.11563   0.00000  Uiso   1.00
Br305  Br    0.98679   0.79486   0.09532   0.00000  Uiso   1.00
Br306  Br    0.67987   0.87185   0.23799   0.00000  Uiso   1.00
Br307  Br    0.89437   0.70990   0.08744   0.00000  Uiso   1.00
Br308  Br    0.77232   0.95677   0.24594   0.00000  Uiso   1.00
C309   C     0.83459   0.75331   0.16644   0.00000  Uiso   1.00
C310   C     0.81023   0.68963   0.19895   0.00000  Uiso   1.00
C311   C     0.83204   0.95749   0.16748   0.00000  Uiso   1.00
C312   C     0.83460   0.70917   0.16585   0.00000  Uiso   1.00
C313   C     0.86520   0.85928   0.02835   0.00000  Uiso   1.00
C314   C     0.80147   0.80738   0.30498   0.00000  Uiso   1.00
C315   C     0.86517   0.85928   0.31368   0.00000  Uiso   1.00
C316   C     0.80149   0.80738   0.01965   0.00000  Uiso   1.00
C317   C     0.83207   0.91336   0.16690   0.00000  Uiso   1.00
C318   C     0.73384   0.83358   0.15500   0.00000  Uiso   1.00
C319   C     0.93282   0.83309   0.17833   0.00000  Uiso   1.00
C320   C     0.67991   0.82753   0.14948   0.00000  Uiso   1.00
C321   C     0.98676   0.83915   0.18385   0.00000  Uiso   1.00
C322   C     0.85796   0.68625   0.13320   0.00000  Uiso   1.00
C323   C     0.80870   0.98041   0.20015   0.00000  Uiso   1.00
C324   C     0.85643   0.97704   0.13439   0.00000  Uiso   1.00
H325   H     0.87510   0.95917   0.10974   0.00000  Uiso   1.00
H326   H     0.79156   0.70750   0.22361   0.00000  Uiso   1.00
H327   H     0.89068   0.88000   0.05005   0.00000  Uiso   1.00
H328   H     0.77599   0.78667   0.28328   0.00000  Uiso   1.00
H329   H     0.89059   0.88002   0.29892   0.00000  Uiso   1.00
H330   H     0.77607   0.78665   0.03441   0.00000  Uiso   1.00
N331   N     0.83332   0.83332   0.28573   0.00000  Uiso   1.00
N332   N     0.83335   0.83334   0.04760   0.00000  Uiso   1.00
O333   O     0.83333   0.77225   0.20487   0.00000  Uiso   1.00
O334   O     0.83334   0.89442   0.12846   0.00000  Uiso   1.00
O335   O     0.83333   0.77226   0.12843   0.00000  Uiso   1.00
O336   O     0.83334   0.89441   0.20490   0.00000  Uiso   1.00
O337   O     0.75725   0.83333   0.19595   0.00000  Uiso   1.00
O338   O     0.90942   0.83334   0.13739   0.00000  Uiso   1.00
O339   O     0.75725   0.83334   0.11950   0.00000  Uiso   1.00
O340   O     0.90942   0.83333   0.21383   0.00000  Uiso   1.00
Zn341  Zn    0.83333   0.83333   0.21771   0.00000  Uiso   1.00
Zn342  Zn    0.83333   0.83334   0.11563   0.00000  Uiso   1.00
Br343  Br    0.32013   0.12819   0.42866   0.00000  Uiso   1.00
Br344  Br    0.01321   0.20518   0.57133   0.00000  Uiso   1.00
Br345  Br    0.22770   0.04324   0.42077   0.00000  Uiso   1.00
Br346  Br    0.10566   0.29010   0.57927   0.00000  Uiso   1.00
C347   C     0.16792   0.08664   0.49977   0.00000  Uiso   1.00
C348   C     0.14356   0.02296   0.53228   0.00000  Uiso   1.00
C349   C     0.16538   0.29082   0.50082   0.00000  Uiso   1.00
C350   C     0.16794   0.04251   0.49918   0.00000  Uiso   1.00
C351   C     0.19853   0.19262   0.36168   0.00000  Uiso   1.00
C352   C     0.13480   0.14072   0.63832   0.00000  Uiso   1.00
C353   C     0.19850   0.19262   0.64701   0.00000  Uiso   1.00
C354   C     0.13483   0.14072   0.35299   0.00000  Uiso   1.00
C355   C     0.16540   0.24669   0.50023   0.00000  Uiso   1.00
C356   C     0.06718   0.16691   0.48834   0.00000  Uiso   1.00
C357   C     0.26616   0.16643   0.51166   0.00000  Uiso   1.00
C358   C     0.01324   0.16087   0.48281   0.00000  Uiso   1.00
C359   C     0.32009   0.17248   0.51719   0.00000  Uiso   1.00
C360   C     0.19129   0.01958   0.46653   0.00000  Uiso   1.00
C361   C     0.14204   0.31375   0.53348   0.00000  Uiso   1.00
C362   C     0.18976   0.31037   0.46772   0.00000  Uiso   1.00
H363   H     0.20843   0.29250   0.44307   0.00000  Uiso   1.00
H364   H     0.12490   0.04083   0.55694   0.00000  Uiso   1.00
H365   H     0.22401   0.21333   0.38338   0.00000  Uiso   1.00
H366   H     0.10932   0.12000   0.61662   0.00000  Uiso   1.00
H367   H     0.22393   0.21335   0.63226   0.00000  Uiso   1.00
H368   H     0.10940   0.11999   0.36774   0.00000  Uiso   1.00
N369   N     0.16665   0.16666   0.61907   0.00000  Uiso   1.00
N370   N     0.16668   0.16668   0.38093   0.00000  Uiso   1.00
O371   O     0.16666   0.10558   0.53821   0.00000  Uiso   1.00
O372   O     0.16667   0.22775   0.46179   0.00000  Uiso   1.00
O373   O     0.16666   0.10559   0.46176   0.00000  Uiso   1.00
O374   O     0.16667   0.22774   0.53824   0.00000  Uiso   1.00
O375   O     0.09058   0.16666   0.52928   0.00000  Uiso   1.00
O376   O     0.24275   0.16667   0.47072   0.00000  Uiso   1.00
O377   O     0.09058   0.16667   0.45284   0.00000  Uiso   1.00
O378   O     0.24275   0.16666   0.54716   0.00000  Uiso   1.00
Zn379  Zn    0.16667   0.16666   0.55104   0.00000  Uiso   1.00
Zn380  Zn    0.16667   0.16667   0.44896   0.00000  Uiso   1.00
Br381  Br    0.65346   0.12819   0.42866   0.00000  Uiso   1.00
Br382  Br    0.34654   0.20518   0.57133   0.00000  Uiso   1.00
Br383  Br    0.56104   0.04324   0.42077   0.00000  Uiso   1.00
Br384  Br    0.43899   0.29010   0.57927   0.00000  Uiso   1.00
C385   C     0.50126   0.08664   0.49977   0.00000  Uiso   1.00
C386   C     0.47689   0.02296   0.53228   0.00000  Uiso   1.00
C387   C     0.49871   0.29082   0.50082   0.00000  Uiso   1.00
C388   C     0.50127   0.04251   0.49918   0.00000  Uiso   1.00
C389   C     0.53187   0.19262   0.36168   0.00000  Uiso   1.00
C390   C     0.46813   0.14072   0.63832   0.00000  Uiso   1.00
C391   C     0.53184   0.19262   0.64701   0.00000  Uiso   1.00
C392   C     0.46816   0.14072   0.35299   0.00000  Uiso   1.00
C393   C     0.49873   0.24669   0.50023   0.00000  Uiso   1.00
C394   C     0.40051   0.16691   0.48834   0.00000  Uiso   1.00
C395   C     0.59949   0.16643   0.51166   0.00000  Uiso   1.00
C396   C     0.34657   0.16087   0.48281   0.00000  Uiso   1.00
C397   C     0.65343   0.17248   0.51719   0.00000  Uiso   1.00
C398   C     0.52462   0.01958   0.46653   0.00000  Uiso   1.00
C399   C     0.47537   0.31375   0.53348   0.00000  Uiso   1.00
C400   C     0.52309   0.31037   0.46772   0.00000  Uiso   1.00
H401   H     0.54177   0.29250   0.44307   0.00000  Uiso   1.00
H402   H     0.45823   0.04083   0.55694   0.00000  Uiso   1.00
H403   H     0.55734   0.21333   0.38338   0.00000  Uiso   1.00
H404   H     0.44266   0.12000   0.61662   0.00000  Uiso   1.00
H405   H     0.55726   0.21335   0.63226   0.00000  Uiso   1.00
H406   H     0.44274   0.11999   0.36774   0.00000  Uiso   1.00
N407   N     0.49999   0.16666   0.61907   0.00000  Uiso   1.00
N408   N     0.50001   0.16668   0.38093   0.00000  Uiso   1.00
O409   O     0.50000   0.10558   0.53821   0.00000  Uiso   1.00
O410   O     0.50000   0.22775   0.46179   0.00000  Uiso   1.00
O411   O     0.50000   0.10559   0.46176   0.00000  Uiso   1.00
O412   O     0.50000   0.22774   0.53824   0.00000  Uiso   1.00
O413   O     0.42392   0.16666   0.52928   0.00000  Uiso   1.00
O414   O     0.57608   0.16667   0.47072   0.00000  Uiso   1.00
O415   O     0.42392   0.16667   0.45284   0.00000  Uiso   1.00
O416   O     0.57608   0.16666   0.54716   0.00000  Uiso   1.00
Zn417  Zn    0.50000   0.16666   0.55104   0.00000  Uiso   1.00
Zn418  Zn    0.50000   0.16667   0.44896   0.00000  Uiso   1.00
Br419  Br    0.98679   0.12819   0.42866   0.00000  Uiso   1.00
Br420  Br    0.67987   0.20518   0.57133   0.00000  Uiso   1.00
Br421  Br    0.89437   0.04324   0.42077   0.00000  Uiso   1.00
Br422  Br    0.77232   0.29010   0.57927   0.00000  Uiso   1.00
C423   C     0.83459   0.08664   0.49977   0.00000  Uiso   1.00
C424   C     0.81023   0.02296   0.53228   0.00000  Uiso   1.00
C425   C     0.83204   0.29082   0.50082   0.00000  Uiso   1.00
C426   C     0.83460   0.04251   0.49918   0.00000  Uiso   1.00
C427   C     0.86520   0.19262   0.36168   0.00000  Uiso   1.00
C428   C     0.80147   0.14072   0.63832   0.00000  Uiso   1.00
C429   C     0.86517   0.19262   0.64701   0.00000  Uiso   1.00
C430   C     0.80149   0.14072   0.35299   0.00000  Uiso   1.00
C431   C     0.83207   0.24669   0.50023   0.00000  Uiso   1.00
C432   C     0.73384   0.16691   0.48834   0.00000  Uiso   1.00
C433   C     0.93282   0.16643   0.51166   0.00000  Uiso   1.00
C434   C     0.67991   0.16087   0.48281   0.00000  Uiso   1.00
C435   C     0.98676   0.17248   0.51719   0.00000  Uiso   1.00
C436   C     0.85796   0.01958   0.46653   0.00000  Uiso   1.00
C437   C     0.80870   0.31375   0.53348   0.00000  Uiso   1.00
C438   C     0.85643   0.31037   0.46772   0.00000  Uiso   1.00
H439   H     0.87510   0.29250   0.44307   0.00000  Uiso   1.00
H440   H     0.79156   0.04083   0.55694   0.00000  Uiso   1.00
H441   H     0.89068   0.21333   0.38338   0.00000  Uiso   1.00
H442   H     0.77599   0.12000   0.61662   0.00000  Uiso   1.00
H443   H     0.89059   0.21335   0.63226   0.00000  Uiso   1.00
H444   H     0.77607   0.11999   0.36774   0.00000  Uiso   1.00
N445   N     0.83332   0.16666   0.61907   0.00000  Uiso   1.00
N446   N     0.83335   0.16668   0.38093   0.00000  Uiso   1.00
O447   O     0.83333   0.10558   0.53821   0.00000  Uiso   1.00
O448   O     0.83334   0.22775   0.46179   0.00000  Uiso   1.00
O449   O     0.83333   0.10559   0.46176   0.00000  Uiso   1.00
O450   O     0.83334   0.22774   0.53824   0.00000  Uiso   1.00
O451   O     0.75725   0.16666   0.52928   0.00000  Uiso   1.00
O452   O     0.90942   0.16667   0.47072   0.00000  Uiso   1.00
O453   O     0.75725   0.16667   0.45284   0.00000  Uiso   1.00
O454   O     0.90942   0.16666   0.54716   0.00000  Uiso   1.00
Zn455  Zn    0.83333   0.16666   0.55104   0.00000  Uiso   1.00
Zn456  Zn    0.83333   0.16667   0.44896   0.00000  Uiso   1.00
Br457  Br    0.32013   0.46152   0.42866   0.00000  Uiso   1.00
Br458  Br    0.01321   0.53852   0.57133   0.00000  Uiso   1.00
Br459  Br    0.22770   0.37657   0.42077   0.00000  Uiso   1.00
Br460  Br    0.10566   0.62343   0.57927   0.00000  Uiso   1.00
C461   C     0.16792   0.41997   0.49977   0.00000  Uiso   1.00
C462   C     0.14356   0.35629   0.53228   0.00000  Uiso   1.00
C463   C     0.16538   0.62416   0.50082   0.00000  Uiso   1.00
C464   C     0.16794   0.37584   0.49918   0.00000  Uiso   1.00
C465   C     0.19853   0.52595   0.36168   0.00000  Uiso   1.00
C466   C     0.13480   0.47405   0.63832   0.00000  Uiso   1.00
C467   C     0.19850   0.52595   0.64701   0.00000  Uiso   1.00
C468   C     0.13483   0.47405   0.35299   0.00000  Uiso   1.00
C469   C     0.16540   0.58002   0.50023   0.00000  Uiso   1.00
C470   C     0.06718   0.50024   0.48834   0.00000  Uiso   1.00
C471   C     0.26616   0.49976   0.51166   0.00000  Uiso   1.00
C472   C     0.01324   0.49420   0.48281   0.00000  Uiso   1.00
C473   C     0.32009   0.50582   0.51719   0.00000  Uiso   1.00
C474   C     0.19129   0.35292   0.46653   0.00000  Uiso   1.00
C475   C     0.14204   0.64708   0.53348   0.00000  Uiso   1.00
C476   C     0.18976   0.64370   0.46772   0.00000  Uiso   1.00
H477   H     0.20843   0.62583   0.44307   0.00000  Uiso   1.00
H478   H     0.12490   0.37416   0.55694   0.00000  Uiso   1.00
H479   H     0.22401   0.54667   0.38338   0.00000  Uiso   1.00
H480   H     0.10932   0.45333   0.61662   0.00000  Uiso   1.00
H481   H     0.22393   0.54668   0.63226   0.00000  Uiso   1.00
H482   H     0.10940   0.45332   0.36774   0.00000  Uiso   1.00
N483   N     0.16665   0.49999   0.61907   0.00000  Uiso   1.00
N484   N     0.16668   0.50001   0.38093   0.00000  Uiso   1.00
O485   O     0.16666   0.43892   0.53821   0.00000  Uiso   1.00
O486   O     0.16667   0.56108   0.46179   0.00000  Uiso   1.00
O487   O     0.16666   0.43893   0.46176   0.00000  Uiso   1.00
O488   O     0.16667   0.56107   0.53824   0.00000  Uiso   1.00
O489   O     0.09058   0.50000   0.52928   0.00000  Uiso   1.00
O490   O     0.24275   0.50000   0.47072   0.00000  Uiso   1.00
O491   O     0.09058   0.50000   0.45284   0.00000  Uiso   1.00
O492   O     0.24275   0.50000   0.54716   0.00000  Uiso   1.00
Zn493  Zn    0.16667   0.49999   0.55104   0.00000  Uiso   1.00
Zn494  Zn    0.16667   0.50001   0.44896   0.00000  Uiso   1.00
Br495  Br    0.65346   0.46152   0.42866   0.00000  Uiso   1.00
Br496  Br    0.34654   0.53852   0.57133   0.00000  Uiso   1.00
Br497  Br    0.56104   0.37657   0.42077   0.00000  Uiso   1.00
Br498  Br    0.43899   0.62343   0.57927   0.00000  Uiso   1.00
C499   C     0.50126   0.41997   0.49977   0.00000  Uiso   1.00
C500   C     0.47689   0.35629   0.53228   0.00000  Uiso   1.00
C501   C     0.49871   0.62416   0.50082   0.00000  Uiso   1.00
C502   C     0.50127   0.37584   0.49918   0.00000  Uiso   1.00
C503   C     0.53187   0.52595   0.36168   0.00000  Uiso   1.00
C504   C     0.46813   0.47405   0.63832   0.00000  Uiso   1.00
C505   C     0.53184   0.52595   0.64701   0.00000  Uiso   1.00
C506   C     0.46816   0.47405   0.35299   0.00000  Uiso   1.00
C507   C     0.49873   0.58002   0.50023   0.00000  Uiso   1.00
C508   C     0.40051   0.50024   0.48834   0.00000  Uiso   1.00
C509   C     0.59949   0.49976   0.51166   0.00000  Uiso   1.00
C510   C     0.34657   0.49420   0.48281   0.00000  Uiso   1.00
C511   C     0.65343   0.50582   0.51719   0.00000  Uiso   1.00
C512   C     0.52462   0.35292   0.46653   0.00000  Uiso   1.00
C513   C     0.47537   0.64708   0.53348   0.00000  Uiso   1.00
C514   C     0.52309   0.64370   0.46772   0.00000  Uiso   1.00
H515   H     0.54177   0.62583   0.44307   0.00000  Uiso   1.00
H516   H     0.45823   0.37416   0.55694   0.00000  Uiso   1.00
H517   H     0.55734   0.54667   0.38338   0.00000  Uiso   1.00
H518   H     0.44266   0.45333   0.61662   0.00000  Uiso   1.00
H519   H     0.55726   0.54668   0.63226   0.00000  Uiso   1.00
H520   H     0.44274   0.45332   0.36774   0.00000  Uiso   1.00
N521   N     0.49999   0.49999   0.61907   0.00000  Uiso   1.00
N522   N     0.50001   0.50001   0.38093   0.00000  Uiso   1.00
O523   O     0.50000   0.43892   0.53821   0.00000  Uiso   1.00
O524   O     0.50000   0.56108   0.46179   0.00000  Uiso   1.00
O525   O     0.50000   0.43893   0.46176   0.00000  Uiso   1.00
O526   O     0.50000   0.56107   0.53824   0.00000  Uiso   1.00
O527   O     0.42392   0.50000   0.52928   0.00000  Uiso   1.00
O528   O     0.57608   0.50000   0.47072   0.00000  Uiso   1.00
O529   O     0.42392   0.50000   0.45284   0.00000  Uiso   1.00
O530   O     0.57608   0.50000   0.54716   0.00000  Uiso   1.00
Zn531  Zn    0.50000   0.49999   0.55104   0.00000  Uiso   1.00
Zn532  Zn    0.50000   0.50001   0.44896   0.00000  Uiso   1.00
Br533  Br    0.98679   0.46152   0.42866   0.00000  Uiso   1.00
Br534  Br    0.67987   0.53852   0.57133   0.00000  Uiso   1.00
Br535  Br    0.89437   0.37657   0.42077   0.00000  Uiso   1.00
Br536  Br    0.77232   0.62343   0.57927   0.00000  Uiso   1.00
C537   C     0.83459   0.41997   0.49977   0.00000  Uiso   1.00
C538   C     0.81023   0.35629   0.53228   0.00000  Uiso   1.00
C539   C     0.83204   0.62416   0.50082   0.00000  Uiso   1.00
C540   C     0.83460   0.37584   0.49918   0.00000  Uiso   1.00
C541   C     0.86520   0.52595   0.36168   0.00000  Uiso   1.00
C542   C     0.80147   0.47405   0.63832   0.00000  Uiso   1.00
C543   C     0.86517   0.52595   0.64701   0.00000  Uiso   1.00
C544   C     0.80149   0.47405   0.35299   0.00000  Uiso   1.00
C545   C     0.83207   0.58002   0.50023   0.00000  Uiso   1.00
C546   C     0.73384   0.50024   0.48834   0.00000  Uiso   1.00
C547   C     0.93282   0.49976   0.51166   0.00000  Uiso   1.00
C548   C     0.67991   0.49420   0.48281   0.00000  Uiso   1.00
C549   C     0.98676   0.50582   0.51719   0.00000  Uiso   1.00
C550   C     0.85796   0.35292   0.46653   0.00000  Uiso   1.00
C551   C     0.80870   0.64708   0.53348   0.00000  Uiso   1.00
C552   C     0.85643   0.64370   0.46772   0.00000  Uiso   1.00
H553   H     0.87510   0.62583   0.44307   0.00000  Uiso   1.00
H554   H     0.79156   0.37416   0.55694   0.00000  Uiso   1.00
H555   H     0.89068   0.54667   0.38338   0.00000  Uiso   1.00
H556   H     0.77599   0.45333   0.61662   0.00000  Uiso   1.00
H557   H     0.89059   0.54668   0.63226   0.00000  Uiso   1.00
H558   H     0.77607   0.45332   0.36774   0.00000  Uiso   1.00
N559   N     0.83332   0.49999   0.61907   0.00000  Uiso   1.00
N560   N     0.83335   0.50001   0.38093   0.00000  Uiso   1.00
O561   O     0.83333   0.43892   0.53821   0.00000  Uiso   1.00
O562   O     0.83334   0.56108   0.46179   0.00000  Uiso   1.00
O563   O     0.83333   0.43893   0.46176   0.00000  Uiso   1.00
O564   O     0.83334   0.56107   0.53824   0.00000  Uiso   1.00
O565   O     0.75725   0.50000   0.52928   0.00000  Uiso   1.00
O566   O     0.90942   0.50000   0.47072   0.00000  Uiso   1.00
O567   O     0.75725   0.50000   0.45284   0.00000  Uiso   1.00
O568   O     0.90942   0.50000   0.54716   0.00000  Uiso   1.00
Zn569  Zn    0.83333   0.49999   0.55104   0.00000  Uiso   1.00
Zn570  Zn    0.83333   0.50001   0.44896   0.00000  Uiso   1.00
Br571  Br    0.32013   0.79486   0.42866   0.00000  Uiso   1.00
Br572  Br    0.01321   0.87185   0.57133   0.00000  Uiso   1.00
Br573  Br    0.22770   0.70990   0.42077   0.00000  Uiso   1.00
Br574  Br    0.10566   0.95677   0.57927   0.00000  Uiso   1.00
C575   C     0.16792   0.75331   0.49977   0.00000  Uiso   1.00
C576   C     0.14356   0.68963   0.53228   0.00000  Uiso   1.00
C577   C     0.16538   0.95749   0.50082   0.00000  Uiso   1.00
C578   C     0.16794   0.70917   0.49918   0.00000  Uiso   1.00
C579   C     0.19853   0.85928   0.36168   0.00000  Uiso   1.00
C580   C     0.13480   0.80738   0.63832   0.00000  Uiso   1.00
C581   C     0.19850   0.85928   0.64701   0.00000  Uiso   1.00
C582   C     0.13483   0.80738   0.35299   0.00000  Uiso   1.00
C583   C     0.16540   0.91336   0.50023   0.00000  Uiso   1.00
C584   C     0.06718   0.83358   0.48834   0.00000  Uiso   1.00
C585   C     0.26616   0.83309   0.51166   0.00000  Uiso   1.00
C586   C     0.01324   0.82753   0.48281   0.00000  Uiso   1.00
C587   C     0.32009   0.83915   0.51719   0.00000  Uiso   1.00
C588   C     0.19129   0.68625   0.46653   0.00000  Uiso   1.00
C589   C     0.14204   0.98041   0.53348   0.00000  Uiso   1.00
C590   C     0.18976   0.97704   0.46772   0.00000  Uiso   1.00
H591   H     0.20843   0.95917   0.44307   0.00000  Uiso   1.00
H592   H     0.12490   0.70750   0.55694   0.00000  Uiso   1.00
H593   H     0.22401   0.88000   0.38338   0.00000  Uiso   1.00
H594   H     0.10932   0.78667   0.61662   0.00000  Uiso   1.00
H595   H     0.22393   0.88002   0.63226   0.00000  Uiso   1.00
H596   H     0.10940   0.78665   0.36774   0.00000  Uiso   1.00
N597   N     0.16665   0.83332   0.61907   0.00000  Uiso   1.00
N598   N     0.16668   0.83334   0.38093   0.00000  Uiso   1.00
O599   O     0.16666   0.77225   0.53821   0.00000  Uiso   1.00
O600   O     0.16667   0.89442   0.46179   0.00000  Uiso   1.00
O601   O     0.16666   0.77226   0.46176   0.00000  Uiso   1.00
O602   O     0.16667   0.89441   0.53824   0.00000  Uiso   1.00
O603   O     0.09058   0.83333   0.52928   0.00000  Uiso   1.00
O604   O     0.24275   0.83334   0.47072   0.00000  Uiso   1.00
O605   O     0.09058   0.83334   0.45284   0.00000  Uiso   1.00
O606   O     0.24275   0.83333   0.54716   0.00000  Uiso   1.00
Zn607  Zn    0.16667   0.83333   0.55104   0.00000  Uiso   1.00
Zn608  Zn    0.16667   0.83334   0.44896   0.00000  Uiso   1.00
Br609  Br    0.65346   0.79486   0.42866   0.00000  Uiso   1.00
Br610  Br    0.34654   0.87185   0.57133   0.00000  Uiso   1.00
Br611  Br    0.56104   0.70990   0.42077   0.00000  Uiso   1.00
Br612  Br    0.43899   0.95677   0.57927   0.00000  Uiso   1.00
C613   C     0.50126   0.75331   0.49977   0.00000  Uiso   1.00
C614   C     0.47689   0.68963   0.53228   0.00000  Uiso   1.00
C615   C     0.49871   0.95749   0.50082   0.00000  Uiso   1.00
C616   C     0.50127   0.70917   0.49918   0.00000  Uiso   1.00
C617   C     0.53187   0.85928   0.36168   0.00000  Uiso   1.00
C618   C     0.46813   0.80738   0.63832   0.00000  Uiso   1.00
C619   C     0.53184   0.85928   0.64701   0.00000  Uiso   1.00
C620   C     0.46816   0.80738   0.35299   0.00000  Uiso   1.00
C621   C     0.49873   0.91336   0.50023   0.00000  Uiso   1.00
C622   C     0.40051   0.83358   0.48834   0.00000  Uiso   1.00
C623   C     0.59949   0.83309   0.51166   0.00000  Uiso   1.00
C624   C     0.34657   0.82753   0.48281   0.00000  Uiso   1.00
C625   C     0.65343   0.83915   0.51719   0.00000  Uiso   1.00
C626   C     0.52462   0.68625   0.46653   0.00000  Uiso   1.00
C627   C     0.47537   0.98041   0.53348   0.00000  Uiso   1.00
C628   C     0.52309   0.97704   0.46772   0.00000  Uiso   1.00
H629   H     0.54177   0.95917   0.44307   0.00000  Uiso   1.00
H630   H     0.45823   0.70750   0.55694   0.00000  Uiso   1.00
H631   H     0.55734   0.88000   0.38338   0.00000  Uiso   1.00
H632   H     0.44266   0.78667   0.61662   0.00000  Uiso   1.00
H633   H     0.55726   0.88002   0.63226   0.00000  Uiso   1.00
H634   H     0.44274   0.78665   0.36774   0.00000  Uiso   1.00
N635   N     0.49999   0.83332   0.61907   0.00000  Uiso   1.00
N636   N     0.50001   0.83334   0.38093   0.00000  Uiso   1.00
O637   O     0.50000   0.77225   0.53821   0.00000  Uiso   1.00
O638   O     0.50000   0.89442   0.46179   0.00000  Uiso   1.00
O639   O     0.50000   0.77226   0.46176   0.00000  Uiso   1.00
O640   O     0.50000   0.89441   0.53824   0.00000  Uiso   1.00
O641   O     0.42392   0.83333   0.52928   0.00000  Uiso   1.00
O642   O     0.57608   0.83334   0.47072   0.00000  Uiso   1.00
O643   O     0.42392   0.83334   0.45284   0.00000  Uiso   1.00
O644   O     0.57608   0.83333   0.54716   0.00000  Uiso   1.00
Zn645  Zn    0.50000   0.83333   0.55104   0.00000  Uiso   1.00
Zn646  Zn    0.50000   0.83334   0.44896   0.00000  Uiso   1.00
Br647  Br    0.98679   0.79486   0.42866   0.00000  Uiso   1.00
Br648  Br    0.67987   0.87185   0.57133   0.00000  Uiso   1.00
Br649  Br    0.89437   0.70990   0.42077   0.00000  Uiso   1.00
Br650  Br    0.77232   0.95677   0.57927   0.00000  Uiso   1.00
C651   C     0.83459   0.75331   0.49977   0.00000  Uiso   1.00
C652   C     0.81023   0.68963   0.53228   0.00000  Uiso   1.00
C653   C     0.83204   0.95749   0.50082   0.00000  Uiso   1.00
C654   C     0.83460   0.70917   0.49918   0.00000  Uiso   1.00
C655   C     0.86520   0.85928   0.36168   0.00000  Uiso   1.00
C656   C     0.80147   0.80738   0.63832   0.00000  Uiso   1.00
C657   C     0.86517   0.85928   0.64701   0.00000  Uiso   1.00
C658   C     0.80149   0.80738   0.35299   0.00000  Uiso   1.00
C659   C     0.83207   0.91336   0.50023   0.00000  Uiso   1.00
C660   C     0.73384   0.83358   0.48834   0.00000  Uiso   1.00
C661   C     0.93282   0.83309   0.51166   0.00000  Uiso   1.00
C662   C     0.67991   0.82753   0.48281   0.00000  Uiso   1.00
C663   C     0.98676   0.83915   0.51719   0.00000  Uiso   1.00
C664   C     0.85796   0.68625   0.46653   0.00000  Uiso   1.00
C665   C     0.80870   0.98041   0.53348   0.00000  Uiso   1.00
C666   C     0.85643   0.97704   0.46772   0.00000  Uiso   1.00
H667   H     0.87510   0.95917   0.44307   0.00000  Uiso   1.00
H668   H     0.79156   0.70750   0.55694   0.00000  Uiso   1.00
H669   H     0.89068   0.88000   0.38338   0.00000  Uiso   1.00
H670   H     0.77599   0.78667   0.61662   0.00000  Uiso   1.00
H671   H     0.89059   0.88002   0.63226   0.00000  Uiso   1.00
H672   H     0.77607   0.78665   0.36774   0.00000  Uiso   1.00
N673   N     0.83332   0.83332   0.61907   0.00000  Uiso   1.00
N674   N     0.83335   0.83334   0.38093   0.00000  Uiso   1.00
O675   O     0.83333   0.77225   0.53821   0.00000  Uiso   1.00
O676   O     0.83334   0.89442   0.46179   0.00000  Uiso   1.00
O677   O     0.83333   0.77226   0.46176   0.00000  Uiso   1.00
O678   O     0.83334   0.89441   0.53824   0.00000  Uiso   1.00
O679   O     0.75725   0.83333   0.52928   0.00000  Uiso   1.00
O680   O     0.90942   0.83334   0.47072   0.00000  Uiso   1.00
O681   O     0.75725   0.83334   0.45284   0.00000  Uiso   1.00
O682   O     0.90942   0.83333   0.54716   0.00000  Uiso   1.00
Zn683  Zn    0.83333   0.83333   0.55104   0.00000  Uiso   1.00
Zn684  Zn    0.83333   0.83334   0.44896   0.00000  Uiso   1.00
Br685  Br    0.32013   0.12819   0.76199   0.00000  Uiso   1.00
Br686  Br    0.01321   0.20518   0.90466   0.00000  Uiso   1.00
Br687  Br    0.22770   0.04324   0.75411   0.00000  Uiso   1.00
Br688  Br    0.10566   0.29010   0.91260   0.00000  Uiso   1.00
C689   C     0.16792   0.08664   0.83310   0.00000  Uiso   1.00
C690   C     0.14356   0.02296   0.86562   0.00000  Uiso   1.00
C691   C     0.16538   0.29082   0.83415   0.00000  Uiso   1.00
C692   C     0.16794   0.04251   0.83252   0.00000  Uiso   1.00
C693   C     0.19853   0.19262   0.69502   0.00000  Uiso   1.00
C694   C     0.13480   0.14072   0.97165   0.00000  Uiso   1.00
C695   C     0.19850   0.19262   0.98035   0.00000  Uiso   1.00
C696   C     0.13483   0.14072   0.68632   0.00000  Uiso   1.00
C697   C     0.16540   0.24669   0.83356   0.00000  Uiso   1.00
C698   C     0.06718   0.16691   0.82167   0.00000  Uiso   1.00
C699   C     0.26616   0.16643   0.84500   0.00000  Uiso   1.00
C700   C     0.01324   0.16087   0.81615   0.00000  Uiso   1.00
C701   C     0.32009   0.17248   0.85052   0.00000  Uiso   1.00
C702   C     0.19129   0.01958   0.79986   0.00000  Uiso   1.00
C703   C     0.14204   0.31375   0.86681   0.00000  Uiso   1.00
C704   C     0.18976   0.31037   0.80106   0.00000  Uiso   1.00
H705   H     0.20843   0.29250   0.77640   0.00000  Uiso   1.00
H706   H     0.12490   0.04083   0.89028   0.00000  Uiso   1.00
H707   H     0.22401   0.21333   0.71672   0.00000  Uiso   1.00
H708   H     0.10932   0.12000   0.94995   0.00000  Uiso   1.00
H709   H     0.22393   0.21335   0.96559   0.00000  Uiso   1.00
H710   H     0.10940   0.11999   0.70108   0.00000  Uiso   1.00
N711   N     0.16665   0.16666   0.95240   0.00000  Uiso   1.00
N712   N     0.16668   0.16668   0.71427   0.00000  Uiso   1.00
O713   O     0.16666   0.10558   0.87154   0.00000  Uiso   1.00
O714   O     0.16667   0.22775   0.79513   0.00000  Uiso   1.00
O715   O     0.16666   0.10559   0.79510   0.00000  Uiso   1.00
O716   O     0.16667   0.22774   0.87157   0.00000  Uiso   1.00
O717   O     0.09058   0.16666   0.86261   0.00000  Uiso   1.00
O718   O     0.24275   0.16667   0.80405   0.00000  Uiso   1.00
O719   O     0.09058   0.16667   0.78617   0.00000  Uiso   1.00
O720   O     0.24275   0.16666   0.88050   0.00000  Uiso   1.00
Zn721  Zn    0.16667   0.16666   0.88437   0.00000  Uiso   1.00
Zn722  Zn    0.16667   0.16667   0.78229   0.00000  Uiso   1.00
Br723  Br    0.65346   0.12819   0.76199   0.00000  Uiso   1.00
Br724  Br    0.34654   0.20518   0.90466   0.00000  Uiso   1.00
Br725  Br    0.56104   0.04324   0.75411   0.00000  Uiso   1.00
Br726  Br    0.43899   0.29010   0.91260   0.00000  Uiso   1.00
C727   C     0.50126   0.08664   0.83310   0.00000  Uiso   1.00
C728   C     0.47689   0.02296   0.86562   0.00000  Uiso   1.00
C729   C     0.49871   0.29082   0.83415   0.00000  Uiso   1.00
C730   C     0.50127   0.04251   0.83252   0.00000  Uiso   1.00
C731   C     0.53187   0.19262   0.69502   0.00000  Uiso   1.00
C732   C     0.46813   0.14072   0.97165   0.00000  Uiso   1.00
C733   C     0.53184   0.19262   0.98035   0.00000  Uiso   1.00
C734   C     0.46816   0.14072   0.68632   0.00000  Uiso   1.00
C735   C     0.49873   0.24669   0.83356   0.00000  Uiso   1.00
C736   C     0.40051   0.16691   0.82167   0.00000  Uiso   1.00
C737   C     0.59949   0.16643   0.84500   0.00000  Uiso   1.00
C738   C     0.34657   0.16087   0.81615   0.00000  Uiso   1.00
C739   C     0.65343   0.17248   0.85052   0.00000  Uiso   1.00
C740   C     0.52462   0.01958   0.79986   0.00000  Uiso   1.00
C741   C     0.47537   0.31375   0.86681   0.00000  Uiso   1.00
C742   C     0.52309   0.31037   0.80106   0.00000  Uiso   1.00
H743   H     0.54177   0.29250   0.77640   0.00000  Uiso   1.00
H744   H     0.45823   0.04083   0.89028   0.00000  Uiso   1.00
H745   H     0.55734   0.21333   0.71672   0.00000  Uiso   1.00
H746   H     0.44266   0.12000   0.94995   0.00000  Uiso   1.00
H747   H     0.55726   0.21335   0.96559   0.00000  Uiso   1.00
H748   H     0.44274   0.11999   0.70108   0.00000  Uiso   1.00
N749   N     0.49999   0.16666   0.95240   0.00000  Uiso   1.00
N750   N     0.50001   0.16668   0.71427   0.00000  Uiso   1.00
O751   O     0.50000   0.10558   0.87154   0.00000  Uiso   1.00
O752   O     0.50000   0.22775   0.79513   0.00000  Uiso   1.00
O753   O     0.50000   0.10559   0.79510   0.00000  Uiso   1.00
O754   O     0.50000   0.22774   0.87157   0.00000  Uiso   1.00
O755   O     0.42392   0.16666   0.86261   0.00000  Uiso   1.00
O756   O     0.57608   0.16667   0.80405   0.00000  Uiso   1.00
O757   O     0.42392   0.16667   0.78617   0.00000  Uiso   1.00
O758   O     0.57608   0.16666   0.88050   0.00000  Uiso   1.00
Zn759  Zn    0.50000   0.16666   0.88437   0.00000  Uiso   1.00
Zn760  Zn    0.50000   0.16667   0.78229   0.00000  Uiso   1.00
Br761  Br    0.98679   0.12819   0.76199   0.00000  Uiso   1.00
Br762  Br    0.67987   0.20518   0.90466   0.00000  Uiso   1.00
Br763  Br    0.89437   0.04324   0.75411   0.00000  Uiso   1.00
Br764  Br    0.77232   0.29010   0.91260   0.00000  Uiso   1.00
C765   C     0.83459   0.08664   0.83310   0.00000  Uiso   1.00
C766   C     0.81023   0.02296   0.86562   0.00000  Uiso   1.00
C767   C     0.83204   0.29082   0.83415   0.00000  Uiso   1.00
C768   C     0.83460   0.04251   0.83252   0.00000  Uiso   1.00
C769   C     0.86520   0.19262   0.69502   0.00000  Uiso   1.00
C770   C     0.80147   0.14072   0.97165   0.00000  Uiso   1.00
C771   C     0.86517   0.19262   0.98035   0.00000  Uiso   1.00
C772   C     0.80149   0.14072   0.68632   0.00000  Uiso   1.00
C773   C     0.83207   0.24669   0.83356   0.00000  Uiso   1.00
C774   C     0.73384   0.16691   0.82167   0.00000  Uiso   1.00
C775   C     0.93282   0.16643   0.84500   0.00000  Uiso   1.00
C776   C     0.67991   0.16087   0.81615   0.00000  Uiso   1.00
C777   C     0.98676   0.17248   0.85052   0.00000  Uiso   1.00
C778   C     0.85796   0.01958   0.79986   0.00000  Uiso   1.00
C779   C     0.80870   0.31375   0.86681   0.00000  Uiso   1.00
C780   C     0.85643   0.31037   0.80106   0.00000  Uiso   1.00
H781   H     0.87510   0.29250   0.77640   0.00000  Uiso   1.00
H782   H     0.79156   0.04083   0.89028   0.00000  Uiso   1.00
H783   H     0.89068   0.21333   0.71672   0.00000  Uiso   1.00
H784   H     0.77599   0.12000   0.94995   0.00000  Uiso   1.00
H785   H     0.89059   0.21335   0.96559   0.00000  Uiso   1.00
H786   H     0.77607   0.11999   0.70108   0.00000  Uiso   1.00
N787   N     0.83332   0.16666   0.95240   0.00000  Uiso   1.00
N788   N     0.83335   0.16668   0.71427   0.00000  Uiso   1.00
O789   O     0.83333   0.10558   0.87154   0.00000  Uiso   1.00
O790   O     0.83334   0.22775   0.79513   0.00000  Uiso   1.00
O791   O     0.83333   0.10559   0.79510   0.00000  Uiso   1.00
O792   O     0.83334   0.22774   0.87157   0.00000  Uiso   1.00
O793   O     0.75725   0.16666   0.86261   0.00000  Uiso   1.00
O794   O     0.90942   0.16667   0.80405   0.00000  Uiso   1.00
O795   O     0.75725   0.16667   0.78617   0.00000  Uiso   1.00
O796   O     0.90942   0.16666   0.88050   0.00000  Uiso   1.00
Zn797  Zn    0.83333   0.16666   0.88437   0.00000  Uiso   1.00
Zn798  Zn    0.83333   0.16667   0.78229   0.00000  Uiso   1.00
Br799  Br    0.32013   0.46152   0.76199   0.00000  Uiso   1.00
Br800  Br    0.01321   0.53852   0.90466   0.00000  Uiso   1.00
Br801  Br    0.22770   0.37657   0.75411   0.00000  Uiso   1.00
Br802  Br    0.10566   0.62343   0.91260   0.00000  Uiso   1.00
C803   C     0.16792   0.41997   0.83310   0.00000  Uiso   1.00
C804   C     0.14356   0.35629   0.86562   0.00000  Uiso   1.00
C805   C     0.16538   0.62416   0.83415   0.00000  Uiso   1.00
C806   C     0.16794   0.37584   0.83252   0.00000  Uiso   1.00
C807   C     0.19853   0.52595   0.69502   0.00000  Uiso   1.00
C808   C     0.13480   0.47405   0.97165   0.00000  Uiso   1.00
C809   C     0.19850   0.52595   0.98035   0.00000  Uiso   1.00
C810   C     0.13483   0.47405   0.68632   0.00000  Uiso   1.00
C811   C     0.16540   0.58002   0.83356   0.00000  Uiso   1.00
C812   C     0.06718   0.50024   0.82167   0.00000  Uiso   1.00
C813   C     0.26616   0.49976   0.84500   0.00000  Uiso   1.00
C814   C     0.01324   0.49420   0.81615   0.00000  Uiso   1.00
C815   C     0.32009   0.50582   0.85052   0.00000  Uiso   1.00
C816   C     0.19129   0.35292   0.79986   0.00000  Uiso   1.00
C817   C     0.14204   0.64708   0.86681   0.00000  Uiso   1.00
C818   C     0.18976   0.64370   0.80106   0.00000  Uiso   1.00
H819   H     0.20843   0.62583   0.77640   0.00000  Uiso   1.00
H820   H     0.12490   0.37416   0.89028   0.00000  Uiso   1.00
H821   H     0.22401   0.54667   0.71672   0.00000  Uiso   1.00
H822   H     0.10932   0.45333   0.94995   0.00000  Uiso   1.00
H823   H     0.22393   0.54668   0.96559   0.00000  Uiso   1.00
H824   H     0.10940   0.45332   0.70108   0.00000  Uiso   1.00
N825   N     0.16665   0.49999   0.95240   0.00000  Uiso   1.00
N826   N     0.16668   0.50001   0.71427   0.00000  Uiso   1.00
O827   O     0.16666   0.43892   0.87154   0.00000  Uiso   1.00
O828   O     0.16667   0.56108   0.79513   0.00000  Uiso   1.00
O829   O     0.16666   0.43893   0.79510   0.00000  Uiso   1.00
O830   O     0.16667   0.56107   0.87157   0.00000  Uiso   1.00
O831   O     0.09058   0.50000   0.86261   0.00000  Uiso   1.00
O832   O     0.24275   0.50000   0.80405   0.00000  Uiso   1.00
O833   O     0.09058   0.50000   0.78617   0.00000  Uiso   1.00
O834   O     0.24275   0.50000   0.88050   0.00000  Uiso   1.00
Zn835  Zn    0.16667   0.49999   0.88437   0.00000  Uiso   1.00
Zn836  Zn    0.16667   0.50001   0.78229   0.00000  Uiso   1.00
Br837  Br    0.65346   0.46152   0.76199   0.00000  Uiso   1.00
Br838  Br    0.34654   0.53852   0.90466   0.00000  Uiso   1.00
Br839  Br    0.56104   0.37657   0.75411   0.00000  Uiso   1.00
Br840  Br    0.43899   0.62343   0.91260   0.00000  Uiso   1.00
C841   C     0.50126   0.41997   0.83310   0.00000  Uiso   1.00
C842   C     0.47689   0.35629   0.86562   0.00000  Uiso   1.00
C843   C     0.49871   0.62416   0.83415   0.00000  Uiso   1.00
C844   C     0.50127   0.37584   0.83252   0.00000  Uiso   1.00
C845   C     0.53187   0.52595   0.69502   0.00000  Uiso   1.00
C846   C     0.46813   0.47405   0.97165   0.00000  Uiso   1.00
C847   C     0.53184   0.52595   0.98035   0.00000  Uiso   1.00
C848   C     0.46816   0.47405   0.68632   0.00000  Uiso   1.00
C849   C     0.49873   0.58002   0.83356   0.00000  Uiso   1.00
C850   C     0.40051   0.50024   0.82167   0.00000  Uiso   1.00
C851   C     0.59949   0.49976   0.84500   0.00000  Uiso   1.00
C852   C     0.34657   0.49420   0.81615   0.00000  Uiso   1.00
C853   C     0.65343   0.50582   0.85052   0.00000  Uiso   1.00
C854   C     0.52462   0.35292   0.79986   0.00000  Uiso   1.00
C855   C     0.47537   0.64708   0.86681   0.00000  Uiso   1.00
C856   C     0.52309   0.64370   0.80106   0.00000  Uiso   1.00
H857   H     0.54177   0.62583   0.77640   0.00000  Uiso   1.00
H858   H     0.45823   0.37416   0.89028   0.00000  Uiso   1.00
H859   H     0.55734   0.54667   0.71672   0.00000  Uiso   1.00
H860   H     0.44266   0.45333   0.94995   0.00000  Uiso   1.00
H861   H     0.55726   0.54668   0.96559   0.00000  Uiso   1.00
H862   H     0.44274   0.45332   0.70108   0.00000  Uiso   1.00
N863   N     0.49999   0.49999   0.95240   0.00000  Uiso   1.00
N864   N     0.50001   0.50001   0.71427   0.00000  Uiso   1.00
O865   O     0.50000   0.43892   0.87154   0.00000  Uiso   1.00
O866   O     0.50000   0.56108   0.79513   0.00000  Uiso   1.00
O867   O     0.50000   0.43893   0.79510   0.00000  Uiso   1.00
O868   O     0.50000   0.56107   0.87157   0.00000  Uiso   1.00
O869   O     0.42392   0.50000   0.86261   0.00000  Uiso   1.00
O870   O     0.57608   0.50000   0.80405   0.00000  Uiso   1.00
O871   O     0.42392   0.50000   0.78617   0.00000  Uiso   1.00
O872   O     0.57608   0.50000   0.88050   0.00000  Uiso   1.00
Zn873  Zn    0.50000   0.49999   0.88437   0.00000  Uiso   1.00
Zn874  Zn    0.50000   0.50001   0.78229   0.00000  Uiso   1.00
Br875  Br    0.98679   0.46152   0.76199   0.00000  Uiso   1.00
Br876  Br    0.67987   0.53852   0.90466   0.00000  Uiso   1.00
Br877  Br    0.89437   0.37657   0.75411   0.00000  Uiso   1.00
Br878  Br    0.77232   0.62343   0.91260   0.00000  Uiso   1.00
C879   C     0.83459   0.41997   0.83310   0.00000  Uiso   1.00
C880   C     0.81023   0.35629   0.86562   0.00000  Uiso   1.00
C881   C     0.83204   0.62416   0.83415   0.00000  Uiso   1.00
C882   C     0.83460   0.37584   0.83252   0.00000  Uiso   1.00
C883   C     0.86520   0.52595   0.69502   0.00000  Uiso   1.00
C884   C     0.80147   0.47405   0.97165   0.00000  Uiso   1.00
C885   C     0.86517   0.52595   0.98035   0.00000  Uiso   1.00
C886   C     0.80149   0.47405   0.68632   0.00000  Uiso   1.00
C887   C     0.83207   0.58002   0.83356   0.00000  Uiso   1.00
C888   C     0.73384   0.50024   0.82167   0.00000  Uiso   1.00
C889   C     0.93282   0.49976   0.84500   0.00000  Uiso   1.00
C890   C     0.67991   0.49420   0.81615   0.00000  Uiso   1.00
C891   C     0.98676   0.50582   0.85052   0.00000  Uiso   1.00
C892   C     0.85796   0.35292   0.79986   0.00000  Uiso   1.00
C893   C     0.80870   0.64708   0.86681   0.00000  Uiso   1.00
C894   C     0.85643   0.64370   0.80106   0.00000  Uiso   1.00
H895   H     0.87510   0.62583   0.77640   0.00000  Uiso   1.00
H896   H     0.79156   0.37416   0.89028   0.00000  Uiso   1.00
H897   H     0.89068   0.54667   0.71672   0.00000  Uiso   1.00
H898   H     0.77599   0.45333   0.94995   0.00000  Uiso   1.00
H899   H     0.89059   0.54668   0.96559   0.00000  Uiso   1.00
H900   H     0.77607   0.45332   0.70108   0.00000  Uiso   1.00
N901   N     0.83332   0.49999   0.95240   0.00000  Uiso   1.00
N902   N     0.83335   0.50001   0.71427   0.00000  Uiso   1.00
O903   O     0.83333   0.43892   0.87154   0.00000  Uiso   1.00
O904   O     0.83334   0.56108   0.79513   0.00000  Uiso   1.00
O905   O     0.83333   0.43893   0.79510   0.00000  Uiso   1.00
O906   O     0.83334   0.56107   0.87157   0.00000  Uiso   1.00
O907   O     0.75725   0.50000   0.86261   0.00000  Uiso   1.00
O908   O     0.90942   0.50000   0.80405   0.00000  Uiso   1.00
O909   O     0.75725   0.50000   0.78617   0.00000  Uiso   1.00
O910   O     0.90942   0.50000   0.88050   0.00000  Uiso   1.00
Zn911  Zn    0.83333   0.49999   0.88437   0.00000  Uiso   1.00
Zn912  Zn    0.83333   0.50001   0.78229   0.00000  Uiso   1.00
Br913  Br    0.32013   0.79486   0.76199   0.00000  Uiso   1.00
Br914  Br    0.01321   0.87185   0.90466   0.00000  Uiso   1.00
Br915  Br    0.22770   0.70990   0.75411   0.00000  Uiso   1.00
Br916  Br    0.10566   0.95677   0.91260   0.00000  Uiso   1.00
C917   C     0.16792   0.75331   0.83310   0.00000  Uiso   1.00
C918   C     0.14356   0.68963   0.86562   0.00000  Uiso   1.00
C919   C     0.16538   0.95749   0.83415   0.00000  Uiso   1.00
C920   C     0.16794   0.70917   0.83252   0.00000  Uiso   1.00
C921   C     0.19853   0.85928   0.69502   0.00000  Uiso   1.00
C922   C     0.13480   0.80738   0.97165   0.00000  Uiso   1.00
C923   C     0.19850   0.85928   0.98035   0.00000  Uiso   1.00
C924   C     0.13483   0.80738   0.68632   0.00000  Uiso   1.00
C925   C     0.16540   0.91336   0.83356   0.00000  Uiso   1.00
C926   C     0.06718   0.83358   0.82167   0.00000  Uiso   1.00
C927   C     0.26616   0.83309   0.84500   0.00000  Uiso   1.00
C928   C     0.01324   0.82753   0.81615   0.00000  Uiso   1.00
C929   C     0.32009   0.83915   0.85052   0.00000  Uiso   1.00
C930   C     0.19129   0.68625   0.79986   0.00000  Uiso   1.00
C931   C     0.14204   0.98041   0.86681   0.00000  Uiso   1.00
C932   C     0.18976   0.97704   0.80106   0.00000  Uiso   1.00
H933   H     0.20843   0.95917   0.77640   0.00000  Uiso   1.00
H934   H     0.12490   0.70750   0.89028   0.00000  Uiso   1.00
H935   H     0.22401   0.88000   0.71672   0.00000  Uiso   1.00
H936   H     0.10932   0.78667   0.94995   0.00000  Uiso   1.00
H937   H     0.22393   0.88002   0.96559   0.00000  Uiso   1.00
H938   H     0.10940   0.78665   0.70108   0.00000  Uiso   1.00
N939   N     0.16665   0.83332   0.95240   0.00000  Uiso   1.00
N940   N     0.16668   0.83334   0.71427   0.00000  Uiso   1.00
O941   O     0.16666   0.77225   0.87154   0.00000  Uiso   1.00
O942   O     0.16667   0.89442   0.79513   0.00000  Uiso   1.00
O943   O     0.16666   0.77226   0.79510   0.00000  Uiso   1.00
O944   O     0.16667   0.89441   0.87157   0.00000  Uiso   1.00
O945   O     0.09058   0.83333   0.86261   0.00000  Uiso   1.00
O946   O     0.24275   0.83334   0.80405   0.00000  Uiso   1.00
O947   O     0.09058   0.83334   0.78617   0.00000  Uiso   1.00
O948   O     0.24275   0.83333   0.88050   0.00000  Uiso   1.00
Zn949  Zn    0.16667   0.83333   0.88437   0.00000  Uiso   1.00
Zn950  Zn    0.16667   0.83334   0.78229   0.00000  Uiso   1.00
Br951  Br    0.65346   0.79486   0.76199   0.00000  Uiso   1.00
Br952  Br    0.34654   0.87185   0.90466   0.00000  Uiso   1.00
Br953  Br    0.56104   0.70990   0.75411   0.00000  Uiso   1.00
Br954  Br    0.43899   0.95677   0.91260   0.00000  Uiso   1.00
C955   C     0.50126   0.75331   0.83310   0.00000  Uiso   1.00
C956   C     0.47689   0.68963   0.86562   0.00000  Uiso   1.00
C957   C     0.49871   0.95749   0.83415   0.00000  Uiso   1.00
C958   C     0.50127   0.70917   0.83252   0.00000  Uiso   1.00
C959   C     0.53187   0.85928   0.69502   0.00000  Uiso   1.00
C960   C     0.46813   0.80738   0.97165   0.00000  Uiso   1.00
C961   C     0.53184   0.85928   0.98035   0.00000  Uiso   1.00
C962   C     0.46816   0.80738   0.68632   0.00000  Uiso   1.00
C963   C     0.49873   0.91336   0.83356   0.00000  Uiso   1.00
C964   C     0.40051   0.83358   0.82167   0.00000  Uiso   1.00
C965   C     0.59949   0.83309   0.84500   0.00000  Uiso   1.00
C966   C     0.34657   0.82753   0.81615   0.00000  Uiso   1.00
C967   C     0.65343   0.83915   0.85052   0.00000  Uiso   1.00
C968   C     0.52462   0.68625   0.79986   0.00000  Uiso   1.00
C969   C     0.47537   0.98041   0.86681   0.00000  Uiso   1.00
C970   C     0.52309   0.97704   0.80106   0.00000  Uiso   1.00
H971   H     0.54177   0.95917   0.77640   0.00000  Uiso   1.00
H972   H     0.45823   0.70750   0.89028   0.00000  Uiso   1.00
H973   H     0.55734   0.88000   0.71672   0.00000  Uiso   1.00
H974   H     0.44266   0.78667   0.94995   0.00000  Uiso   1.00
H975   H     0.55726   0.88002   0.96559   0.00000  Uiso   1.00
H976   H     0.44274   0.78665   0.70108   0.00000  Uiso   1.00
N977   N     0.49999   0.83332   0.95240   0.00000  Uiso   1.00
N978   N     0.50001   0.83334   0.71427   0.00000  Uiso   1.00
O979   O     0.50000   0.77225   0.87154   0.00000  Uiso   1.00
O980   O     0.50000   0.89442   0.79513   0.00000  Uiso   1.00
O981   O     0.50000   0.77226   0.79510   0.00000  Uiso   1.00
O982   O     0.50000   0.89441   0.87157   0.00000  Uiso   1.00
O983   O     0.42392   0.83333   0.86261   0.00000  Uiso   1.00
O984   O     0.57608   0.83334   0.80405   0.00000  Uiso   1.00
O985   O     0.42392   0.83334   0.78617   0.00000  Uiso   1.00
O986   O     0.57608   0.83333   0.88050   0.00000  Uiso   1.00
Zn987  Zn    0.50000   0.83333   0.88437   0.00000  Uiso   1.00
Zn988  Zn    0.50000   0.83334   0.78229   0.00000  Uiso   1.00
Br989  Br    0.98679   0.79486   0.76199   0.00000  Uiso   1.00
Br990  Br    0.67987   0.87185   0.90466   0.00000  Uiso   1.00
Br991  Br    0.89437   0.70990   0.75411   0.00000  Uiso   1.00
Br992  Br    0.77232   0.95677   0.91260   0.00000  Uiso   1.00
C993   C     0.83459   0.75331   0.83310   0.00000  Uiso   1.00
C994   C     0.81023   0.68963   0.86562   0.00000  Uiso   1.00
C995   C     0.83204   0.95749   0.83415   0.00000  Uiso   1.00
C996   C     0.83460   0.70917   0.83252   0.00000  Uiso   1.00
C997   C     0.86520   0.85928   0.69502   0.00000  Uiso   1.00
C998   C     0.80147   0.80738   0.97165   0.00000  Uiso   1.00
C999   C     0.86517   0.85928   0.98035   0.00000  Uiso   1.00
C1000  C     0.80149   0.80738   0.68632   0.00000  Uiso   1.00
C1001  C     0.83207   0.91336   0.83356   0.00000  Uiso   1.00
C1002  C     0.73384   0.83358   0.82167   0.00000  Uiso   1.00
C1003  C     0.93282   0.83309   0.84500   0.00000  Uiso   1.00
C1004  C     0.67991   0.82753   0.81615   0.00000  Uiso   1.00
C1005  C     0.98676   0.83915   0.85052   0.00000  Uiso   1.00
C1006  C     0.85796   0.68625   0.79986   0.00000  Uiso   1.00
C1007  C     0.80870   0.98041   0.86681   0.00000  Uiso   1.00
C1008  C     0.85643   0.97704   0.80106   0.00000  Uiso   1.00
H1009  H     0.87510   0.95917   0.77640   0.00000  Uiso   1.00
H1010  H     0.79156   0.70750   0.89028   0.00000  Uiso   1.00
H1011  H     0.89068   0.88000   0.71672   0.00000  Uiso   1.00
H1012  H     0.77599   0.78667   0.94995   0.00000  Uiso   1.00
H1013  H     0.89059   0.88002   0.96559   0.00000  Uiso   1.00
H1014  H     0.77607   0.78665   0.70108   0.00000  Uiso   1.00
N1015  N     0.83332   0.83332   0.95240   0.00000  Uiso   1.00
N1016  N     0.83335   0.83334   0.71427   0.00000  Uiso   1.00
O1017  O     0.83333   0.77225   0.87154   0.00000  Uiso   1.00
O1018  O     0.83334   0.89442   0.79513   0.00000  Uiso   1.00
O1019  O     0.83333   0.77226   0.79510   0.00000  Uiso   1.00
O1020  O     0.83334   0.89441   0.87157   0.00000  Uiso   1.00
O1021  O     0.75725   0.83333   0.86261   0.00000  Uiso   1.00
O1022  O     0.90942   0.83334   0.80405   0.00000  Uiso   1.00
O1023  O     0.75725   0.83334   0.78617   0.00000  Uiso   1.00
O1024  O     0.90942   0.83333   0.88050   0.00000  Uiso   1.00
Zn1025 Zn    0.83333   0.83333   0.88437   0.00000  Uiso   1.00
Zn1026 Zn    0.83333   0.83334   0.78229   0.00000  Uiso   1.00
loop_
_geom_bond_atom_site_label_1
_geom_bond_atom_site_label_2
_geom_bond_distance
_geom_bond_site_symmetry_2
_ccdc_geom_bond_type
Br1    C54     1.946   .     S
Br2    C93     1.946   1_455 S
Br3    C18     1.924   .     S
Br4    C19     1.924   .     S
C5     C8      1.420   .     S
C5     O29     1.284   .     A
C5     O31     1.279   .     A
C6     H22     1.085   .     S
C6     C8      1.396   .     A
C6     C247    1.371   1_545 S
C7     C19     1.406   .     A
C7     C13     1.420   .     S
C7     C20     1.396   .     A
C8     C18     1.406   .     A
C9     H23     1.082   .     S
C9     N28     1.366   .     A
C9     C695    1.415   1_554 S
C10    N27     1.366   .     A
C10    H24     1.082   .     S
C10    C354    1.415   .     S
C11    N27     1.366   .     A
C11    H25     1.082   .     S
C11    C351    1.415   .     S
C12    N28     1.366   .     A
C12    H26     1.082   .     S
C12    C694    1.415   1_554 S
C13    O32     1.279   .     A
C13    O30     1.284   .     A
C14    O33     1.272   .     A
C14    C16     1.402   .     S
C14    O35     1.283   .     A
C15    O36     1.283   .     A
C15    C17     1.402   .     S
C15    O34     1.272   .     A
C16    Br77    1.946   1_455 S
C16    C93     1.350   1_455 S
C17    C54     1.350   .     S
C17    Br40    1.946   .     S
C18    C248    1.371   1_545 S
C19    C120    1.371   .     S
C20    H21     1.085   .     S
C20    C132    1.371   .     S
N27    Zn37    2.006   .     S
N28    Zn38    2.006   .     S
O29    Zn37    1.996   .     S
O30    Zn38    1.996   .     S
O31    Zn38    2.006   .     S
O32    Zn37    2.006   .     S
O33    Zn37    1.988   .     S
O34    Zn38    1.988   .     S
O35    Zn38    1.995   .     S
O36    Zn37    1.995   .     S
Br39   C92     1.946   .     S
Br41   C56     1.924   .     S
Br42   C57     1.924   .     S
C43    C46     1.420   .     S
C43    O67     1.284   .     A
C43    O69     1.279   .     A
C44    H60     1.085   .     S
C44    C46     1.396   .     A
C44    C285    1.371   1_545 S
C45    C57     1.406   .     A
C45    C51     1.420   .     S
C45    C58     1.396   .     A
C46    C56     1.406   .     A
C47    H61     1.082   .     S
C47    N66     1.366   .     A
C47    C733    1.415   1_554 S
C48    N65     1.366   .     A
C48    H62     1.082   .     S
C48    C392    1.415   .     S
C49    N65     1.366   .     A
C49    H63     1.082   .     S
C49    C389    1.415   .     S
C50    N66     1.366   .     A
C50    H64     1.082   .     S
C50    C732    1.415   1_554 S
C51    O70     1.279   .     A
C51    O68     1.284   .     A
C52    O71     1.272   .     A
C52    C54     1.402   .     S
C52    O73     1.283   .     A
C53    O74     1.283   .     A
C53    C55     1.402   .     S
C53    O72     1.272   .     A
C55    C92     1.350   .     S
C55    Br78    1.946   .     S
C56    C286    1.371   1_545 S
C57    C158    1.371   .     S
C58    H59     1.085   .     S
C58    C170    1.371   .     S
N65    Zn75    2.006   .     S
N66    Zn76    2.006   .     S
O67    Zn75    1.996   .     S
O68    Zn76    1.996   .     S
O69    Zn76    2.006   .     S
O70    Zn75    2.006   .     S
O71    Zn75    1.988   .     S
O72    Zn76    1.988   .     S
O73    Zn76    1.995   .     S
O74    Zn75    1.995   .     S
Br77   C16     1.946   1_655 S
Br79   C94     1.924   .     S
Br80   C95     1.924   .     S
C81    C84     1.420   .     S
C81    O105    1.284   .     A
C81    O107    1.279   .     A
C82    H98     1.085   .     S
C82    C84     1.396   .     A
C82    C323    1.371   1_545 S
C83    C95     1.406   .     A
C83    C89     1.420   .     S
C83    C96     1.396   .     A
C84    C94     1.406   .     A
C85    H99     1.082   .     S
C85    N104    1.366   .     A
C85    C771    1.415   1_554 S
C86    N103    1.366   .     A
C86    H100    1.082   .     S
C86    C430    1.415   .     S
C87    N103    1.366   .     A
C87    H101    1.082   .     S
C87    C427    1.415   .     S
C88    N104    1.366   .     A
C88    H102    1.082   .     S
C88    C770    1.415   1_554 S
C89    O108    1.279   .     A
C89    O106    1.284   .     A
C90    O109    1.272   .     A
C90    C92     1.402   .     S
C90    O111    1.283   .     A
C91    O112    1.283   .     A
C91    C93     1.402   .     S
C91    O110    1.272   .     A
C93    C16     1.350   1_655 S
C93    Br2     1.946   1_655 S
C94    C324    1.371   1_545 S
C95    C196    1.371   .     S
C96    H97     1.085   .     S
C96    C208    1.371   .     S
N103   Zn113   2.006   .     S
N104   Zn114   2.006   .     S
O105   Zn113   1.996   .     S
O106   Zn114   1.996   .     S
O107   Zn114   2.006   .     S
O108   Zn113   2.006   .     S
O109   Zn113   1.988   .     S
O110   Zn114   1.988   .     S
O111   Zn114   1.995   .     S
O112   Zn113   1.995   .     S
Br115  C168    1.946   .     S
Br116  C207    1.946   1_455 S
Br117  C132    1.924   .     S
Br118  C133    1.924   .     S
C119   C122    1.420   .     S
C119   O143    1.284   .     A
C119   O145    1.279   .     A
C120   H136    1.085   .     S
C120   C122    1.396   .     A
C121   C133    1.406   .     A
C121   C127    1.420   .     S
C121   C134    1.396   .     A
C122   C132    1.406   .     A
C123   H137    1.082   .     S
C123   N142    1.366   .     A
C123   C809    1.415   1_554 S
C124   N141    1.366   .     A
C124   H138    1.082   .     S
C124   C468    1.415   .     S
C125   N141    1.366   .     A
C125   H139    1.082   .     S
C125   C465    1.415   .     S
C126   N142    1.366   .     A
C126   H140    1.082   .     S
C126   C808    1.415   1_554 S
C127   O146    1.279   .     A
C127   O144    1.284   .     A
C128   O147    1.272   .     A
C128   C130    1.402   .     S
C128   O149    1.283   .     A
C129   O150    1.283   .     A
C129   C131    1.402   .     S
C129   O148    1.272   .     A
C130   Br191   1.946   1_455 S
C130   C207    1.350   1_455 S
C131   C168    1.350   .     S
C131   Br154   1.946   .     S
C133   C234    1.371   .     S
C134   H135    1.085   .     S
C134   C246    1.371   .     S
N141   Zn151   2.006   .     S
N142   Zn152   2.006   .     S
O143   Zn151   1.996   .     S
O144   Zn152   1.996   .     S
O145   Zn152   2.006   .     S
O146   Zn151   2.006   .     S
O147   Zn151   1.988   .     S
O148   Zn152   1.988   .     S
O149   Zn152   1.995   .     S
O150   Zn151   1.995   .     S
Br153  C206    1.946   .     S
Br155  C170    1.924   .     S
Br156  C171    1.924   .     S
C157   C160    1.420   .     S
C157   O181    1.284   .     A
C157   O183    1.279   .     A
C158   H174    1.085   .     S
C158   C160    1.396   .     A
C159   C171    1.406   .     A
C159   C165    1.420   .     S
C159   C172    1.396   .     A
C160   C170    1.406   .     A
C161   H175    1.082   .     S
C161   N180    1.366   .     A
C161   C847    1.415   1_554 S
C162   N179    1.366   .     A
C162   H176    1.082   .     S
C162   C506    1.415   .     S
C163   N179    1.366   .     A
C163   H177    1.082   .     S
C163   C503    1.415   .     S
C164   N180    1.366   .     A
C164   H178    1.082   .     S
C164   C846    1.415   1_554 S
C165   O184    1.279   .     A
C165   O182    1.284   .     A
C166   O185    1.272   .     A
C166   C168    1.402   .     S
C166   O187    1.283   .     A
C167   O188    1.283   .     A
C167   C169    1.402   .     S
C167   O186    1.272   .     A
C169   C206    1.350   .     S
C169   Br192   1.946   .     S
C171   C272    1.371   .     S
C172   H173    1.085   .     S
C172   C284    1.371   .     S
N179   Zn189   2.006   .     S
N180   Zn190   2.006   .     S
O181   Zn189   1.996   .     S
O182   Zn190   1.996   .     S
O183   Zn190   2.006   .     S
O184   Zn189   2.006   .     S
O185   Zn189   1.988   .     S
O186   Zn190   1.988   .     S
O187   Zn190   1.995   .     S
O188   Zn189   1.995   .     S
Br191  C130    1.946   1_655 S
Br193  C208    1.924   .     S
Br194  C209    1.924   .     S
C195   C198    1.420   .     S
C195   O219    1.284   .     A
C195   O221    1.279   .     A
C196   H212    1.085   .     S
C196   C198    1.396   .     A
C197   C209    1.406   .     A
C197   C203    1.420   .     S
C197   C210    1.396   .     A
C198   C208    1.406   .     A
C199   H213    1.082   .     S
C199   N218    1.366   .     A
C199   C885    1.415   1_554 S
C200   N217    1.366   .     A
C200   H214    1.082   .     S
C200   C544    1.415   .     S
C201   N217    1.366   .     A
C201   H215    1.082   .     S
C201   C541    1.415   .     S
C202   N218    1.366   .     A
C202   H216    1.082   .     S
C202   C884    1.415   1_554 S
C203   O222    1.279   .     A
C203   O220    1.284   .     A
C204   O223    1.272   .     A
C204   C206    1.402   .     S
C204   O225    1.283   .     A
C205   O226    1.283   .     A
C205   C207    1.402   .     S
C205   O224    1.272   .     A
C207   C130    1.350   1_655 S
C207   Br116   1.946   1_655 S
C209   C310    1.371   .     S
C210   H211    1.085   .     S
C210   C322    1.371   .     S
N217   Zn227   2.006   .     S
N218   Zn228   2.006   .     S
O219   Zn227   1.996   .     S
O220   Zn228   1.996   .     S
O221   Zn228   2.006   .     S
O222   Zn227   2.006   .     S
O223   Zn227   1.988   .     S
O224   Zn228   1.988   .     S
O225   Zn228   1.995   .     S
O226   Zn227   1.995   .     S
Br229  C282    1.946   .     S
Br230  C321    1.946   1_455 S
Br231  C246    1.924   .     S
Br232  C247    1.924   .     S
C233   C236    1.420   .     S
C233   O257    1.284   .     A
C233   O259    1.279   .     A
C234   H250    1.085   .     S
C234   C236    1.396   .     A
C235   C247    1.406   .     A
C235   C241    1.420   .     S
C235   C248    1.396   .     A
C236   C246    1.406   .     A
C237   H251    1.082   .     S
C237   N256    1.366   .     A
C237   C923    1.415   1_554 S
C238   N255    1.366   .     A
C238   H252    1.082   .     S
C238   C582    1.415   .     S
C239   N255    1.366   .     A
C239   H253    1.082   .     S
C239   C579    1.415   .     S
C240   N256    1.366   .     A
C240   H254    1.082   .     S
C240   C922    1.415   1_554 S
C241   O260    1.279   .     A
C241   O258    1.284   .     A
C242   O261    1.272   .     A
C242   C244    1.402   .     S
C242   O263    1.283   .     A
C243   O264    1.283   .     A
C243   C245    1.402   .     S
C243   O262    1.272   .     A
C244   Br305   1.946   1_455 S
C244   C321    1.350   1_455 S
C245   C282    1.350   .     S
C245   Br268   1.946   .     S
C247   C6      1.371   1_565 S
C248   H249    1.085   .     S
C248   C18     1.371   1_565 S
N255   Zn265   2.006   .     S
N256   Zn266   2.006   .     S
O257   Zn265   1.996   .     S
O258   Zn266   1.996   .     S
O259   Zn266   2.006   .     S
O260   Zn265   2.006   .     S
O261   Zn265   1.988   .     S
O262   Zn266   1.988   .     S
O263   Zn266   1.995   .     S
O264   Zn265   1.995   .     S
Br267  C320    1.946   .     S
Br269  C284    1.924   .     S
Br270  C285    1.924   .     S
C271   C274    1.420   .     S
C271   O295    1.284   .     A
C271   O297    1.279   .     A
C272   H288    1.085   .     S
C272   C274    1.396   .     A
C273   C285    1.406   .     A
C273   C279    1.420   .     S
C273   C286    1.396   .     A
C274   C284    1.406   .     A
C275   H289    1.082   .     S
C275   N294    1.366   .     A
C275   C961    1.415   1_554 S
C276   N293    1.366   .     A
C276   H290    1.082   .     S
C276   C620    1.415   .     S
C277   N293    1.366   .     A
C277   H291    1.082   .     S
C277   C617    1.415   .     S
C278   N294    1.366   .     A
C278   H292    1.082   .     S
C278   C960    1.415   1_554 S
C279   O298    1.279   .     A
C279   O296    1.284   .     A
C280   O299    1.272   .     A
C280   C282    1.402   .     S
C280   O301    1.283   .     A
C281   O302    1.283   .     A
C281   C283    1.402   .     S
C281   O300    1.272   .     A
C283   C320    1.350   .     S
C283   Br306   1.946   .     S
C285   C44     1.371   1_565 S
C286   H287    1.085   .     S
C286   C56     1.371   1_565 S
N293   Zn303   2.006   .     S
N294   Zn304   2.006   .     S
O295   Zn303   1.996   .     S
O296   Zn304   1.996   .     S
O297   Zn304   2.006   .     S
O298   Zn303   2.006   .     S
O299   Zn303   1.988   .     S
O300   Zn304   1.988   .     S
O301   Zn304   1.995   .     S
O302   Zn303   1.995   .     S
Br305  C244    1.946   1_655 S
Br307  C322    1.924   .     S
Br308  C323    1.924   .     S
C309   C312    1.420   .     S
C309   O333    1.284   .     A
C309   O335    1.279   .     A
C310   H326    1.085   .     S
C310   C312    1.396   .     A
C311   C323    1.406   .     A
C311   C317    1.420   .     S
C311   C324    1.396   .     A
C312   C322    1.406   .     A
C313   H327    1.082   .     S
C313   N332    1.366   .     A
C313   C999    1.415   1_554 S
C314   N331    1.366   .     A
C314   H328    1.082   .     S
C314   C658    1.415   .     S
C315   N331    1.366   .     A
C315   H329    1.082   .     S
C315   C655    1.415   .     S
C316   N332    1.366   .     A
C316   H330    1.082   .     S
C316   C998    1.415   1_554 S
C317   O336    1.279   .     A
C317   O334    1.284   .     A
C318   O337    1.272   .     A
C318   C320    1.402   .     S
C318   O339    1.283   .     A
C319   O340    1.283   .     A
C319   C321    1.402   .     S
C319   O338    1.272   .     A
C321   C244    1.350   1_655 S
C321   Br230   1.946   1_655 S
C323   C82     1.371   1_565 S
C324   H325    1.085   .     S
C324   C94     1.371   1_565 S
N331   Zn341   2.006   .     S
N332   Zn342   2.006   .     S
O333   Zn341   1.996   .     S
O334   Zn342   1.996   .     S
O335   Zn342   2.006   .     S
O336   Zn341   2.006   .     S
O337   Zn341   1.988   .     S
O338   Zn342   1.988   .     S
O339   Zn342   1.995   .     S
O340   Zn341   1.995   .     S
Br343  C396    1.946   .     S
Br344  C435    1.946   1_455 S
Br345  C360    1.924   .     S
Br346  C361    1.924   .     S
C347   C350    1.420   .     S
C347   O371    1.284   .     A
C347   O373    1.279   .     A
C348   H364    1.085   .     S
C348   C350    1.396   .     A
C348   C589    1.371   1_545 S
C349   C361    1.406   .     A
C349   C355    1.420   .     S
C349   C362    1.396   .     A
C350   C360    1.406   .     A
C351   H365    1.082   .     S
C351   N370    1.366   .     A
C352   N369    1.366   .     A
C352   H366    1.082   .     S
C352   C696    1.415   .     S
C353   N369    1.366   .     A
C353   H367    1.082   .     S
C353   C693    1.415   .     S
C354   N370    1.366   .     A
C354   H368    1.082   .     S
C355   O374    1.279   .     A
C355   O372    1.284   .     A
C356   O375    1.272   .     A
C356   C358    1.402   .     S
C356   O377    1.283   .     A
C357   O378    1.283   .     A
C357   C359    1.402   .     S
C357   O376    1.272   .     A
C358   Br419   1.946   1_455 S
C358   C435    1.350   1_455 S
C359   C396    1.350   .     S
C359   Br382   1.946   .     S
C360   C590    1.371   1_545 S
C361   C462    1.371   .     S
C362   H363    1.085   .     S
C362   C474    1.371   .     S
N369   Zn379   2.006   .     S
N370   Zn380   2.006   .     S
O371   Zn379   1.996   .     S
O372   Zn380   1.996   .     S
O373   Zn380   2.006   .     S
O374   Zn379   2.006   .     S
O375   Zn379   1.988   .     S
O376   Zn380   1.988   .     S
O377   Zn380   1.995   .     S
O378   Zn379   1.995   .     S
Br381  C434    1.946   .     S
Br383  C398    1.924   .     S
Br384  C399    1.924   .     S
C385   C388    1.420   .     S
C385   O409    1.284   .     A
C385   O411    1.279   .     A
C386   H402    1.085   .     S
C386   C388    1.396   .     A
C386   C627    1.371   1_545 S
C387   C399    1.406   .     A
C387   C393    1.420   .     S
C387   C400    1.396   .     A
C388   C398    1.406   .     A
C389   H403    1.082   .     S
C389   N408    1.366   .     A
C390   N407    1.366   .     A
C390   H404    1.082   .     S
C390   C734    1.415   .     S
C391   N407    1.366   .     A
C391   H405    1.082   .     S
C391   C731    1.415   .     S
C392   N408    1.366   .     A
C392   H406    1.082   .     S
C393   O412    1.279   .     A
C393   O410    1.284   .     A
C394   O413    1.272   .     A
C394   C396    1.402   .     S
C394   O415    1.283   .     A
C395   O416    1.283   .     A
C395   C397    1.402   .     S
C395   O414    1.272   .     A
C397   C434    1.350   .     S
C397   Br420   1.946   .     S
C398   C628    1.371   1_545 S
C399   C500    1.371   .     S
C400   H401    1.085   .     S
C400   C512    1.371   .     S
N407   Zn417   2.006   .     S
N408   Zn418   2.006   .     S
O409   Zn417   1.996   .     S
O410   Zn418   1.996   .     S
O411   Zn418   2.006   .     S
O412   Zn417   2.006   .     S
O413   Zn417   1.988   .     S
O414   Zn418   1.988   .     S
O415   Zn418   1.995   .     S
O416   Zn417   1.995   .     S
Br419  C358    1.946   1_655 S
Br421  C436    1.924   .     S
Br422  C437    1.924   .     S
C423   C426    1.420   .     S
C423   O447    1.284   .     A
C423   O449    1.279   .     A
C424   H440    1.085   .     S
C424   C426    1.396   .     A
C424   C665    1.371   1_545 S
C425   C437    1.406   .     A
C425   C431    1.420   .     S
C425   C438    1.396   .     A
C426   C436    1.406   .     A
C427   H441    1.082   .     S
C427   N446    1.366   .     A
C428   N445    1.366   .     A
C428   H442    1.082   .     S
C428   C772    1.415   .     S
C429   N445    1.366   .     A
C429   H443    1.082   .     S
C429   C769    1.415   .     S
C430   N446    1.366   .     A
C430   H444    1.082   .     S
C431   O450    1.279   .     A
C431   O448    1.284   .     A
C432   O451    1.272   .     A
C432   C434    1.402   .     S
C432   O453    1.283   .     A
C433   O454    1.283   .     A
C433   C435    1.402   .     S
C433   O452    1.272   .     A
C435   C358    1.350   1_655 S
C435   Br344   1.946   1_655 S
C436   C666    1.371   1_545 S
C437   C538    1.371   .     S
C438   H439    1.085   .     S
C438   C550    1.371   .     S
N445   Zn455   2.006   .     S
N446   Zn456   2.006   .     S
O447   Zn455   1.996   .     S
O448   Zn456   1.996   .     S
O449   Zn456   2.006   .     S
O450   Zn455   2.006   .     S
O451   Zn455   1.988   .     S
O452   Zn456   1.988   .     S
O453   Zn456   1.995   .     S
O454   Zn455   1.995   .     S
Br457  C510    1.946   .     S
Br458  C549    1.946   1_455 S
Br459  C474    1.924   .     S
Br460  C475    1.924   .     S
C461   C464    1.420   .     S
C461   O485    1.284   .     A
C461   O487    1.279   .     A
C462   H478    1.085   .     S
C462   C464    1.396   .     A
C463   C475    1.406   .     A
C463   C469    1.420   .     S
C463   C476    1.396   .     A
C464   C474    1.406   .     A
C465   H479    1.082   .     S
C465   N484    1.366   .     A
C466   N483    1.366   .     A
C466   H480    1.082   .     S
C466   C810    1.415   .     S
C467   N483    1.366   .     A
C467   H481    1.082   .     S
C467   C807    1.415   .     S
C468   N484    1.366   .     A
C468   H482    1.082   .     S
C469   O488    1.279   .     A
C469   O486    1.284   .     A
C470   O489    1.272   .     A
C470   C472    1.402   .     S
C470   O491    1.283   .     A
C471   O492    1.283   .     A
C471   C473    1.402   .     S
C471   O490    1.272   .     A
C472   Br533   1.946   1_455 S
C472   C549    1.350   1_455 S
C473   C510    1.350   .     S
C473   Br496   1.946   .     S
C475   C576    1.371   .     S
C476   H477    1.085   .     S
C476   C588    1.371   .     S
N483   Zn493   2.006   .     S
N484   Zn494   2.006   .     S
O485   Zn493   1.996   .     S
O486   Zn494   1.996   .     S
O487   Zn494   2.006   .     S
O488   Zn493   2.006   .     S
O489   Zn493   1.988   .     S
O490   Zn494   1.988   .     S
O491   Zn494   1.995   .     S
O492   Zn493   1.995   .     S
Br495  C548    1.946   .     S
Br497  C512    1.924   .     S
Br498  C513    1.924   .     S
C499   C502    1.420   .     S
C499   O523    1.284   .     A
C499   O525    1.279   .     A
C500   H516    1.085   .     S
C500   C502    1.396   .     A
C501   C513    1.406   .     A
C501   C507    1.420   .     S
C501   C514    1.396   .     A
C502   C512    1.406   .     A
C503   H517    1.082   .     S
C503   N522    1.366   .     A
C504   N521    1.366   .     A
C504   H518    1.082   .     S
C504   C848    1.415   .     S
C505   N521    1.366   .     A
C505   H519    1.082   .     S
C505   C845    1.415   .     S
C506   N522    1.366   .     A
C506   H520    1.082   .     S
C507   O526    1.279   .     A
C507   O524    1.284   .     A
C508   O527    1.272   .     A
C508   C510    1.402   .     S
C508   O529    1.283   .     A
C509   O530    1.283   .     A
C509   C511    1.402   .     S
C509   O528    1.272   .     A
C511   C548    1.350   .     S
C511   Br534   1.946   .     S
C513   C614    1.371   .     S
C514   H515    1.085   .     S
C514   C626    1.371   .     S
N521   Zn531   2.006   .     S
N522   Zn532   2.006   .     S
O523   Zn531   1.996   .     S
O524   Zn532   1.996   .     S
O525   Zn532   2.006   .     S
O526   Zn531   2.006   .     S
O527   Zn531   1.988   .     S
O528   Zn532   1.988   .     S
O529   Zn532   1.995   .     S
O530   Zn531   1.995   .     S
Br533  C472    1.946   1_655 S
Br535  C550    1.924   .     S
Br536  C551    1.924   .     S
C537   C540    1.420   .     S
C537   O561    1.284   .     A
C537   O563    1.279   .     A
C538   H554    1.085   .     S
C538   C540    1.396   .     A
C539   C551    1.406   .     A
C539   C545    1.420   .     S
C539   C552    1.396   .     A
C540   C550    1.406   .     A
C541   H555    1.082   .     S
C541   N560    1.366   .     A
C542   N559    1.366   .     A
C542   H556    1.082   .     S
C542   C886    1.415   .     S
C543   N559    1.366   .     A
C543   H557    1.082   .     S
C543   C883    1.415   .     S
C544   N560    1.366   .     A
C544   H558    1.082   .     S
C545   O564    1.279   .     A
C545   O562    1.284   .     A
C546   O565    1.272   .     A
C546   C548    1.402   .     S
C546   O567    1.283   .     A
C547   O568    1.283   .     A
C547   C549    1.402   .     S
C547   O566    1.272   .     A
C549   C472    1.350   1_655 S
C549   Br458   1.946   1_655 S
C551   C652    1.371   .     S
C552   H553    1.085   .     S
C552   C664    1.371   .     S
N559   Zn569   2.006   .     S
N560   Zn570   2.006   .     S
O561   Zn569   1.996   .     S
O562   Zn570   1.996   .     S
O563   Zn570   2.006   .     S
O564   Zn569   2.006   .     S
O565   Zn569   1.988   .     S
O566   Zn570   1.988   .     S
O567   Zn570   1.995   .     S
O568   Zn569   1.995   .     S
Br571  C624    1.946   .     S
Br572  C663    1.946   1_455 S
Br573  C588    1.924   .     S
Br574  C589    1.924   .     S
C575   C578    1.420   .     S
C575   O599    1.284   .     A
C575   O601    1.279   .     A
C576   H592    1.085   .     S
C576   C578    1.396   .     A
C577   C589    1.406   .     A
C577   C583    1.420   .     S
C577   C590    1.396   .     A
C578   C588    1.406   .     A
C579   H593    1.082   .     S
C579   N598    1.366   .     A
C580   N597    1.366   .     A
C580   H594    1.082   .     S
C580   C924    1.415   .     S
C581   N597    1.366   .     A
C581   H595    1.082   .     S
C581   C921    1.415   .     S
C582   N598    1.366   .     A
C582   H596    1.082   .     S
C583   O602    1.279   .     A
C583   O600    1.284   .     A
C584   O603    1.272   .     A
C584   C586    1.402   .     S
C584   O605    1.283   .     A
C585   O606    1.283   .     A
C585   C587    1.402   .     S
C585   O604    1.272   .     A
C586   Br647   1.946   1_455 S
C586   C663    1.350   1_455 S
C587   C624    1.350   .     S
C587   Br610   1.946   .     S
C589   C348    1.371   1_565 S
C590   H591    1.085   .     S
C590   C360    1.371   1_565 S
N597   Zn607   2.006   .     S
N598   Zn608   2.006   .     S
O599   Zn607   1.996   .     S
O600   Zn608   1.996   .     S
O601   Zn608   2.006   .     S
O602   Zn607   2.006   .     S
O603   Zn607   1.988   .     S
O604   Zn608   1.988   .     S
O605   Zn608   1.995   .     S
O606   Zn607   1.995   .     S
Br609  C662    1.946   .     S
Br611  C626    1.924   .     S
Br612  C627    1.924   .     S
C613   C616    1.420   .     S
C613   O637    1.284   .     A
C613   O639    1.279   .     A
C614   H630    1.085   .     S
C614   C616    1.396   .     A
C615   C627    1.406   .     A
C615   C621    1.420   .     S
C615   C628    1.396   .     A
C616   C626    1.406   .     A
C617   H631    1.082   .     S
C617   N636    1.366   .     A
C618   N635    1.366   .     A
C618   H632    1.082   .     S
C618   C962    1.415   .     S
C619   N635    1.366   .     A
C619   H633    1.082   .     S
C619   C959    1.415   .     S
C620   N636    1.366   .     A
C620   H634    1.082   .     S
C621   O640    1.279   .     A
C621   O638    1.284   .     A
C622   O641    1.272   .     A
C622   C624    1.402   .     S
C622   O643    1.283   .     A
C623   O644    1.283   .     A
C623   C625    1.402   .     S
C623   O642    1.272   .     A
C625   C662    1.350   .     S
C625   Br648   1.946   .     S
C627   C386    1.371   1_565 S
C628   H629    1.085   .     S
C628   C398    1.371   1_565 S
N635   Zn645   2.006   .     S
N636   Zn646   2.006   .     S
O637   Zn645   1.996   .     S
O638   Zn646   1.996   .     S
O639   Zn646   2.006   .     S
O640   Zn645   2.006   .     S
O641   Zn645   1.988   .     S
O642   Zn646   1.988   .     S
O643   Zn646   1.995   .     S
O644   Zn645   1.995   .     S
Br647  C586    1.946   1_655 S
Br649  C664    1.924   .     S
Br650  C665    1.924   .     S
C651   C654    1.420   .     S
C651   O675    1.284   .     A
C651   O677    1.279   .     A
C652   H668    1.085   .     S
C652   C654    1.396   .     A
C653   C665    1.406   .     A
C653   C659    1.420   .     S
C653   C666    1.396   .     A
C654   C664    1.406   .     A
C655   H669    1.082   .     S
C655   N674    1.366   .     A
C656   N673    1.366   .     A
C656   H670    1.082   .     S
C656   C1000   1.415   .     S
C657   N673    1.366   .     A
C657   H671    1.082   .     S
C657   C997    1.415   .     S
C658   N674    1.366   .     A
C658   H672    1.082   .     S
C659   O678    1.279   .     A
C659   O676    1.284   .     A
C660   O679    1.272   .     A
C660   C662    1.402   .     S
C660   O681    1.283   .     A
C661   O682    1.283   .     A
C661   C663    1.402   .     S
C661   O680    1.272   .     A
C663   C586    1.350   1_655 S
C663   Br572   1.946   1_655 S
C665   C424    1.371   1_565 S
C666   H667    1.085   .     S
C666   C436    1.371   1_565 S
N673   Zn683   2.006   .     S
N674   Zn684   2.006   .     S
O675   Zn683   1.996   .     S
O676   Zn684   1.996   .     S
O677   Zn684   2.006   .     S
O678   Zn683   2.006   .     S
O679   Zn683   1.988   .     S
O680   Zn684   1.988   .     S
O681   Zn684   1.995   .     S
O682   Zn683   1.995   .     S
Br685  C738    1.946   .     S
Br686  C777    1.946   1_455 S
Br687  C702    1.924   .     S
Br688  C703    1.924   .     S
C689   C692    1.420   .     S
C689   O713    1.284   .     A
C689   O715    1.279   .     A
C690   H706    1.085   .     S
C690   C692    1.396   .     A
C690   C931    1.371   1_545 S
C691   C703    1.406   .     A
C691   C697    1.420   .     S
C691   C704    1.396   .     A
C692   C702    1.406   .     A
C693   H707    1.082   .     S
C693   N712    1.366   .     A
C694   N711    1.366   .     A
C694   H708    1.082   .     S
C694   C12     1.415   1_556 S
C695   N711    1.366   .     A
C695   H709    1.082   .     S
C695   C9      1.415   1_556 S
C696   N712    1.366   .     A
C696   H710    1.082   .     S
C697   O716    1.279   .     A
C697   O714    1.284   .     A
C698   O717    1.272   .     A
C698   C700    1.402   .     S
C698   O719    1.283   .     A
C699   O720    1.283   .     A
C699   C701    1.402   .     S
C699   O718    1.272   .     A
C700   Br761   1.946   1_455 S
C700   C777    1.350   1_455 S
C701   C738    1.350   .     S
C701   Br724   1.946   .     S
C702   C932    1.371   1_545 S
C703   C804    1.371   .     S
C704   H705    1.085   .     S
C704   C816    1.371   .     S
N711   Zn721   2.006   .     S
N712   Zn722   2.006   .     S
O713   Zn721   1.996   .     S
O714   Zn722   1.996   .     S
O715   Zn722   2.006   .     S
O716   Zn721   2.006   .     S
O717   Zn721   1.988   .     S
O718   Zn722   1.988   .     S
O719   Zn722   1.995   .     S
O720   Zn721   1.995   .     S
Br723  C776    1.946   .     S
Br725  C740    1.924   .     S
Br726  C741    1.924   .     S
C727   C730    1.420   .     S
C727   O751    1.284   .     A
C727   O753    1.279   .     A
C728   H744    1.085   .     S
C728   C730    1.396   .     A
C728   C969    1.371   1_545 S
C729   C741    1.406   .     A
C729   C735    1.420   .     S
C729   C742    1.396   .     A
C730   C740    1.406   .     A
C731   H745    1.082   .     S
C731   N750    1.366   .     A
C732   N749    1.366   .     A
C732   H746    1.082   .     S
C732   C50     1.415   1_556 S
C733   N749    1.366   .     A
C733   H747    1.082   .     S
C733   C47     1.415   1_556 S
C734   N750    1.366   .     A
C734   H748    1.082   .     S
C735   O754    1.279   .     A
C735   O752    1.284   .     A
C736   O755    1.272   .     A
C736   C738    1.402   .     S
C736   O757    1.283   .     A
C737   O758    1.283   .     A
C737   C739    1.402   .     S
C737   O756    1.272   .     A
C739   C776    1.350   .     S
C739   Br762   1.946   .     S
C740   C970    1.371   1_545 S
C741   C842    1.371   .     S
C742   H743    1.085   .     S
C742   C854    1.371   .     S
N749   Zn759   2.006   .     S
N750   Zn760   2.006   .     S
O751   Zn759   1.996   .     S
O752   Zn760   1.996   .     S
O753   Zn760   2.006   .     S
O754   Zn759   2.006   .     S
O755   Zn759   1.988   .     S
O756   Zn760   1.988   .     S
O757   Zn760   1.995   .     S
O758   Zn759   1.995   .     S
Br761  C700    1.946   1_655 S
Br763  C778    1.924   .     S
Br764  C779    1.924   .     S
C765   C768    1.420   .     S
C765   O789    1.284   .     A
C765   O791    1.279   .     A
C766   H782    1.085   .     S
C766   C768    1.396   .     A
C766   C1007   1.371   1_545 S
C767   C779    1.406   .     A
C767   C773    1.420   .     S
C767   C780    1.396   .     A
C768   C778    1.406   .     A
C769   H783    1.082   .     S
C769   N788    1.366   .     A
C770   N787    1.366   .     A
C770   H784    1.082   .     S
C770   C88     1.415   1_556 S
C771   N787    1.366   .     A
C771   H785    1.082   .     S
C771   C85     1.415   1_556 S
C772   N788    1.366   .     A
C772   H786    1.082   .     S
C773   O792    1.279   .     A
C773   O790    1.284   .     A
C774   O793    1.272   .     A
C774   C776    1.402   .     S
C774   O795    1.283   .     A
C775   O796    1.283   .     A
C775   C777    1.402   .     S
C775   O794    1.272   .     A
C777   C700    1.350   1_655 S
C777   Br686   1.946   1_655 S
C778   C1008   1.371   1_545 S
C779   C880    1.371   .     S
C780   H781    1.085   .     S
C780   C892    1.371   .     S
N787   Zn797   2.006   .     S
N788   Zn798   2.006   .     S
O789   Zn797   1.996   .     S
O790   Zn798   1.996   .     S
O791   Zn798   2.006   .     S
O792   Zn797   2.006   .     S
O793   Zn797   1.988   .     S
O794   Zn798   1.988   .     S
O795   Zn798   1.995   .     S
O796   Zn797   1.995   .     S
Br799  C852    1.946   .     S
Br800  C891    1.946   1_455 S
Br801  C816    1.924   .     S
Br802  C817    1.924   .     S
C803   C806    1.420   .     S
C803   O827    1.284   .     A
C803   O829    1.279   .     A
C804   H820    1.085   .     S
C804   C806    1.396   .     A
C805   C817    1.406   .     A
C805   C811    1.420   .     S
C805   C818    1.396   .     A
C806   C816    1.406   .     A
C807   H821    1.082   .     S
C807   N826    1.366   .     A
C808   N825    1.366   .     A
C808   H822    1.082   .     S
C808   C126    1.415   1_556 S
C809   N825    1.366   .     A
C809   H823    1.082   .     S
C809   C123    1.415   1_556 S
C810   N826    1.366   .     A
C810   H824    1.082   .     S
C811   O830    1.279   .     A
C811   O828    1.284   .     A
C812   O831    1.272   .     A
C812   C814    1.402   .     S
C812   O833    1.283   .     A
C813   O834    1.283   .     A
C813   C815    1.402   .     S
C813   O832    1.272   .     A
C814   Br875   1.946   1_455 S
C814   C891    1.350   1_455 S
C815   C852    1.350   .     S
C815   Br838   1.946   .     S
C817   C918    1.371   .     S
C818   H819    1.085   .     S
C818   C930    1.371   .     S
N825   Zn835   2.006   .     S
N826   Zn836   2.006   .     S
O827   Zn835   1.996   .     S
O828   Zn836   1.996   .     S
O829   Zn836   2.006   .     S
O830   Zn835   2.006   .     S
O831   Zn835   1.988   .     S
O832   Zn836   1.988   .     S
O833   Zn836   1.995   .     S
O834   Zn835   1.995   .     S
Br837  C890    1.946   .     S
Br839  C854    1.924   .     S
Br840  C855    1.924   .     S
C841   C844    1.420   .     S
C841   O865    1.284   .     A
C841   O867    1.279   .     A
C842   H858    1.085   .     S
C842   C844    1.396   .     A
C843   C855    1.406   .     A
C843   C849    1.420   .     S
C843   C856    1.396   .     A
C844   C854    1.406   .     A
C845   H859    1.082   .     S
C845   N864    1.366   .     A
C846   N863    1.366   .     A
C846   H860    1.082   .     S
C846   C164    1.415   1_556 S
C847   N863    1.366   .     A
C847   H861    1.082   .     S
C847   C161    1.415   1_556 S
C848   N864    1.366   .     A
C848   H862    1.082   .     S
C849   O868    1.279   .     A
C849   O866    1.284   .     A
C850   O869    1.272   .     A
C850   C852    1.402   .     S
C850   O871    1.283   .     A
C851   O872    1.283   .     A
C851   C853    1.402   .     S
C851   O870    1.272   .     A
C853   C890    1.350   .     S
C853   Br876   1.946   .     S
C855   C956    1.371   .     S
C856   H857    1.085   .     S
C856   C968    1.371   .     S
N863   Zn873   2.006   .     S
N864   Zn874   2.006   .     S
O865   Zn873   1.996   .     S
O866   Zn874   1.996   .     S
O867   Zn874   2.006   .     S
O868   Zn873   2.006   .     S
O869   Zn873   1.988   .     S
O870   Zn874   1.988   .     S
O871   Zn874   1.995   .     S
O872   Zn873   1.995   .     S
Br875  C814    1.946   1_655 S
Br877  C892    1.924   .     S
Br878  C893    1.924   .     S
C879   C882    1.420   .     S
C879   O903    1.284   .     A
C879   O905    1.279   .     A
C880   H896    1.085   .     S
C880   C882    1.396   .     A
C881   C893    1.406   .     A
C881   C887    1.420   .     S
C881   C894    1.396   .     A
C882   C892    1.406   .     A
C883   H897    1.082   .     S
C883   N902    1.366   .     A
C884   N901    1.366   .     A
C884   H898    1.082   .     S
C884   C202    1.415   1_556 S
C885   N901    1.366   .     A
C885   H899    1.082   .     S
C885   C199    1.415   1_556 S
C886   N902    1.366   .     A
C886   H900    1.082   .     S
C887   O906    1.279   .     A
C887   O904    1.284   .     A
C888   O907    1.272   .     A
C888   C890    1.402   .     S
C888   O909    1.283   .     A
C889   O910    1.283   .     A
C889   C891    1.402   .     S
C889   O908    1.272   .     A
C891   C814    1.350   1_655 S
C891   Br800   1.946   1_655 S
C893   C994    1.371   .     S
C894   H895    1.085   .     S
C894   C1006   1.371   .     S
N901   Zn911   2.006   .     S
N902   Zn912   2.006   .     S
O903   Zn911   1.996   .     S
O904   Zn912   1.996   .     S
O905   Zn912   2.006   .     S
O906   Zn911   2.006   .     S
O907   Zn911   1.988   .     S
O908   Zn912   1.988   .     S
O909   Zn912   1.995   .     S
O910   Zn911   1.995   .     S
Br913  C966    1.946   .     S
Br914  C1005   1.946   1_455 S
Br915  C930    1.924   .     S
Br916  C931    1.924   .     S
C917   C920    1.420   .     S
C917   O941    1.284   .     A
C917   O943    1.279   .     A
C918   H934    1.085   .     S
C918   C920    1.396   .     A
C919   C931    1.406   .     A
C919   C925    1.420   .     S
C919   C932    1.396   .     A
C920   C930    1.406   .     A
C921   H935    1.082   .     S
C921   N940    1.366   .     A
C922   N939    1.366   .     A
C922   H936    1.082   .     S
C922   C240    1.415   1_556 S
C923   N939    1.366   .     A
C923   H937    1.082   .     S
C923   C237    1.415   1_556 S
C924   N940    1.366   .     A
C924   H938    1.082   .     S
C925   O944    1.279   .     A
C925   O942    1.284   .     A
C926   O945    1.272   .     A
C926   C928    1.402   .     S
C926   O947    1.283   .     A
C927   O948    1.283   .     A
C927   C929    1.402   .     S
C927   O946    1.272   .     A
C928   Br989   1.946   1_455 S
C928   C1005   1.350   1_455 S
C929   C966    1.350   .     S
C929   Br952   1.946   .     S
C931   C690    1.371   1_565 S
C932   H933    1.085   .     S
C932   C702    1.371   1_565 S
N939   Zn949   2.006   .     S
N940   Zn950   2.006   .     S
O941   Zn949   1.996   .     S
O942   Zn950   1.996   .     S
O943   Zn950   2.006   .     S
O944   Zn949   2.006   .     S
O945   Zn949   1.988   .     S
O946   Zn950   1.988   .     S
O947   Zn950   1.995   .     S
O948   Zn949   1.995   .     S
Br951  C1004   1.946   .     S
Br953  C968    1.924   .     S
Br954  C969    1.924   .     S
C955   C958    1.420   .     S
C955   O979    1.284   .     A
C955   O981    1.279   .     A
C956   H972    1.085   .     S
C956   C958    1.396   .     A
C957   C969    1.406   .     A
C957   C963    1.420   .     S
C957   C970    1.396   .     A
C958   C968    1.406   .     A
C959   H973    1.082   .     S
C959   N978    1.366   .     A
C960   N977    1.366   .     A
C960   H974    1.082   .     S
C960   C278    1.415   1_556 S
C961   N977    1.366   .     A
C961   H975    1.082   .     S
C961   C275    1.415   1_556 S
C962   N978    1.366   .     A
C962   H976    1.082   .     S
C963   O982    1.279   .     A
C963   O980    1.284   .     A
C964   O983    1.272   .     A
C964   C966    1.402   .     S
C964   O985    1.283   .     A
C965   O986    1.283   .     A
C965   C967    1.402   .     S
C965   O984    1.272   .     A
C967   C1004   1.350   .     S
C967   Br990   1.946   .     S
C969   C728    1.371   1_565 S
C970   H971    1.085   .     S
C970   C740    1.371   1_565 S
N977   Zn987   2.006   .     S
N978   Zn988   2.006   .     S
O979   Zn987   1.996   .     S
O980   Zn988   1.996   .     S
O981   Zn988   2.006   .     S
O982   Zn987   2.006   .     S
O983   Zn987   1.988   .     S
O984   Zn988   1.988   .     S
O985   Zn988   1.995   .     S
O986   Zn987   1.995   .     S
Br989  C928    1.946   1_655 S
Br991  C1006   1.924   .     S
Br992  C1007   1.924   .     S
C993   C996    1.420   .     S
C993   O1017   1.284   .     A
C993   O1019   1.279   .     A
C994   H1010   1.085   .     S
C994   C996    1.396   .     A
C995   C1007   1.406   .     A
C995   C1001   1.420   .     S
C995   C1008   1.396   .     A
C996   C1006   1.406   .     A
C997   H1011   1.082   .     S
C997   N1016   1.366   .     A
C998   N1015   1.366   .     A
C998   H1012   1.082   .     S
C998   C316    1.415   1_556 S
C999   N1015   1.366   .     A
C999   H1013   1.082   .     S
C999   C313    1.415   1_556 S
C1000  N1016   1.366   .     A
C1000  H1014   1.082   .     S
C1001  O1020   1.279   .     A
C1001  O1018   1.284   .     A
C1002  O1021   1.272   .     A
C1002  C1004   1.402   .     S
C1002  O1023   1.283   .     A
C1003  O1024   1.283   .     A
C1003  C1005   1.402   .     S
C1003  O1022   1.272   .     A
C1005  C928    1.350   1_655 S
C1005  Br914   1.946   1_655 S
C1007  C766    1.371   1_565 S
C1008  H1009   1.085   .     S
C1008  C778    1.371   1_565 S
N1015  Zn1025  2.006   .     S
N1016  Zn1026  2.006   .     S
O1017  Zn1025  1.996   .     S
O1018  Zn1026  1.996   .     S
O1019  Zn1026  2.006   .     S
O1020  Zn1025  2.006   .     S
O1021  Zn1025  1.988   .     S
O1022  Zn1026  1.988   .     S
O1023  Zn1026  1.995   .     S
O1024  Zn1025  1.995   .     S
