data_str_m3_o2_o5_pcu_sym.42
_audit_creation_date              2020-01-03
_audit_creation_method            'Materials Studio'
_symmetry_space_group_name_H-M    'P1'
_symmetry_Int_Tables_number       1
_symmetry_cell_setting            triclinic
loop_
_symmetry_equiv_pos_as_xyz
  x,y,z
_cell_length_a                    30.1389
_cell_length_b                    28.5867
_cell_length_c                    26.7971
_cell_angle_alpha                 89.9957
_cell_angle_beta                  92.3676
_cell_angle_gamma                 90.0165
loop_
_atom_site_label
_atom_site_type_symbol
_atom_site_fract_x
_atom_site_fract_y
_atom_site_fract_z
_atom_site_U_iso_or_equiv
_atom_site_adp_type
_atom_site_occupancy
C1     C     0.16400   0.24991   0.16728   0.00000  Uiso   1.00
C2     C     0.21079   0.44670   0.15593   0.00000  Uiso   1.00
C3     C     0.24984   0.25000   0.07292   0.00000  Uiso   1.00
C4     C     0.25016   0.25000   0.26041   0.00000  Uiso   1.00
C5     C     0.24999   0.02688   0.16667   0.00000  Uiso   1.00
C6     C     0.25000   0.47323   0.16667   0.00000  Uiso   1.00
C7     C     0.24994   0.24999   0.02179   0.00000  Uiso   1.00
C8     C     0.25006   0.24999   0.31155   0.00000  Uiso   1.00
C9     C     0.04663   0.28916   0.15394   0.00000  Uiso   1.00
C10    C     0.45183   0.20816   0.15109   0.00000  Uiso   1.00
C11    C     0.45344   0.28886   0.17959   0.00000  Uiso   1.00
C12    C     0.33599   0.24993   0.16599   0.00000  Uiso   1.00
C13    C     0.04797   0.20777   0.18013   0.00000  Uiso   1.00
C14    C     0.09232   0.29014   0.15647   0.00000  Uiso   1.00
C15    C     0.40594   0.20858   0.15135   0.00000  Uiso   1.00
C16    C     0.40775   0.28987   0.17746   0.00000  Uiso   1.00
C17    C     0.09388   0.20821   0.18024   0.00000  Uiso   1.00
C18    C     0.11613   0.24946   0.16821   0.00000  Uiso   1.00
C19    C     0.38383   0.24950   0.16475   0.00000  Uiso   1.00
C20    C     0.02410   0.24817   0.16637   0.00000  Uiso   1.00
C21    C     0.47583   0.24821   0.16586   0.00000  Uiso   1.00
C22    C     0.19331   0.12809   0.09993   0.00000  Uiso   1.00
C23    C     0.22284   0.10249   0.13360   0.00000  Uiso   1.00
C24    C     0.31763   0.37588   0.21931   0.00000  Uiso   1.00
C25    C     0.30667   0.12811   0.23344   0.00000  Uiso   1.00
C26    C     0.18222   0.37579   0.11424   0.00000  Uiso   1.00
C27    C     0.21689   0.01691   0.05582   0.00000  Uiso   1.00
C28    C     0.18441   0.49127   0.02045   0.00000  Uiso   1.00
C29    C     0.34553   0.47423   0.13218   0.00000  Uiso   1.00
C30    C     0.39078   0.49776   0.13544   0.00000  Uiso   1.00
C31    C     0.28300   0.01684   0.27751   0.00000  Uiso   1.00
C32    C     0.31545   0.49122   0.31291   0.00000  Uiso   1.00
C33    C     0.15455   0.47426   0.20125   0.00000  Uiso   1.00
C34    C     0.28571   0.39817   0.18584   0.00000  Uiso   1.00
C35    C     0.10906   0.49726   0.19803   0.00000  Uiso   1.00
C36    C     0.27715   0.10250   0.19975   0.00000  Uiso   1.00
C37    C     0.21427   0.39815   0.14751   0.00000  Uiso   1.00
C38    C     0.22317   0.05313   0.13158   0.00000  Uiso   1.00
C39    C     0.28920   0.44672   0.17741   0.00000  Uiso   1.00
C40    C     0.27681   0.05314   0.20177   0.00000  Uiso   1.00
H41    H     0.02910   0.32057   0.14215   0.00000  Uiso   1.00
H42    H     0.24414   0.49236   0.06681   0.00000  Uiso   1.00
H43    H     0.15859   0.01584   0.00553   0.00000  Uiso   1.00
H44    H     0.20207   0.47600   0.32224   0.00000  Uiso   1.00
H45    H     0.16812   0.46240   0.04055   0.00000  Uiso   1.00
H46    H     0.32245   0.49739   0.11000   0.00000  Uiso   1.00
H47    H     0.34882   0.44020   0.11239   0.00000  Uiso   1.00
H48    H     0.41495   0.47534   0.15676   0.00000  Uiso   1.00
H49    H     0.40281   0.00343   0.09729   0.00000  Uiso   1.00
H50    H     0.38832   0.03213   0.15449   0.00000  Uiso   1.00
H51    H     0.26925   0.04749   0.29719   0.00000  Uiso   1.00
H52    H     0.46837   0.17675   0.13907   0.00000  Uiso   1.00
H53    H     0.25579   0.49226   0.26645   0.00000  Uiso   1.00
H54    H     0.34116   0.01585   0.32801   0.00000  Uiso   1.00
H55    H     0.29774   0.47579   0.01100   0.00000  Uiso   1.00
H56    H     0.33189   0.46248   0.29279   0.00000  Uiso   1.00
H57    H     0.17748   0.49780   0.22314   0.00000  Uiso   1.00
H58    H     0.15165   0.44031   0.22131   0.00000  Uiso   1.00
H59    H     0.08502   0.47442   0.17705   0.00000  Uiso   1.00
H60    H     0.09714   0.00307   0.23620   0.00000  Uiso   1.00
H61    H     0.11110   0.03151   0.17866   0.00000  Uiso   1.00
H62    H     0.47106   0.31996   0.19220   0.00000  Uiso   1.00
H63    H     0.03134   0.17607   0.19116   0.00000  Uiso   1.00
H64    H     0.10874   0.32264   0.14871   0.00000  Uiso   1.00
H65    H     0.38783   0.17720   0.14046   0.00000  Uiso   1.00
H66    H     0.39142   0.32212   0.18634   0.00000  Uiso   1.00
H67    H     0.11187   0.17656   0.19035   0.00000  Uiso   1.00
H68    H     0.23058   0.04760   0.03614   0.00000  Uiso   1.00
N69    N     0.25000   0.12623   0.16667   0.00000  Uiso   1.00
N70    N     0.25000   0.37376   0.16667   0.00000  Uiso   1.00
N71    N     0.16945   0.14836   0.07276   0.00000  Uiso   1.00
N72    N     0.34265   0.35869   0.24762   0.00000  Uiso   1.00
N73    N     0.33052   0.14839   0.26061   0.00000  Uiso   1.00
N74    N     0.15706   0.35855   0.08612   0.00000  Uiso   1.00
O75    O     0.18453   0.28974   0.16667   0.00000  Uiso   1.00
O76    O     0.33076   0.46715   0.18092   0.00000  Uiso   1.00
O77    O     0.30597   0.03167   0.23572   0.00000  Uiso   1.00
O78    O     0.16921   0.46708   0.15249   0.00000  Uiso   1.00
O79    O     0.31547   0.21026   0.16666   0.00000  Uiso   1.00
O80    O     0.31547   0.28974   0.16666   0.00000  Uiso   1.00
O81    O     0.18453   0.21026   0.16667   0.00000  Uiso   1.00
O82    O     0.25000   0.28973   0.09511   0.00000  Uiso   1.00
O83    O     0.25000   0.21027   0.23822   0.00000  Uiso   1.00
O84    O     0.25000   0.28973   0.23822   0.00000  Uiso   1.00
O85    O     0.25000   0.21027   0.09511   0.00000  Uiso   1.00
O86    O     0.19398   0.03164   0.09767   0.00000  Uiso   1.00
Zn87   Zn    0.25000   0.30307   0.16667   0.00000  Uiso   1.00
Zn88   Zn    0.25000   0.19693   0.16667   0.00000  Uiso   1.00
C89    C     0.66400   0.24991   0.16728   0.00000  Uiso   1.00
C90    C     0.71079   0.44670   0.15593   0.00000  Uiso   1.00
C91    C     0.74984   0.25000   0.07292   0.00000  Uiso   1.00
C92    C     0.75016   0.25000   0.26041   0.00000  Uiso   1.00
C93    C     0.74999   0.02688   0.16667   0.00000  Uiso   1.00
C94    C     0.75000   0.47323   0.16667   0.00000  Uiso   1.00
C95    C     0.74994   0.24999   0.02179   0.00000  Uiso   1.00
C96    C     0.75006   0.24999   0.31155   0.00000  Uiso   1.00
C97    C     0.54663   0.28916   0.15394   0.00000  Uiso   1.00
C98    C     0.95183   0.20816   0.15109   0.00000  Uiso   1.00
C99    C     0.95344   0.28886   0.17959   0.00000  Uiso   1.00
C100   C     0.83599   0.24993   0.16599   0.00000  Uiso   1.00
C101   C     0.54797   0.20777   0.18013   0.00000  Uiso   1.00
C102   C     0.59232   0.29014   0.15647   0.00000  Uiso   1.00
C103   C     0.90594   0.20858   0.15135   0.00000  Uiso   1.00
C104   C     0.90775   0.28987   0.17746   0.00000  Uiso   1.00
C105   C     0.59388   0.20821   0.18024   0.00000  Uiso   1.00
C106   C     0.61613   0.24946   0.16821   0.00000  Uiso   1.00
C107   C     0.88383   0.24950   0.16475   0.00000  Uiso   1.00
C108   C     0.52410   0.24817   0.16637   0.00000  Uiso   1.00
C109   C     0.97583   0.24821   0.16586   0.00000  Uiso   1.00
C110   C     0.69331   0.12809   0.09993   0.00000  Uiso   1.00
C111   C     0.72284   0.10249   0.13360   0.00000  Uiso   1.00
C112   C     0.81763   0.37588   0.21931   0.00000  Uiso   1.00
C113   C     0.80667   0.12811   0.23344   0.00000  Uiso   1.00
C114   C     0.68222   0.37579   0.11424   0.00000  Uiso   1.00
C115   C     0.71689   0.01691   0.05582   0.00000  Uiso   1.00
C116   C     0.68441   0.49127   0.02045   0.00000  Uiso   1.00
C117   C     0.84553   0.47423   0.13218   0.00000  Uiso   1.00
C118   C     0.89078   0.49776   0.13544   0.00000  Uiso   1.00
C119   C     0.78300   0.01684   0.27751   0.00000  Uiso   1.00
C120   C     0.81545   0.49122   0.31291   0.00000  Uiso   1.00
C121   C     0.65455   0.47426   0.20125   0.00000  Uiso   1.00
C122   C     0.78571   0.39817   0.18584   0.00000  Uiso   1.00
C123   C     0.60906   0.49726   0.19803   0.00000  Uiso   1.00
C124   C     0.77715   0.10250   0.19975   0.00000  Uiso   1.00
C125   C     0.71427   0.39815   0.14751   0.00000  Uiso   1.00
C126   C     0.72317   0.05313   0.13158   0.00000  Uiso   1.00
C127   C     0.78920   0.44672   0.17741   0.00000  Uiso   1.00
C128   C     0.77681   0.05314   0.20177   0.00000  Uiso   1.00
H129   H     0.52910   0.32057   0.14215   0.00000  Uiso   1.00
H130   H     0.74414   0.49236   0.06681   0.00000  Uiso   1.00
H131   H     0.65859   0.01584   0.00553   0.00000  Uiso   1.00
H132   H     0.70207   0.47600   0.32224   0.00000  Uiso   1.00
H133   H     0.66812   0.46240   0.04055   0.00000  Uiso   1.00
H134   H     0.82245   0.49739   0.11000   0.00000  Uiso   1.00
H135   H     0.84882   0.44020   0.11239   0.00000  Uiso   1.00
H136   H     0.91495   0.47534   0.15676   0.00000  Uiso   1.00
H137   H     0.90281   0.00343   0.09729   0.00000  Uiso   1.00
H138   H     0.88832   0.03213   0.15449   0.00000  Uiso   1.00
H139   H     0.76925   0.04749   0.29719   0.00000  Uiso   1.00
H140   H     0.96837   0.17675   0.13907   0.00000  Uiso   1.00
H141   H     0.75579   0.49226   0.26645   0.00000  Uiso   1.00
H142   H     0.84116   0.01585   0.32801   0.00000  Uiso   1.00
H143   H     0.79774   0.47579   0.01100   0.00000  Uiso   1.00
H144   H     0.83189   0.46248   0.29279   0.00000  Uiso   1.00
H145   H     0.67748   0.49780   0.22314   0.00000  Uiso   1.00
H146   H     0.65165   0.44031   0.22131   0.00000  Uiso   1.00
H147   H     0.58502   0.47442   0.17705   0.00000  Uiso   1.00
H148   H     0.59714   0.00307   0.23620   0.00000  Uiso   1.00
H149   H     0.61110   0.03151   0.17866   0.00000  Uiso   1.00
H150   H     0.97106   0.31996   0.19220   0.00000  Uiso   1.00
H151   H     0.53134   0.17607   0.19116   0.00000  Uiso   1.00
H152   H     0.60874   0.32264   0.14871   0.00000  Uiso   1.00
H153   H     0.88783   0.17720   0.14046   0.00000  Uiso   1.00
H154   H     0.89142   0.32212   0.18634   0.00000  Uiso   1.00
H155   H     0.61187   0.17656   0.19035   0.00000  Uiso   1.00
H156   H     0.73058   0.04760   0.03614   0.00000  Uiso   1.00
N157   N     0.75000   0.12623   0.16667   0.00000  Uiso   1.00
N158   N     0.75000   0.37376   0.16667   0.00000  Uiso   1.00
N159   N     0.66945   0.14836   0.07276   0.00000  Uiso   1.00
N160   N     0.84265   0.35869   0.24762   0.00000  Uiso   1.00
N161   N     0.83052   0.14839   0.26061   0.00000  Uiso   1.00
N162   N     0.65706   0.35855   0.08612   0.00000  Uiso   1.00
O163   O     0.68453   0.28974   0.16667   0.00000  Uiso   1.00
O164   O     0.83076   0.46715   0.18092   0.00000  Uiso   1.00
O165   O     0.80597   0.03167   0.23572   0.00000  Uiso   1.00
O166   O     0.66921   0.46708   0.15249   0.00000  Uiso   1.00
O167   O     0.81547   0.21026   0.16666   0.00000  Uiso   1.00
O168   O     0.81547   0.28974   0.16666   0.00000  Uiso   1.00
O169   O     0.68453   0.21026   0.16667   0.00000  Uiso   1.00
O170   O     0.75000   0.28973   0.09511   0.00000  Uiso   1.00
O171   O     0.75000   0.21027   0.23822   0.00000  Uiso   1.00
O172   O     0.75000   0.28973   0.23822   0.00000  Uiso   1.00
O173   O     0.75000   0.21027   0.09511   0.00000  Uiso   1.00
O174   O     0.69398   0.03164   0.09767   0.00000  Uiso   1.00
Zn175  Zn    0.75000   0.30307   0.16667   0.00000  Uiso   1.00
Zn176  Zn    0.75000   0.19693   0.16667   0.00000  Uiso   1.00
C177   C     0.16400   0.74991   0.16728   0.00000  Uiso   1.00
C178   C     0.21079   0.94670   0.15593   0.00000  Uiso   1.00
C179   C     0.24984   0.75000   0.07292   0.00000  Uiso   1.00
C180   C     0.25016   0.75000   0.26041   0.00000  Uiso   1.00
C181   C     0.24999   0.52688   0.16667   0.00000  Uiso   1.00
C182   C     0.25000   0.97323   0.16667   0.00000  Uiso   1.00
C183   C     0.24994   0.74999   0.02179   0.00000  Uiso   1.00
C184   C     0.25006   0.74999   0.31155   0.00000  Uiso   1.00
C185   C     0.04663   0.78916   0.15394   0.00000  Uiso   1.00
C186   C     0.45183   0.70816   0.15109   0.00000  Uiso   1.00
C187   C     0.45344   0.78886   0.17959   0.00000  Uiso   1.00
C188   C     0.33599   0.74993   0.16599   0.00000  Uiso   1.00
C189   C     0.04797   0.70777   0.18013   0.00000  Uiso   1.00
C190   C     0.09232   0.79014   0.15647   0.00000  Uiso   1.00
C191   C     0.40594   0.70858   0.15135   0.00000  Uiso   1.00
C192   C     0.40775   0.78987   0.17746   0.00000  Uiso   1.00
C193   C     0.09388   0.70821   0.18024   0.00000  Uiso   1.00
C194   C     0.11613   0.74946   0.16821   0.00000  Uiso   1.00
C195   C     0.38383   0.74950   0.16475   0.00000  Uiso   1.00
C196   C     0.02410   0.74817   0.16637   0.00000  Uiso   1.00
C197   C     0.47583   0.74821   0.16586   0.00000  Uiso   1.00
C198   C     0.19331   0.62809   0.09993   0.00000  Uiso   1.00
C199   C     0.22284   0.60249   0.13360   0.00000  Uiso   1.00
C200   C     0.31763   0.87588   0.21931   0.00000  Uiso   1.00
C201   C     0.30667   0.62811   0.23344   0.00000  Uiso   1.00
C202   C     0.18222   0.87579   0.11424   0.00000  Uiso   1.00
C203   C     0.21689   0.51691   0.05582   0.00000  Uiso   1.00
C204   C     0.18441   0.99127   0.02045   0.00000  Uiso   1.00
C205   C     0.34553   0.97423   0.13218   0.00000  Uiso   1.00
C206   C     0.39078   0.99776   0.13544   0.00000  Uiso   1.00
C207   C     0.28300   0.51684   0.27751   0.00000  Uiso   1.00
C208   C     0.31545   0.99122   0.31291   0.00000  Uiso   1.00
C209   C     0.15455   0.97426   0.20125   0.00000  Uiso   1.00
C210   C     0.28571   0.89817   0.18584   0.00000  Uiso   1.00
C211   C     0.10906   0.99726   0.19803   0.00000  Uiso   1.00
C212   C     0.27715   0.60250   0.19975   0.00000  Uiso   1.00
C213   C     0.21427   0.89815   0.14751   0.00000  Uiso   1.00
C214   C     0.22317   0.55313   0.13158   0.00000  Uiso   1.00
C215   C     0.28920   0.94672   0.17741   0.00000  Uiso   1.00
C216   C     0.27681   0.55314   0.20177   0.00000  Uiso   1.00
H217   H     0.02910   0.82057   0.14215   0.00000  Uiso   1.00
H218   H     0.24414   0.99236   0.06681   0.00000  Uiso   1.00
H219   H     0.15859   0.51584   0.00553   0.00000  Uiso   1.00
H220   H     0.20207   0.97600   0.32224   0.00000  Uiso   1.00
H221   H     0.16812   0.96240   0.04055   0.00000  Uiso   1.00
H222   H     0.32245   0.99739   0.11000   0.00000  Uiso   1.00
H223   H     0.34882   0.94020   0.11239   0.00000  Uiso   1.00
H224   H     0.41495   0.97534   0.15676   0.00000  Uiso   1.00
H225   H     0.40281   0.50343   0.09729   0.00000  Uiso   1.00
H226   H     0.38832   0.53213   0.15449   0.00000  Uiso   1.00
H227   H     0.26925   0.54749   0.29719   0.00000  Uiso   1.00
H228   H     0.46837   0.67675   0.13907   0.00000  Uiso   1.00
H229   H     0.25579   0.99226   0.26645   0.00000  Uiso   1.00
H230   H     0.34116   0.51585   0.32801   0.00000  Uiso   1.00
H231   H     0.29774   0.97579   0.01100   0.00000  Uiso   1.00
H232   H     0.33189   0.96248   0.29279   0.00000  Uiso   1.00
H233   H     0.17748   0.99780   0.22314   0.00000  Uiso   1.00
H234   H     0.15165   0.94031   0.22131   0.00000  Uiso   1.00
H235   H     0.08502   0.97442   0.17705   0.00000  Uiso   1.00
H236   H     0.09714   0.50307   0.23620   0.00000  Uiso   1.00
H237   H     0.11110   0.53151   0.17866   0.00000  Uiso   1.00
H238   H     0.47106   0.81996   0.19220   0.00000  Uiso   1.00
H239   H     0.03134   0.67607   0.19116   0.00000  Uiso   1.00
H240   H     0.10874   0.82264   0.14871   0.00000  Uiso   1.00
H241   H     0.38783   0.67720   0.14046   0.00000  Uiso   1.00
H242   H     0.39142   0.82212   0.18634   0.00000  Uiso   1.00
H243   H     0.11187   0.67656   0.19035   0.00000  Uiso   1.00
H244   H     0.23058   0.54760   0.03614   0.00000  Uiso   1.00
N245   N     0.25000   0.62623   0.16667   0.00000  Uiso   1.00
N246   N     0.25000   0.87376   0.16667   0.00000  Uiso   1.00
N247   N     0.16945   0.64836   0.07276   0.00000  Uiso   1.00
N248   N     0.34265   0.85869   0.24762   0.00000  Uiso   1.00
N249   N     0.33052   0.64839   0.26061   0.00000  Uiso   1.00
N250   N     0.15706   0.85855   0.08612   0.00000  Uiso   1.00
O251   O     0.18453   0.78974   0.16667   0.00000  Uiso   1.00
O252   O     0.33076   0.96715   0.18092   0.00000  Uiso   1.00
O253   O     0.30597   0.53167   0.23572   0.00000  Uiso   1.00
O254   O     0.16921   0.96708   0.15249   0.00000  Uiso   1.00
O255   O     0.31547   0.71026   0.16666   0.00000  Uiso   1.00
O256   O     0.31547   0.78974   0.16666   0.00000  Uiso   1.00
O257   O     0.18453   0.71026   0.16667   0.00000  Uiso   1.00
O258   O     0.25000   0.78973   0.09511   0.00000  Uiso   1.00
O259   O     0.25000   0.71027   0.23822   0.00000  Uiso   1.00
O260   O     0.25000   0.78973   0.23822   0.00000  Uiso   1.00
O261   O     0.25000   0.71027   0.09511   0.00000  Uiso   1.00
O262   O     0.19398   0.53164   0.09767   0.00000  Uiso   1.00
Zn263  Zn    0.25000   0.80307   0.16667   0.00000  Uiso   1.00
Zn264  Zn    0.25000   0.69693   0.16667   0.00000  Uiso   1.00
C265   C     0.66400   0.74991   0.16728   0.00000  Uiso   1.00
C266   C     0.71079   0.94670   0.15593   0.00000  Uiso   1.00
C267   C     0.74984   0.75000   0.07292   0.00000  Uiso   1.00
C268   C     0.75016   0.75000   0.26041   0.00000  Uiso   1.00
C269   C     0.74999   0.52688   0.16667   0.00000  Uiso   1.00
C270   C     0.75000   0.97323   0.16667   0.00000  Uiso   1.00
C271   C     0.74994   0.74999   0.02179   0.00000  Uiso   1.00
C272   C     0.75006   0.74999   0.31155   0.00000  Uiso   1.00
C273   C     0.54663   0.78916   0.15394   0.00000  Uiso   1.00
C274   C     0.95183   0.70816   0.15109   0.00000  Uiso   1.00
C275   C     0.95344   0.78886   0.17959   0.00000  Uiso   1.00
C276   C     0.83599   0.74993   0.16599   0.00000  Uiso   1.00
C277   C     0.54797   0.70777   0.18013   0.00000  Uiso   1.00
C278   C     0.59232   0.79014   0.15647   0.00000  Uiso   1.00
C279   C     0.90594   0.70858   0.15135   0.00000  Uiso   1.00
C280   C     0.90775   0.78987   0.17746   0.00000  Uiso   1.00
C281   C     0.59388   0.70821   0.18024   0.00000  Uiso   1.00
C282   C     0.61613   0.74946   0.16821   0.00000  Uiso   1.00
C283   C     0.88383   0.74950   0.16475   0.00000  Uiso   1.00
C284   C     0.52410   0.74817   0.16637   0.00000  Uiso   1.00
C285   C     0.97583   0.74821   0.16586   0.00000  Uiso   1.00
C286   C     0.69331   0.62809   0.09993   0.00000  Uiso   1.00
C287   C     0.72284   0.60249   0.13360   0.00000  Uiso   1.00
C288   C     0.81763   0.87588   0.21931   0.00000  Uiso   1.00
C289   C     0.80667   0.62811   0.23344   0.00000  Uiso   1.00
C290   C     0.68222   0.87579   0.11424   0.00000  Uiso   1.00
C291   C     0.71689   0.51691   0.05582   0.00000  Uiso   1.00
C292   C     0.68441   0.99127   0.02045   0.00000  Uiso   1.00
C293   C     0.84553   0.97423   0.13218   0.00000  Uiso   1.00
C294   C     0.89078   0.99776   0.13544   0.00000  Uiso   1.00
C295   C     0.78300   0.51684   0.27751   0.00000  Uiso   1.00
C296   C     0.81545   0.99122   0.31291   0.00000  Uiso   1.00
C297   C     0.65455   0.97426   0.20125   0.00000  Uiso   1.00
C298   C     0.78571   0.89817   0.18584   0.00000  Uiso   1.00
C299   C     0.60906   0.99726   0.19803   0.00000  Uiso   1.00
C300   C     0.77715   0.60250   0.19975   0.00000  Uiso   1.00
C301   C     0.71427   0.89815   0.14751   0.00000  Uiso   1.00
C302   C     0.72317   0.55313   0.13158   0.00000  Uiso   1.00
C303   C     0.78920   0.94672   0.17741   0.00000  Uiso   1.00
C304   C     0.77681   0.55314   0.20177   0.00000  Uiso   1.00
H305   H     0.52910   0.82057   0.14215   0.00000  Uiso   1.00
H306   H     0.74414   0.99236   0.06681   0.00000  Uiso   1.00
H307   H     0.65859   0.51584   0.00553   0.00000  Uiso   1.00
H308   H     0.70207   0.97600   0.32224   0.00000  Uiso   1.00
H309   H     0.66812   0.96240   0.04055   0.00000  Uiso   1.00
H310   H     0.82245   0.99739   0.11000   0.00000  Uiso   1.00
H311   H     0.84882   0.94020   0.11239   0.00000  Uiso   1.00
H312   H     0.91495   0.97534   0.15676   0.00000  Uiso   1.00
H313   H     0.90281   0.50343   0.09729   0.00000  Uiso   1.00
H314   H     0.88832   0.53213   0.15449   0.00000  Uiso   1.00
H315   H     0.76925   0.54749   0.29719   0.00000  Uiso   1.00
H316   H     0.96837   0.67675   0.13907   0.00000  Uiso   1.00
H317   H     0.75579   0.99226   0.26645   0.00000  Uiso   1.00
H318   H     0.84116   0.51585   0.32801   0.00000  Uiso   1.00
H319   H     0.79774   0.97579   0.01100   0.00000  Uiso   1.00
H320   H     0.83189   0.96248   0.29279   0.00000  Uiso   1.00
H321   H     0.67748   0.99780   0.22314   0.00000  Uiso   1.00
H322   H     0.65165   0.94031   0.22131   0.00000  Uiso   1.00
H323   H     0.58502   0.97442   0.17705   0.00000  Uiso   1.00
H324   H     0.59714   0.50307   0.23620   0.00000  Uiso   1.00
H325   H     0.61110   0.53151   0.17866   0.00000  Uiso   1.00
H326   H     0.97106   0.81996   0.19220   0.00000  Uiso   1.00
H327   H     0.53134   0.67607   0.19116   0.00000  Uiso   1.00
H328   H     0.60874   0.82264   0.14871   0.00000  Uiso   1.00
H329   H     0.88783   0.67720   0.14046   0.00000  Uiso   1.00
H330   H     0.89142   0.82212   0.18634   0.00000  Uiso   1.00
H331   H     0.61187   0.67656   0.19035   0.00000  Uiso   1.00
H332   H     0.73058   0.54760   0.03614   0.00000  Uiso   1.00
N333   N     0.75000   0.62623   0.16667   0.00000  Uiso   1.00
N334   N     0.75000   0.87376   0.16667   0.00000  Uiso   1.00
N335   N     0.66945   0.64836   0.07276   0.00000  Uiso   1.00
N336   N     0.84265   0.85869   0.24762   0.00000  Uiso   1.00
N337   N     0.83052   0.64839   0.26061   0.00000  Uiso   1.00
N338   N     0.65706   0.85855   0.08612   0.00000  Uiso   1.00
O339   O     0.68453   0.78974   0.16667   0.00000  Uiso   1.00
O340   O     0.83076   0.96715   0.18092   0.00000  Uiso   1.00
O341   O     0.80597   0.53167   0.23572   0.00000  Uiso   1.00
O342   O     0.66921   0.96708   0.15249   0.00000  Uiso   1.00
O343   O     0.81547   0.71026   0.16666   0.00000  Uiso   1.00
O344   O     0.81547   0.78974   0.16666   0.00000  Uiso   1.00
O345   O     0.68453   0.71026   0.16667   0.00000  Uiso   1.00
O346   O     0.75000   0.78973   0.09511   0.00000  Uiso   1.00
O347   O     0.75000   0.71027   0.23822   0.00000  Uiso   1.00
O348   O     0.75000   0.78973   0.23822   0.00000  Uiso   1.00
O349   O     0.75000   0.71027   0.09511   0.00000  Uiso   1.00
O350   O     0.69398   0.53164   0.09767   0.00000  Uiso   1.00
Zn351  Zn    0.75000   0.80307   0.16667   0.00000  Uiso   1.00
Zn352  Zn    0.75000   0.69693   0.16667   0.00000  Uiso   1.00
C353   C     0.16400   0.24991   0.50062   0.00000  Uiso   1.00
C354   C     0.21079   0.44670   0.48926   0.00000  Uiso   1.00
C355   C     0.24984   0.25000   0.40625   0.00000  Uiso   1.00
C356   C     0.25016   0.25000   0.59375   0.00000  Uiso   1.00
C357   C     0.24999   0.02688   0.50000   0.00000  Uiso   1.00
C358   C     0.25000   0.47323   0.50000   0.00000  Uiso   1.00
C359   C     0.24994   0.24999   0.35512   0.00000  Uiso   1.00
C360   C     0.25006   0.24999   0.64488   0.00000  Uiso   1.00
C361   C     0.04663   0.28916   0.48728   0.00000  Uiso   1.00
C362   C     0.45183   0.20816   0.48443   0.00000  Uiso   1.00
C363   C     0.45344   0.28886   0.51292   0.00000  Uiso   1.00
C364   C     0.33599   0.24993   0.49933   0.00000  Uiso   1.00
C365   C     0.04797   0.20777   0.51346   0.00000  Uiso   1.00
C366   C     0.09232   0.29014   0.48980   0.00000  Uiso   1.00
C367   C     0.40594   0.20858   0.48469   0.00000  Uiso   1.00
C368   C     0.40775   0.28987   0.51079   0.00000  Uiso   1.00
C369   C     0.09388   0.20821   0.51357   0.00000  Uiso   1.00
C370   C     0.11613   0.24946   0.50155   0.00000  Uiso   1.00
C371   C     0.38383   0.24950   0.49808   0.00000  Uiso   1.00
C372   C     0.02410   0.24817   0.49970   0.00000  Uiso   1.00
C373   C     0.47583   0.24821   0.49919   0.00000  Uiso   1.00
C374   C     0.19331   0.12809   0.43326   0.00000  Uiso   1.00
C375   C     0.22284   0.10249   0.46693   0.00000  Uiso   1.00
C376   C     0.31763   0.37588   0.55264   0.00000  Uiso   1.00
C377   C     0.30667   0.12811   0.56677   0.00000  Uiso   1.00
C378   C     0.18222   0.37579   0.44758   0.00000  Uiso   1.00
C379   C     0.21689   0.01691   0.38915   0.00000  Uiso   1.00
C380   C     0.18441   0.49127   0.35378   0.00000  Uiso   1.00
C381   C     0.34553   0.47423   0.46551   0.00000  Uiso   1.00
C382   C     0.39078   0.49776   0.46877   0.00000  Uiso   1.00
C383   C     0.28300   0.01684   0.61084   0.00000  Uiso   1.00
C384   C     0.31545   0.49122   0.64625   0.00000  Uiso   1.00
C385   C     0.15455   0.47426   0.53458   0.00000  Uiso   1.00
C386   C     0.28571   0.39817   0.51917   0.00000  Uiso   1.00
C387   C     0.10906   0.49726   0.53137   0.00000  Uiso   1.00
C388   C     0.27715   0.10250   0.53308   0.00000  Uiso   1.00
C389   C     0.21427   0.39815   0.48084   0.00000  Uiso   1.00
C390   C     0.22317   0.05313   0.46492   0.00000  Uiso   1.00
C391   C     0.28920   0.44672   0.51075   0.00000  Uiso   1.00
C392   C     0.27681   0.05314   0.53510   0.00000  Uiso   1.00
H393   H     0.02910   0.32057   0.47548   0.00000  Uiso   1.00
H394   H     0.24414   0.49236   0.40014   0.00000  Uiso   1.00
H395   H     0.15859   0.01584   0.33886   0.00000  Uiso   1.00
H396   H     0.20207   0.47600   0.65557   0.00000  Uiso   1.00
H397   H     0.16812   0.46240   0.37388   0.00000  Uiso   1.00
H398   H     0.32245   0.49739   0.44333   0.00000  Uiso   1.00
H399   H     0.34882   0.44020   0.44572   0.00000  Uiso   1.00
H400   H     0.41495   0.47534   0.49009   0.00000  Uiso   1.00
H401   H     0.40281   0.00343   0.43063   0.00000  Uiso   1.00
H402   H     0.38832   0.03213   0.48782   0.00000  Uiso   1.00
H403   H     0.26925   0.04749   0.63052   0.00000  Uiso   1.00
H404   H     0.46837   0.17675   0.47240   0.00000  Uiso   1.00
H405   H     0.25579   0.49226   0.59978   0.00000  Uiso   1.00
H406   H     0.34116   0.01585   0.66134   0.00000  Uiso   1.00
H407   H     0.29774   0.47579   0.34434   0.00000  Uiso   1.00
H408   H     0.33189   0.46248   0.62612   0.00000  Uiso   1.00
H409   H     0.17748   0.49780   0.55648   0.00000  Uiso   1.00
H410   H     0.15165   0.44031   0.55465   0.00000  Uiso   1.00
H411   H     0.08502   0.47442   0.51038   0.00000  Uiso   1.00
H412   H     0.09714   0.00307   0.56954   0.00000  Uiso   1.00
H413   H     0.11110   0.03151   0.51199   0.00000  Uiso   1.00
H414   H     0.47106   0.31996   0.52553   0.00000  Uiso   1.00
H415   H     0.03134   0.17607   0.52450   0.00000  Uiso   1.00
H416   H     0.10874   0.32264   0.48205   0.00000  Uiso   1.00
H417   H     0.38783   0.17720   0.47380   0.00000  Uiso   1.00
H418   H     0.39142   0.32212   0.51967   0.00000  Uiso   1.00
H419   H     0.11187   0.17656   0.52368   0.00000  Uiso   1.00
H420   H     0.23058   0.04760   0.36947   0.00000  Uiso   1.00
N421   N     0.25000   0.12623   0.50000   0.00000  Uiso   1.00
N422   N     0.25000   0.37376   0.50000   0.00000  Uiso   1.00
N423   N     0.16945   0.14836   0.40610   0.00000  Uiso   1.00
N424   N     0.34265   0.35869   0.58096   0.00000  Uiso   1.00
N425   N     0.33052   0.14839   0.59395   0.00000  Uiso   1.00
N426   N     0.15706   0.35855   0.41945   0.00000  Uiso   1.00
O427   O     0.18453   0.28974   0.50000   0.00000  Uiso   1.00
O428   O     0.33076   0.46715   0.51425   0.00000  Uiso   1.00
O429   O     0.30597   0.03167   0.56905   0.00000  Uiso   1.00
O430   O     0.16921   0.46708   0.48582   0.00000  Uiso   1.00
O431   O     0.31547   0.21026   0.50000   0.00000  Uiso   1.00
O432   O     0.31547   0.28974   0.50000   0.00000  Uiso   1.00
O433   O     0.18453   0.21026   0.50000   0.00000  Uiso   1.00
O434   O     0.25000   0.28973   0.42845   0.00000  Uiso   1.00
O435   O     0.25000   0.21027   0.57155   0.00000  Uiso   1.00
O436   O     0.25000   0.28973   0.57155   0.00000  Uiso   1.00
O437   O     0.25000   0.21027   0.42845   0.00000  Uiso   1.00
O438   O     0.19398   0.03164   0.43101   0.00000  Uiso   1.00
Zn439  Zn    0.25000   0.30307   0.50000   0.00000  Uiso   1.00
Zn440  Zn    0.25000   0.19693   0.50000   0.00000  Uiso   1.00
C441   C     0.66400   0.24991   0.50062   0.00000  Uiso   1.00
C442   C     0.71079   0.44670   0.48926   0.00000  Uiso   1.00
C443   C     0.74984   0.25000   0.40625   0.00000  Uiso   1.00
C444   C     0.75016   0.25000   0.59375   0.00000  Uiso   1.00
C445   C     0.74999   0.02688   0.50000   0.00000  Uiso   1.00
C446   C     0.75000   0.47323   0.50000   0.00000  Uiso   1.00
C447   C     0.74994   0.24999   0.35512   0.00000  Uiso   1.00
C448   C     0.75006   0.24999   0.64488   0.00000  Uiso   1.00
C449   C     0.54663   0.28916   0.48728   0.00000  Uiso   1.00
C450   C     0.95183   0.20816   0.48443   0.00000  Uiso   1.00
C451   C     0.95344   0.28886   0.51292   0.00000  Uiso   1.00
C452   C     0.83599   0.24993   0.49933   0.00000  Uiso   1.00
C453   C     0.54797   0.20777   0.51346   0.00000  Uiso   1.00
C454   C     0.59232   0.29014   0.48980   0.00000  Uiso   1.00
C455   C     0.90594   0.20858   0.48469   0.00000  Uiso   1.00
C456   C     0.90775   0.28987   0.51079   0.00000  Uiso   1.00
C457   C     0.59388   0.20821   0.51357   0.00000  Uiso   1.00
C458   C     0.61613   0.24946   0.50155   0.00000  Uiso   1.00
C459   C     0.88383   0.24950   0.49808   0.00000  Uiso   1.00
C460   C     0.52410   0.24817   0.49970   0.00000  Uiso   1.00
C461   C     0.97583   0.24821   0.49919   0.00000  Uiso   1.00
C462   C     0.69331   0.12809   0.43326   0.00000  Uiso   1.00
C463   C     0.72284   0.10249   0.46693   0.00000  Uiso   1.00
C464   C     0.81763   0.37588   0.55264   0.00000  Uiso   1.00
C465   C     0.80667   0.12811   0.56677   0.00000  Uiso   1.00
C466   C     0.68222   0.37579   0.44758   0.00000  Uiso   1.00
C467   C     0.71689   0.01691   0.38915   0.00000  Uiso   1.00
C468   C     0.68441   0.49127   0.35378   0.00000  Uiso   1.00
C469   C     0.84553   0.47423   0.46551   0.00000  Uiso   1.00
C470   C     0.89078   0.49776   0.46877   0.00000  Uiso   1.00
C471   C     0.78300   0.01684   0.61084   0.00000  Uiso   1.00
C472   C     0.81545   0.49122   0.64625   0.00000  Uiso   1.00
C473   C     0.65455   0.47426   0.53458   0.00000  Uiso   1.00
C474   C     0.78571   0.39817   0.51917   0.00000  Uiso   1.00
C475   C     0.60906   0.49726   0.53137   0.00000  Uiso   1.00
C476   C     0.77715   0.10250   0.53308   0.00000  Uiso   1.00
C477   C     0.71427   0.39815   0.48084   0.00000  Uiso   1.00
C478   C     0.72317   0.05313   0.46492   0.00000  Uiso   1.00
C479   C     0.78920   0.44672   0.51075   0.00000  Uiso   1.00
C480   C     0.77681   0.05314   0.53510   0.00000  Uiso   1.00
H481   H     0.52910   0.32057   0.47548   0.00000  Uiso   1.00
H482   H     0.74414   0.49236   0.40014   0.00000  Uiso   1.00
H483   H     0.65859   0.01584   0.33886   0.00000  Uiso   1.00
H484   H     0.70207   0.47600   0.65557   0.00000  Uiso   1.00
H485   H     0.66812   0.46240   0.37388   0.00000  Uiso   1.00
H486   H     0.82245   0.49739   0.44333   0.00000  Uiso   1.00
H487   H     0.84882   0.44020   0.44572   0.00000  Uiso   1.00
H488   H     0.91495   0.47534   0.49009   0.00000  Uiso   1.00
H489   H     0.90281   0.00343   0.43063   0.00000  Uiso   1.00
H490   H     0.88832   0.03213   0.48782   0.00000  Uiso   1.00
H491   H     0.76925   0.04749   0.63052   0.00000  Uiso   1.00
H492   H     0.96837   0.17675   0.47240   0.00000  Uiso   1.00
H493   H     0.75579   0.49226   0.59978   0.00000  Uiso   1.00
H494   H     0.84116   0.01585   0.66134   0.00000  Uiso   1.00
H495   H     0.79774   0.47579   0.34434   0.00000  Uiso   1.00
H496   H     0.83189   0.46248   0.62612   0.00000  Uiso   1.00
H497   H     0.67748   0.49780   0.55648   0.00000  Uiso   1.00
H498   H     0.65165   0.44031   0.55465   0.00000  Uiso   1.00
H499   H     0.58502   0.47442   0.51038   0.00000  Uiso   1.00
H500   H     0.59714   0.00307   0.56954   0.00000  Uiso   1.00
H501   H     0.61110   0.03151   0.51199   0.00000  Uiso   1.00
H502   H     0.97106   0.31996   0.52553   0.00000  Uiso   1.00
H503   H     0.53134   0.17607   0.52450   0.00000  Uiso   1.00
H504   H     0.60874   0.32264   0.48205   0.00000  Uiso   1.00
H505   H     0.88783   0.17720   0.47380   0.00000  Uiso   1.00
H506   H     0.89142   0.32212   0.51967   0.00000  Uiso   1.00
H507   H     0.61187   0.17656   0.52368   0.00000  Uiso   1.00
H508   H     0.73058   0.04760   0.36947   0.00000  Uiso   1.00
N509   N     0.75000   0.12623   0.50000   0.00000  Uiso   1.00
N510   N     0.75000   0.37376   0.50000   0.00000  Uiso   1.00
N511   N     0.66945   0.14836   0.40610   0.00000  Uiso   1.00
N512   N     0.84265   0.35869   0.58096   0.00000  Uiso   1.00
N513   N     0.83052   0.14839   0.59395   0.00000  Uiso   1.00
N514   N     0.65706   0.35855   0.41945   0.00000  Uiso   1.00
O515   O     0.68453   0.28974   0.50000   0.00000  Uiso   1.00
O516   O     0.83076   0.46715   0.51425   0.00000  Uiso   1.00
O517   O     0.80597   0.03167   0.56905   0.00000  Uiso   1.00
O518   O     0.66921   0.46708   0.48582   0.00000  Uiso   1.00
O519   O     0.81547   0.21026   0.50000   0.00000  Uiso   1.00
O520   O     0.81547   0.28974   0.50000   0.00000  Uiso   1.00
O521   O     0.68453   0.21026   0.50000   0.00000  Uiso   1.00
O522   O     0.75000   0.28973   0.42845   0.00000  Uiso   1.00
O523   O     0.75000   0.21027   0.57155   0.00000  Uiso   1.00
O524   O     0.75000   0.28973   0.57155   0.00000  Uiso   1.00
O525   O     0.75000   0.21027   0.42845   0.00000  Uiso   1.00
O526   O     0.69398   0.03164   0.43101   0.00000  Uiso   1.00
Zn527  Zn    0.75000   0.30307   0.50000   0.00000  Uiso   1.00
Zn528  Zn    0.75000   0.19693   0.50000   0.00000  Uiso   1.00
C529   C     0.16400   0.74991   0.50062   0.00000  Uiso   1.00
C530   C     0.21079   0.94670   0.48926   0.00000  Uiso   1.00
C531   C     0.24984   0.75000   0.40625   0.00000  Uiso   1.00
C532   C     0.25016   0.75000   0.59375   0.00000  Uiso   1.00
C533   C     0.24999   0.52688   0.50000   0.00000  Uiso   1.00
C534   C     0.25000   0.97323   0.50000   0.00000  Uiso   1.00
C535   C     0.24994   0.74999   0.35512   0.00000  Uiso   1.00
C536   C     0.25006   0.74999   0.64488   0.00000  Uiso   1.00
C537   C     0.04663   0.78916   0.48728   0.00000  Uiso   1.00
C538   C     0.45183   0.70816   0.48443   0.00000  Uiso   1.00
C539   C     0.45344   0.78886   0.51292   0.00000  Uiso   1.00
C540   C     0.33599   0.74993   0.49933   0.00000  Uiso   1.00
C541   C     0.04797   0.70777   0.51346   0.00000  Uiso   1.00
C542   C     0.09232   0.79014   0.48980   0.00000  Uiso   1.00
C543   C     0.40594   0.70858   0.48469   0.00000  Uiso   1.00
C544   C     0.40775   0.78987   0.51079   0.00000  Uiso   1.00
C545   C     0.09388   0.70821   0.51357   0.00000  Uiso   1.00
C546   C     0.11613   0.74946   0.50155   0.00000  Uiso   1.00
C547   C     0.38383   0.74950   0.49808   0.00000  Uiso   1.00
C548   C     0.02410   0.74817   0.49970   0.00000  Uiso   1.00
C549   C     0.47583   0.74821   0.49919   0.00000  Uiso   1.00
C550   C     0.19331   0.62809   0.43326   0.00000  Uiso   1.00
C551   C     0.22284   0.60249   0.46693   0.00000  Uiso   1.00
C552   C     0.31763   0.87588   0.55264   0.00000  Uiso   1.00
C553   C     0.30667   0.62811   0.56677   0.00000  Uiso   1.00
C554   C     0.18222   0.87579   0.44758   0.00000  Uiso   1.00
C555   C     0.21689   0.51691   0.38915   0.00000  Uiso   1.00
C556   C     0.18441   0.99127   0.35378   0.00000  Uiso   1.00
C557   C     0.34553   0.97423   0.46551   0.00000  Uiso   1.00
C558   C     0.39078   0.99776   0.46877   0.00000  Uiso   1.00
C559   C     0.28300   0.51684   0.61084   0.00000  Uiso   1.00
C560   C     0.31545   0.99122   0.64625   0.00000  Uiso   1.00
C561   C     0.15455   0.97426   0.53458   0.00000  Uiso   1.00
C562   C     0.28571   0.89817   0.51917   0.00000  Uiso   1.00
C563   C     0.10906   0.99726   0.53137   0.00000  Uiso   1.00
C564   C     0.27715   0.60250   0.53308   0.00000  Uiso   1.00
C565   C     0.21427   0.89815   0.48084   0.00000  Uiso   1.00
C566   C     0.22317   0.55313   0.46492   0.00000  Uiso   1.00
C567   C     0.28920   0.94672   0.51075   0.00000  Uiso   1.00
C568   C     0.27681   0.55314   0.53510   0.00000  Uiso   1.00
H569   H     0.02910   0.82057   0.47548   0.00000  Uiso   1.00
H570   H     0.24414   0.99236   0.40014   0.00000  Uiso   1.00
H571   H     0.15859   0.51584   0.33886   0.00000  Uiso   1.00
H572   H     0.20207   0.97600   0.65557   0.00000  Uiso   1.00
H573   H     0.16812   0.96240   0.37388   0.00000  Uiso   1.00
H574   H     0.32245   0.99739   0.44333   0.00000  Uiso   1.00
H575   H     0.34882   0.94020   0.44572   0.00000  Uiso   1.00
H576   H     0.41495   0.97534   0.49009   0.00000  Uiso   1.00
H577   H     0.40281   0.50343   0.43063   0.00000  Uiso   1.00
H578   H     0.38832   0.53213   0.48782   0.00000  Uiso   1.00
H579   H     0.26925   0.54749   0.63052   0.00000  Uiso   1.00
H580   H     0.46837   0.67675   0.47240   0.00000  Uiso   1.00
H581   H     0.25579   0.99226   0.59978   0.00000  Uiso   1.00
H582   H     0.34116   0.51585   0.66134   0.00000  Uiso   1.00
H583   H     0.29774   0.97579   0.34434   0.00000  Uiso   1.00
H584   H     0.33189   0.96248   0.62612   0.00000  Uiso   1.00
H585   H     0.17748   0.99780   0.55648   0.00000  Uiso   1.00
H586   H     0.15165   0.94031   0.55465   0.00000  Uiso   1.00
H587   H     0.08502   0.97442   0.51038   0.00000  Uiso   1.00
H588   H     0.09714   0.50307   0.56954   0.00000  Uiso   1.00
H589   H     0.11110   0.53151   0.51199   0.00000  Uiso   1.00
H590   H     0.47106   0.81996   0.52553   0.00000  Uiso   1.00
H591   H     0.03134   0.67607   0.52450   0.00000  Uiso   1.00
H592   H     0.10874   0.82264   0.48205   0.00000  Uiso   1.00
H593   H     0.38783   0.67720   0.47380   0.00000  Uiso   1.00
H594   H     0.39142   0.82212   0.51967   0.00000  Uiso   1.00
H595   H     0.11187   0.67656   0.52368   0.00000  Uiso   1.00
H596   H     0.23058   0.54760   0.36947   0.00000  Uiso   1.00
N597   N     0.25000   0.62623   0.50000   0.00000  Uiso   1.00
N598   N     0.25000   0.87376   0.50000   0.00000  Uiso   1.00
N599   N     0.16945   0.64836   0.40610   0.00000  Uiso   1.00
N600   N     0.34265   0.85869   0.58096   0.00000  Uiso   1.00
N601   N     0.33052   0.64839   0.59395   0.00000  Uiso   1.00
N602   N     0.15706   0.85855   0.41945   0.00000  Uiso   1.00
O603   O     0.18453   0.78974   0.50000   0.00000  Uiso   1.00
O604   O     0.33076   0.96715   0.51425   0.00000  Uiso   1.00
O605   O     0.30597   0.53167   0.56905   0.00000  Uiso   1.00
O606   O     0.16921   0.96708   0.48582   0.00000  Uiso   1.00
O607   O     0.31547   0.71026   0.50000   0.00000  Uiso   1.00
O608   O     0.31547   0.78974   0.50000   0.00000  Uiso   1.00
O609   O     0.18453   0.71026   0.50000   0.00000  Uiso   1.00
O610   O     0.25000   0.78973   0.42845   0.00000  Uiso   1.00
O611   O     0.25000   0.71027   0.57155   0.00000  Uiso   1.00
O612   O     0.25000   0.78973   0.57155   0.00000  Uiso   1.00
O613   O     0.25000   0.71027   0.42845   0.00000  Uiso   1.00
O614   O     0.19398   0.53164   0.43101   0.00000  Uiso   1.00
Zn615  Zn    0.25000   0.80307   0.50000   0.00000  Uiso   1.00
Zn616  Zn    0.25000   0.69693   0.50000   0.00000  Uiso   1.00
C617   C     0.66400   0.74991   0.50062   0.00000  Uiso   1.00
C618   C     0.71079   0.94670   0.48926   0.00000  Uiso   1.00
C619   C     0.74984   0.75000   0.40625   0.00000  Uiso   1.00
C620   C     0.75016   0.75000   0.59375   0.00000  Uiso   1.00
C621   C     0.74999   0.52688   0.50000   0.00000  Uiso   1.00
C622   C     0.75000   0.97323   0.50000   0.00000  Uiso   1.00
C623   C     0.74994   0.74999   0.35512   0.00000  Uiso   1.00
C624   C     0.75006   0.74999   0.64488   0.00000  Uiso   1.00
C625   C     0.54663   0.78916   0.48728   0.00000  Uiso   1.00
C626   C     0.95183   0.70816   0.48443   0.00000  Uiso   1.00
C627   C     0.95344   0.78886   0.51292   0.00000  Uiso   1.00
C628   C     0.83599   0.74993   0.49933   0.00000  Uiso   1.00
C629   C     0.54797   0.70777   0.51346   0.00000  Uiso   1.00
C630   C     0.59232   0.79014   0.48980   0.00000  Uiso   1.00
C631   C     0.90594   0.70858   0.48469   0.00000  Uiso   1.00
C632   C     0.90775   0.78987   0.51079   0.00000  Uiso   1.00
C633   C     0.59388   0.70821   0.51357   0.00000  Uiso   1.00
C634   C     0.61613   0.74946   0.50155   0.00000  Uiso   1.00
C635   C     0.88383   0.74950   0.49808   0.00000  Uiso   1.00
C636   C     0.52410   0.74817   0.49970   0.00000  Uiso   1.00
C637   C     0.97583   0.74821   0.49919   0.00000  Uiso   1.00
C638   C     0.69331   0.62809   0.43326   0.00000  Uiso   1.00
C639   C     0.72284   0.60249   0.46693   0.00000  Uiso   1.00
C640   C     0.81763   0.87588   0.55264   0.00000  Uiso   1.00
C641   C     0.80667   0.62811   0.56677   0.00000  Uiso   1.00
C642   C     0.68222   0.87579   0.44758   0.00000  Uiso   1.00
C643   C     0.71689   0.51691   0.38915   0.00000  Uiso   1.00
C644   C     0.68441   0.99127   0.35378   0.00000  Uiso   1.00
C645   C     0.84553   0.97423   0.46551   0.00000  Uiso   1.00
C646   C     0.89078   0.99776   0.46877   0.00000  Uiso   1.00
C647   C     0.78300   0.51684   0.61084   0.00000  Uiso   1.00
C648   C     0.81545   0.99122   0.64625   0.00000  Uiso   1.00
C649   C     0.65455   0.97426   0.53458   0.00000  Uiso   1.00
C650   C     0.78571   0.89817   0.51917   0.00000  Uiso   1.00
C651   C     0.60906   0.99726   0.53137   0.00000  Uiso   1.00
C652   C     0.77715   0.60250   0.53308   0.00000  Uiso   1.00
C653   C     0.71427   0.89815   0.48084   0.00000  Uiso   1.00
C654   C     0.72317   0.55313   0.46492   0.00000  Uiso   1.00
C655   C     0.78920   0.94672   0.51075   0.00000  Uiso   1.00
C656   C     0.77681   0.55314   0.53510   0.00000  Uiso   1.00
H657   H     0.52910   0.82057   0.47548   0.00000  Uiso   1.00
H658   H     0.74414   0.99236   0.40014   0.00000  Uiso   1.00
H659   H     0.65859   0.51584   0.33886   0.00000  Uiso   1.00
H660   H     0.70207   0.97600   0.65557   0.00000  Uiso   1.00
H661   H     0.66812   0.96240   0.37388   0.00000  Uiso   1.00
H662   H     0.82245   0.99739   0.44333   0.00000  Uiso   1.00
H663   H     0.84882   0.94020   0.44572   0.00000  Uiso   1.00
H664   H     0.91495   0.97534   0.49009   0.00000  Uiso   1.00
H665   H     0.90281   0.50343   0.43063   0.00000  Uiso   1.00
H666   H     0.88832   0.53213   0.48782   0.00000  Uiso   1.00
H667   H     0.76925   0.54749   0.63052   0.00000  Uiso   1.00
H668   H     0.96837   0.67675   0.47240   0.00000  Uiso   1.00
H669   H     0.75579   0.99226   0.59978   0.00000  Uiso   1.00
H670   H     0.84116   0.51585   0.66134   0.00000  Uiso   1.00
H671   H     0.79774   0.97579   0.34434   0.00000  Uiso   1.00
H672   H     0.83189   0.96248   0.62612   0.00000  Uiso   1.00
H673   H     0.67748   0.99780   0.55648   0.00000  Uiso   1.00
H674   H     0.65165   0.94031   0.55465   0.00000  Uiso   1.00
H675   H     0.58502   0.97442   0.51038   0.00000  Uiso   1.00
H676   H     0.59714   0.50307   0.56954   0.00000  Uiso   1.00
H677   H     0.61110   0.53151   0.51199   0.00000  Uiso   1.00
H678   H     0.97106   0.81996   0.52553   0.00000  Uiso   1.00
H679   H     0.53134   0.67607   0.52450   0.00000  Uiso   1.00
H680   H     0.60874   0.82264   0.48205   0.00000  Uiso   1.00
H681   H     0.88783   0.67720   0.47380   0.00000  Uiso   1.00
H682   H     0.89142   0.82212   0.51967   0.00000  Uiso   1.00
H683   H     0.61187   0.67656   0.52368   0.00000  Uiso   1.00
H684   H     0.73058   0.54760   0.36947   0.00000  Uiso   1.00
N685   N     0.75000   0.62623   0.50000   0.00000  Uiso   1.00
N686   N     0.75000   0.87376   0.50000   0.00000  Uiso   1.00
N687   N     0.66945   0.64836   0.40610   0.00000  Uiso   1.00
N688   N     0.84265   0.85869   0.58096   0.00000  Uiso   1.00
N689   N     0.83052   0.64839   0.59395   0.00000  Uiso   1.00
N690   N     0.65706   0.85855   0.41945   0.00000  Uiso   1.00
O691   O     0.68453   0.78974   0.50000   0.00000  Uiso   1.00
O692   O     0.83076   0.96715   0.51425   0.00000  Uiso   1.00
O693   O     0.80597   0.53167   0.56905   0.00000  Uiso   1.00
O694   O     0.66921   0.96708   0.48582   0.00000  Uiso   1.00
O695   O     0.81547   0.71026   0.50000   0.00000  Uiso   1.00
O696   O     0.81547   0.78974   0.50000   0.00000  Uiso   1.00
O697   O     0.68453   0.71026   0.50000   0.00000  Uiso   1.00
O698   O     0.75000   0.78973   0.42845   0.00000  Uiso   1.00
O699   O     0.75000   0.71027   0.57155   0.00000  Uiso   1.00
O700   O     0.75000   0.78973   0.57155   0.00000  Uiso   1.00
O701   O     0.75000   0.71027   0.42845   0.00000  Uiso   1.00
O702   O     0.69398   0.53164   0.43101   0.00000  Uiso   1.00
Zn703  Zn    0.75000   0.80307   0.50000   0.00000  Uiso   1.00
Zn704  Zn    0.75000   0.69693   0.50000   0.00000  Uiso   1.00
C705   C     0.16400   0.24991   0.83395   0.00000  Uiso   1.00
C706   C     0.21079   0.44670   0.82260   0.00000  Uiso   1.00
C707   C     0.24984   0.25000   0.73959   0.00000  Uiso   1.00
C708   C     0.25016   0.25000   0.92708   0.00000  Uiso   1.00
C709   C     0.24999   0.02688   0.83334   0.00000  Uiso   1.00
C710   C     0.25000   0.47323   0.83333   0.00000  Uiso   1.00
C711   C     0.24994   0.24999   0.68845   0.00000  Uiso   1.00
C712   C     0.25006   0.24999   0.97821   0.00000  Uiso   1.00
C713   C     0.04663   0.28916   0.82061   0.00000  Uiso   1.00
C714   C     0.45183   0.20816   0.81776   0.00000  Uiso   1.00
C715   C     0.45344   0.28886   0.84626   0.00000  Uiso   1.00
C716   C     0.33599   0.24993   0.83266   0.00000  Uiso   1.00
C717   C     0.04797   0.20777   0.84680   0.00000  Uiso   1.00
C718   C     0.09232   0.29014   0.82313   0.00000  Uiso   1.00
C719   C     0.40594   0.20858   0.81802   0.00000  Uiso   1.00
C720   C     0.40775   0.28987   0.84413   0.00000  Uiso   1.00
C721   C     0.09388   0.20821   0.84691   0.00000  Uiso   1.00
C722   C     0.11613   0.24946   0.83488   0.00000  Uiso   1.00
C723   C     0.38383   0.24950   0.83141   0.00000  Uiso   1.00
C724   C     0.02410   0.24817   0.83304   0.00000  Uiso   1.00
C725   C     0.47583   0.24821   0.83252   0.00000  Uiso   1.00
C726   C     0.19331   0.12809   0.76659   0.00000  Uiso   1.00
C727   C     0.22284   0.10249   0.80026   0.00000  Uiso   1.00
C728   C     0.31763   0.37588   0.88597   0.00000  Uiso   1.00
C729   C     0.30667   0.12811   0.90010   0.00000  Uiso   1.00
C730   C     0.18222   0.37579   0.78091   0.00000  Uiso   1.00
C731   C     0.21689   0.01691   0.72248   0.00000  Uiso   1.00
C732   C     0.18441   0.49127   0.68712   0.00000  Uiso   1.00
C733   C     0.34553   0.47423   0.79885   0.00000  Uiso   1.00
C734   C     0.39078   0.49776   0.80211   0.00000  Uiso   1.00
C735   C     0.28300   0.01684   0.94418   0.00000  Uiso   1.00
C736   C     0.31545   0.49122   0.97958   0.00000  Uiso   1.00
C737   C     0.15455   0.47426   0.86791   0.00000  Uiso   1.00
C738   C     0.28571   0.39817   0.85251   0.00000  Uiso   1.00
C739   C     0.10906   0.49726   0.86470   0.00000  Uiso   1.00
C740   C     0.27715   0.10250   0.86642   0.00000  Uiso   1.00
C741   C     0.21427   0.39815   0.81418   0.00000  Uiso   1.00
C742   C     0.22317   0.05313   0.79825   0.00000  Uiso   1.00
C743   C     0.28920   0.44672   0.84408   0.00000  Uiso   1.00
C744   C     0.27681   0.05314   0.86844   0.00000  Uiso   1.00
H745   H     0.02910   0.32057   0.80881   0.00000  Uiso   1.00
H746   H     0.24414   0.49236   0.73347   0.00000  Uiso   1.00
H747   H     0.15859   0.01584   0.67219   0.00000  Uiso   1.00
H748   H     0.20207   0.47600   0.98891   0.00000  Uiso   1.00
H749   H     0.16812   0.46240   0.70721   0.00000  Uiso   1.00
H750   H     0.32245   0.49739   0.77667   0.00000  Uiso   1.00
H751   H     0.34882   0.44020   0.77906   0.00000  Uiso   1.00
H752   H     0.41495   0.47534   0.82343   0.00000  Uiso   1.00
H753   H     0.40281   0.00343   0.76396   0.00000  Uiso   1.00
H754   H     0.38832   0.03213   0.82116   0.00000  Uiso   1.00
H755   H     0.26925   0.04749   0.96385   0.00000  Uiso   1.00
H756   H     0.46837   0.17675   0.80573   0.00000  Uiso   1.00
H757   H     0.25579   0.49226   0.93312   0.00000  Uiso   1.00
H758   H     0.34116   0.01585   0.99467   0.00000  Uiso   1.00
H759   H     0.29774   0.47579   0.67767   0.00000  Uiso   1.00
H760   H     0.33189   0.46248   0.95946   0.00000  Uiso   1.00
H761   H     0.17748   0.49780   0.88981   0.00000  Uiso   1.00
H762   H     0.15165   0.44031   0.88798   0.00000  Uiso   1.00
H763   H     0.08502   0.47442   0.84371   0.00000  Uiso   1.00
H764   H     0.09714   0.00307   0.90287   0.00000  Uiso   1.00
H765   H     0.11110   0.03151   0.84533   0.00000  Uiso   1.00
H766   H     0.47106   0.31996   0.85887   0.00000  Uiso   1.00
H767   H     0.03134   0.17607   0.85783   0.00000  Uiso   1.00
H768   H     0.10874   0.32264   0.81538   0.00000  Uiso   1.00
H769   H     0.38783   0.17720   0.80713   0.00000  Uiso   1.00
H770   H     0.39142   0.32212   0.85300   0.00000  Uiso   1.00
H771   H     0.11187   0.17656   0.85701   0.00000  Uiso   1.00
H772   H     0.23058   0.04760   0.70281   0.00000  Uiso   1.00
N773   N     0.25000   0.12623   0.83333   0.00000  Uiso   1.00
N774   N     0.25000   0.37376   0.83333   0.00000  Uiso   1.00
N775   N     0.16945   0.14836   0.73943   0.00000  Uiso   1.00
N776   N     0.34265   0.35869   0.91429   0.00000  Uiso   1.00
N777   N     0.33052   0.14839   0.92728   0.00000  Uiso   1.00
N778   N     0.15706   0.35855   0.75278   0.00000  Uiso   1.00
O779   O     0.18453   0.28974   0.83334   0.00000  Uiso   1.00
O780   O     0.33076   0.46715   0.84758   0.00000  Uiso   1.00
O781   O     0.30597   0.03167   0.90238   0.00000  Uiso   1.00
O782   O     0.16921   0.46708   0.81915   0.00000  Uiso   1.00
O783   O     0.31547   0.21026   0.83333   0.00000  Uiso   1.00
O784   O     0.31547   0.28974   0.83333   0.00000  Uiso   1.00
O785   O     0.18453   0.21026   0.83334   0.00000  Uiso   1.00
O786   O     0.25000   0.28973   0.76178   0.00000  Uiso   1.00
O787   O     0.25000   0.21027   0.90489   0.00000  Uiso   1.00
O788   O     0.25000   0.28973   0.90489   0.00000  Uiso   1.00
O789   O     0.25000   0.21027   0.76178   0.00000  Uiso   1.00
O790   O     0.19398   0.03164   0.76434   0.00000  Uiso   1.00
Zn791  Zn    0.25000   0.30307   0.83333   0.00000  Uiso   1.00
Zn792  Zn    0.25000   0.19693   0.83333   0.00000  Uiso   1.00
C793   C     0.66400   0.24991   0.83395   0.00000  Uiso   1.00
C794   C     0.71079   0.44670   0.82260   0.00000  Uiso   1.00
C795   C     0.74984   0.25000   0.73959   0.00000  Uiso   1.00
C796   C     0.75016   0.25000   0.92708   0.00000  Uiso   1.00
C797   C     0.74999   0.02688   0.83334   0.00000  Uiso   1.00
C798   C     0.75000   0.47323   0.83333   0.00000  Uiso   1.00
C799   C     0.74994   0.24999   0.68845   0.00000  Uiso   1.00
C800   C     0.75006   0.24999   0.97821   0.00000  Uiso   1.00
C801   C     0.54663   0.28916   0.82061   0.00000  Uiso   1.00
C802   C     0.95183   0.20816   0.81776   0.00000  Uiso   1.00
C803   C     0.95344   0.28886   0.84626   0.00000  Uiso   1.00
C804   C     0.83599   0.24993   0.83266   0.00000  Uiso   1.00
C805   C     0.54797   0.20777   0.84680   0.00000  Uiso   1.00
C806   C     0.59232   0.29014   0.82313   0.00000  Uiso   1.00
C807   C     0.90594   0.20858   0.81802   0.00000  Uiso   1.00
C808   C     0.90775   0.28987   0.84413   0.00000  Uiso   1.00
C809   C     0.59388   0.20821   0.84691   0.00000  Uiso   1.00
C810   C     0.61613   0.24946   0.83488   0.00000  Uiso   1.00
C811   C     0.88383   0.24950   0.83141   0.00000  Uiso   1.00
C812   C     0.52410   0.24817   0.83304   0.00000  Uiso   1.00
C813   C     0.97583   0.24821   0.83252   0.00000  Uiso   1.00
C814   C     0.69331   0.12809   0.76659   0.00000  Uiso   1.00
C815   C     0.72284   0.10249   0.80026   0.00000  Uiso   1.00
C816   C     0.81763   0.37588   0.88597   0.00000  Uiso   1.00
C817   C     0.80667   0.12811   0.90010   0.00000  Uiso   1.00
C818   C     0.68222   0.37579   0.78091   0.00000  Uiso   1.00
C819   C     0.71689   0.01691   0.72248   0.00000  Uiso   1.00
C820   C     0.68441   0.49127   0.68712   0.00000  Uiso   1.00
C821   C     0.84553   0.47423   0.79885   0.00000  Uiso   1.00
C822   C     0.89078   0.49776   0.80211   0.00000  Uiso   1.00
C823   C     0.78300   0.01684   0.94418   0.00000  Uiso   1.00
C824   C     0.81545   0.49122   0.97958   0.00000  Uiso   1.00
C825   C     0.65455   0.47426   0.86791   0.00000  Uiso   1.00
C826   C     0.78571   0.39817   0.85251   0.00000  Uiso   1.00
C827   C     0.60906   0.49726   0.86470   0.00000  Uiso   1.00
C828   C     0.77715   0.10250   0.86642   0.00000  Uiso   1.00
C829   C     0.71427   0.39815   0.81418   0.00000  Uiso   1.00
C830   C     0.72317   0.05313   0.79825   0.00000  Uiso   1.00
C831   C     0.78920   0.44672   0.84408   0.00000  Uiso   1.00
C832   C     0.77681   0.05314   0.86844   0.00000  Uiso   1.00
H833   H     0.52910   0.32057   0.80881   0.00000  Uiso   1.00
H834   H     0.74414   0.49236   0.73347   0.00000  Uiso   1.00
H835   H     0.65859   0.01584   0.67219   0.00000  Uiso   1.00
H836   H     0.70207   0.47600   0.98891   0.00000  Uiso   1.00
H837   H     0.66812   0.46240   0.70721   0.00000  Uiso   1.00
H838   H     0.82245   0.49739   0.77667   0.00000  Uiso   1.00
H839   H     0.84882   0.44020   0.77906   0.00000  Uiso   1.00
H840   H     0.91495   0.47534   0.82343   0.00000  Uiso   1.00
H841   H     0.90281   0.00343   0.76396   0.00000  Uiso   1.00
H842   H     0.88832   0.03213   0.82116   0.00000  Uiso   1.00
H843   H     0.76925   0.04749   0.96385   0.00000  Uiso   1.00
H844   H     0.96837   0.17675   0.80573   0.00000  Uiso   1.00
H845   H     0.75579   0.49226   0.93312   0.00000  Uiso   1.00
H846   H     0.84116   0.01585   0.99467   0.00000  Uiso   1.00
H847   H     0.79774   0.47579   0.67767   0.00000  Uiso   1.00
H848   H     0.83189   0.46248   0.95946   0.00000  Uiso   1.00
H849   H     0.67748   0.49780   0.88981   0.00000  Uiso   1.00
H850   H     0.65165   0.44031   0.88798   0.00000  Uiso   1.00
H851   H     0.58502   0.47442   0.84371   0.00000  Uiso   1.00
H852   H     0.59714   0.00307   0.90287   0.00000  Uiso   1.00
H853   H     0.61110   0.03151   0.84533   0.00000  Uiso   1.00
H854   H     0.97106   0.31996   0.85887   0.00000  Uiso   1.00
H855   H     0.53134   0.17607   0.85783   0.00000  Uiso   1.00
H856   H     0.60874   0.32264   0.81538   0.00000  Uiso   1.00
H857   H     0.88783   0.17720   0.80713   0.00000  Uiso   1.00
H858   H     0.89142   0.32212   0.85300   0.00000  Uiso   1.00
H859   H     0.61187   0.17656   0.85701   0.00000  Uiso   1.00
H860   H     0.73058   0.04760   0.70281   0.00000  Uiso   1.00
N861   N     0.75000   0.12623   0.83333   0.00000  Uiso   1.00
N862   N     0.75000   0.37376   0.83333   0.00000  Uiso   1.00
N863   N     0.66945   0.14836   0.73943   0.00000  Uiso   1.00
N864   N     0.84265   0.35869   0.91429   0.00000  Uiso   1.00
N865   N     0.83052   0.14839   0.92728   0.00000  Uiso   1.00
N866   N     0.65706   0.35855   0.75278   0.00000  Uiso   1.00
O867   O     0.68453   0.28974   0.83334   0.00000  Uiso   1.00
O868   O     0.83076   0.46715   0.84758   0.00000  Uiso   1.00
O869   O     0.80597   0.03167   0.90238   0.00000  Uiso   1.00
O870   O     0.66921   0.46708   0.81915   0.00000  Uiso   1.00
O871   O     0.81547   0.21026   0.83333   0.00000  Uiso   1.00
O872   O     0.81547   0.28974   0.83333   0.00000  Uiso   1.00
O873   O     0.68453   0.21026   0.83334   0.00000  Uiso   1.00
O874   O     0.75000   0.28973   0.76178   0.00000  Uiso   1.00
O875   O     0.75000   0.21027   0.90489   0.00000  Uiso   1.00
O876   O     0.75000   0.28973   0.90489   0.00000  Uiso   1.00
O877   O     0.75000   0.21027   0.76178   0.00000  Uiso   1.00
O878   O     0.69398   0.03164   0.76434   0.00000  Uiso   1.00
Zn879  Zn    0.75000   0.30307   0.83333   0.00000  Uiso   1.00
Zn880  Zn    0.75000   0.19693   0.83333   0.00000  Uiso   1.00
C881   C     0.16400   0.74991   0.83395   0.00000  Uiso   1.00
C882   C     0.21079   0.94670   0.82260   0.00000  Uiso   1.00
C883   C     0.24984   0.75000   0.73959   0.00000  Uiso   1.00
C884   C     0.25016   0.75000   0.92708   0.00000  Uiso   1.00
C885   C     0.24999   0.52688   0.83334   0.00000  Uiso   1.00
C886   C     0.25000   0.97323   0.83333   0.00000  Uiso   1.00
C887   C     0.24994   0.74999   0.68845   0.00000  Uiso   1.00
C888   C     0.25006   0.74999   0.97821   0.00000  Uiso   1.00
C889   C     0.04663   0.78916   0.82061   0.00000  Uiso   1.00
C890   C     0.45183   0.70816   0.81776   0.00000  Uiso   1.00
C891   C     0.45344   0.78886   0.84626   0.00000  Uiso   1.00
C892   C     0.33599   0.74993   0.83266   0.00000  Uiso   1.00
C893   C     0.04797   0.70777   0.84680   0.00000  Uiso   1.00
C894   C     0.09232   0.79014   0.82313   0.00000  Uiso   1.00
C895   C     0.40594   0.70858   0.81802   0.00000  Uiso   1.00
C896   C     0.40775   0.78987   0.84413   0.00000  Uiso   1.00
C897   C     0.09388   0.70821   0.84691   0.00000  Uiso   1.00
C898   C     0.11613   0.74946   0.83488   0.00000  Uiso   1.00
C899   C     0.38383   0.74950   0.83141   0.00000  Uiso   1.00
C900   C     0.02410   0.74817   0.83304   0.00000  Uiso   1.00
C901   C     0.47583   0.74821   0.83252   0.00000  Uiso   1.00
C902   C     0.19331   0.62809   0.76659   0.00000  Uiso   1.00
C903   C     0.22284   0.60249   0.80026   0.00000  Uiso   1.00
C904   C     0.31763   0.87588   0.88597   0.00000  Uiso   1.00
C905   C     0.30667   0.62811   0.90010   0.00000  Uiso   1.00
C906   C     0.18222   0.87579   0.78091   0.00000  Uiso   1.00
C907   C     0.21689   0.51691   0.72248   0.00000  Uiso   1.00
C908   C     0.18441   0.99127   0.68712   0.00000  Uiso   1.00
C909   C     0.34553   0.97423   0.79885   0.00000  Uiso   1.00
C910   C     0.39078   0.99776   0.80211   0.00000  Uiso   1.00
C911   C     0.28300   0.51684   0.94418   0.00000  Uiso   1.00
C912   C     0.31545   0.99122   0.97958   0.00000  Uiso   1.00
C913   C     0.15455   0.97426   0.86791   0.00000  Uiso   1.00
C914   C     0.28571   0.89817   0.85251   0.00000  Uiso   1.00
C915   C     0.10906   0.99726   0.86470   0.00000  Uiso   1.00
C916   C     0.27715   0.60250   0.86642   0.00000  Uiso   1.00
C917   C     0.21427   0.89815   0.81418   0.00000  Uiso   1.00
C918   C     0.22317   0.55313   0.79825   0.00000  Uiso   1.00
C919   C     0.28920   0.94672   0.84408   0.00000  Uiso   1.00
C920   C     0.27681   0.55314   0.86844   0.00000  Uiso   1.00
H921   H     0.02910   0.82057   0.80881   0.00000  Uiso   1.00
H922   H     0.24414   0.99236   0.73347   0.00000  Uiso   1.00
H923   H     0.15859   0.51584   0.67219   0.00000  Uiso   1.00
H924   H     0.20207   0.97600   0.98891   0.00000  Uiso   1.00
H925   H     0.16812   0.96240   0.70721   0.00000  Uiso   1.00
H926   H     0.32245   0.99739   0.77667   0.00000  Uiso   1.00
H927   H     0.34882   0.94020   0.77906   0.00000  Uiso   1.00
H928   H     0.41495   0.97534   0.82343   0.00000  Uiso   1.00
H929   H     0.40281   0.50343   0.76396   0.00000  Uiso   1.00
H930   H     0.38832   0.53213   0.82116   0.00000  Uiso   1.00
H931   H     0.26925   0.54749   0.96385   0.00000  Uiso   1.00
H932   H     0.46837   0.67675   0.80573   0.00000  Uiso   1.00
H933   H     0.25579   0.99226   0.93312   0.00000  Uiso   1.00
H934   H     0.34116   0.51585   0.99467   0.00000  Uiso   1.00
H935   H     0.29774   0.97579   0.67767   0.00000  Uiso   1.00
H936   H     0.33189   0.96248   0.95946   0.00000  Uiso   1.00
H937   H     0.17748   0.99780   0.88981   0.00000  Uiso   1.00
H938   H     0.15165   0.94031   0.88798   0.00000  Uiso   1.00
H939   H     0.08502   0.97442   0.84371   0.00000  Uiso   1.00
H940   H     0.09714   0.50307   0.90287   0.00000  Uiso   1.00
H941   H     0.11110   0.53151   0.84533   0.00000  Uiso   1.00
H942   H     0.47106   0.81996   0.85887   0.00000  Uiso   1.00
H943   H     0.03134   0.67607   0.85783   0.00000  Uiso   1.00
H944   H     0.10874   0.82264   0.81538   0.00000  Uiso   1.00
H945   H     0.38783   0.67720   0.80713   0.00000  Uiso   1.00
H946   H     0.39142   0.82212   0.85300   0.00000  Uiso   1.00
H947   H     0.11187   0.67656   0.85701   0.00000  Uiso   1.00
H948   H     0.23058   0.54760   0.70281   0.00000  Uiso   1.00
N949   N     0.25000   0.62623   0.83333   0.00000  Uiso   1.00
N950   N     0.25000   0.87376   0.83333   0.00000  Uiso   1.00
N951   N     0.16945   0.64836   0.73943   0.00000  Uiso   1.00
N952   N     0.34265   0.85869   0.91429   0.00000  Uiso   1.00
N953   N     0.33052   0.64839   0.92728   0.00000  Uiso   1.00
N954   N     0.15706   0.85855   0.75278   0.00000  Uiso   1.00
O955   O     0.18453   0.78974   0.83334   0.00000  Uiso   1.00
O956   O     0.33076   0.96715   0.84758   0.00000  Uiso   1.00
O957   O     0.30597   0.53167   0.90238   0.00000  Uiso   1.00
O958   O     0.16921   0.96708   0.81915   0.00000  Uiso   1.00
O959   O     0.31547   0.71026   0.83333   0.00000  Uiso   1.00
O960   O     0.31547   0.78974   0.83333   0.00000  Uiso   1.00
O961   O     0.18453   0.71026   0.83334   0.00000  Uiso   1.00
O962   O     0.25000   0.78973   0.76178   0.00000  Uiso   1.00
O963   O     0.25000   0.71027   0.90489   0.00000  Uiso   1.00
O964   O     0.25000   0.78973   0.90489   0.00000  Uiso   1.00
O965   O     0.25000   0.71027   0.76178   0.00000  Uiso   1.00
O966   O     0.19398   0.53164   0.76434   0.00000  Uiso   1.00
Zn967  Zn    0.25000   0.80307   0.83333   0.00000  Uiso   1.00
Zn968  Zn    0.25000   0.69693   0.83333   0.00000  Uiso   1.00
C969   C     0.66400   0.74991   0.83395   0.00000  Uiso   1.00
C970   C     0.71079   0.94670   0.82260   0.00000  Uiso   1.00
C971   C     0.74984   0.75000   0.73959   0.00000  Uiso   1.00
C972   C     0.75016   0.75000   0.92708   0.00000  Uiso   1.00
C973   C     0.74999   0.52688   0.83334   0.00000  Uiso   1.00
C974   C     0.75000   0.97323   0.83333   0.00000  Uiso   1.00
C975   C     0.74994   0.74999   0.68845   0.00000  Uiso   1.00
C976   C     0.75006   0.74999   0.97821   0.00000  Uiso   1.00
C977   C     0.54663   0.78916   0.82061   0.00000  Uiso   1.00
C978   C     0.95183   0.70816   0.81776   0.00000  Uiso   1.00
C979   C     0.95344   0.78886   0.84626   0.00000  Uiso   1.00
C980   C     0.83599   0.74993   0.83266   0.00000  Uiso   1.00
C981   C     0.54797   0.70777   0.84680   0.00000  Uiso   1.00
C982   C     0.59232   0.79014   0.82313   0.00000  Uiso   1.00
C983   C     0.90594   0.70858   0.81802   0.00000  Uiso   1.00
C984   C     0.90775   0.78987   0.84413   0.00000  Uiso   1.00
C985   C     0.59388   0.70821   0.84691   0.00000  Uiso   1.00
C986   C     0.61613   0.74946   0.83488   0.00000  Uiso   1.00
C987   C     0.88383   0.74950   0.83141   0.00000  Uiso   1.00
C988   C     0.52410   0.74817   0.83304   0.00000  Uiso   1.00
C989   C     0.97583   0.74821   0.83252   0.00000  Uiso   1.00
C990   C     0.69331   0.62809   0.76659   0.00000  Uiso   1.00
C991   C     0.72284   0.60249   0.80026   0.00000  Uiso   1.00
C992   C     0.81763   0.87588   0.88597   0.00000  Uiso   1.00
C993   C     0.80667   0.62811   0.90010   0.00000  Uiso   1.00
C994   C     0.68222   0.87579   0.78091   0.00000  Uiso   1.00
C995   C     0.71689   0.51691   0.72248   0.00000  Uiso   1.00
C996   C     0.68441   0.99127   0.68712   0.00000  Uiso   1.00
C997   C     0.84553   0.97423   0.79885   0.00000  Uiso   1.00
C998   C     0.89078   0.99776   0.80211   0.00000  Uiso   1.00
C999   C     0.78300   0.51684   0.94418   0.00000  Uiso   1.00
C1000  C     0.81545   0.99122   0.97958   0.00000  Uiso   1.00
C1001  C     0.65455   0.97426   0.86791   0.00000  Uiso   1.00
C1002  C     0.78571   0.89817   0.85251   0.00000  Uiso   1.00
C1003  C     0.60906   0.99726   0.86470   0.00000  Uiso   1.00
C1004  C     0.77715   0.60250   0.86642   0.00000  Uiso   1.00
C1005  C     0.71427   0.89815   0.81418   0.00000  Uiso   1.00
C1006  C     0.72317   0.55313   0.79825   0.00000  Uiso   1.00
C1007  C     0.78920   0.94672   0.84408   0.00000  Uiso   1.00
C1008  C     0.77681   0.55314   0.86844   0.00000  Uiso   1.00
H1009  H     0.52910   0.82057   0.80881   0.00000  Uiso   1.00
H1010  H     0.74414   0.99236   0.73347   0.00000  Uiso   1.00
H1011  H     0.65859   0.51584   0.67219   0.00000  Uiso   1.00
H1012  H     0.70207   0.97600   0.98891   0.00000  Uiso   1.00
H1013  H     0.66812   0.96240   0.70721   0.00000  Uiso   1.00
H1014  H     0.82245   0.99739   0.77667   0.00000  Uiso   1.00
H1015  H     0.84882   0.94020   0.77906   0.00000  Uiso   1.00
H1016  H     0.91495   0.97534   0.82343   0.00000  Uiso   1.00
H1017  H     0.90281   0.50343   0.76396   0.00000  Uiso   1.00
H1018  H     0.88832   0.53213   0.82116   0.00000  Uiso   1.00
H1019  H     0.76925   0.54749   0.96385   0.00000  Uiso   1.00
H1020  H     0.96837   0.67675   0.80573   0.00000  Uiso   1.00
H1021  H     0.75579   0.99226   0.93312   0.00000  Uiso   1.00
H1022  H     0.84116   0.51585   0.99467   0.00000  Uiso   1.00
H1023  H     0.79774   0.97579   0.67767   0.00000  Uiso   1.00
H1024  H     0.83189   0.96248   0.95946   0.00000  Uiso   1.00
H1025  H     0.67748   0.99780   0.88981   0.00000  Uiso   1.00
H1026  H     0.65165   0.94031   0.88798   0.00000  Uiso   1.00
H1027  H     0.58502   0.97442   0.84371   0.00000  Uiso   1.00
H1028  H     0.59714   0.50307   0.90287   0.00000  Uiso   1.00
H1029  H     0.61110   0.53151   0.84533   0.00000  Uiso   1.00
H1030  H     0.97106   0.81996   0.85887   0.00000  Uiso   1.00
H1031  H     0.53134   0.67607   0.85783   0.00000  Uiso   1.00
H1032  H     0.60874   0.82264   0.81538   0.00000  Uiso   1.00
H1033  H     0.88783   0.67720   0.80713   0.00000  Uiso   1.00
H1034  H     0.89142   0.82212   0.85300   0.00000  Uiso   1.00
H1035  H     0.61187   0.67656   0.85701   0.00000  Uiso   1.00
H1036  H     0.73058   0.54760   0.70281   0.00000  Uiso   1.00
N1037  N     0.75000   0.62623   0.83333   0.00000  Uiso   1.00
N1038  N     0.75000   0.87376   0.83333   0.00000  Uiso   1.00
N1039  N     0.66945   0.64836   0.73943   0.00000  Uiso   1.00
N1040  N     0.84265   0.85869   0.91429   0.00000  Uiso   1.00
N1041  N     0.83052   0.64839   0.92728   0.00000  Uiso   1.00
N1042  N     0.65706   0.85855   0.75278   0.00000  Uiso   1.00
O1043  O     0.68453   0.78974   0.83334   0.00000  Uiso   1.00
O1044  O     0.83076   0.96715   0.84758   0.00000  Uiso   1.00
O1045  O     0.80597   0.53167   0.90238   0.00000  Uiso   1.00
O1046  O     0.66921   0.96708   0.81915   0.00000  Uiso   1.00
O1047  O     0.81547   0.71026   0.83333   0.00000  Uiso   1.00
O1048  O     0.81547   0.78974   0.83333   0.00000  Uiso   1.00
O1049  O     0.68453   0.71026   0.83334   0.00000  Uiso   1.00
O1050  O     0.75000   0.78973   0.76178   0.00000  Uiso   1.00
O1051  O     0.75000   0.71027   0.90489   0.00000  Uiso   1.00
O1052  O     0.75000   0.78973   0.90489   0.00000  Uiso   1.00
O1053  O     0.75000   0.71027   0.76178   0.00000  Uiso   1.00
O1054  O     0.69398   0.53164   0.76434   0.00000  Uiso   1.00
Zn1055 Zn    0.75000   0.80307   0.83333   0.00000  Uiso   1.00
Zn1056 Zn    0.75000   0.69693   0.83333   0.00000  Uiso   1.00
loop_
_geom_bond_atom_site_label_1
_geom_bond_atom_site_label_2
_geom_bond_distance
_geom_bond_site_symmetry_2
_ccdc_geom_bond_type
C1     C18     1.444   .     S
C1     O81     1.292   .     A
C1     O75     1.296   .     A
C2     C37     1.411   .     A
C2     C6      1.423   .     A
C2     O78     1.382   .     S
C3     O85     1.282   .     A
C3     C7      1.370   .     S
C3     O82     1.282   .     A
C4     C8      1.370   .     S
C4     O84     1.282   .     A
C4     O83     1.282   .     A
C5     C40     1.428   .     A
C5     C38     1.428   .     A
C5     C182    1.533   1_545 S
C6     C39     1.423   .     A
C6     C181    1.533   .     S
C7     C712    1.168   1_554 S
C8     C359    1.168   .     S
C9     C14     1.376   .     A
C9     C20     1.401   .     A
C9     H41     1.082   .     S
C10    H52     1.083   .     S
C10    C15     1.384   .     A
C10    C21     1.402   .     A
C11    H62     1.082   .     S
C11    C16     1.376   .     A
C11    C21     1.401   .     A
C12    O79     1.292   .     A
C12    O80     1.296   .     A
C12    C19     1.444   .     S
C13    H63     1.083   .     S
C13    C20     1.402   .     A
C13    C17     1.383   .     A
C14    C18     1.396   .     A
C14    H64     1.077   .     S
C15    C19     1.401   .     A
C15    H65     1.083   .     S
C16    H66     1.076   .     S
C16    C19     1.395   .     A
C17    H67     1.083   .     S
C17    C18     1.401   .     A
C20    C109    1.454   1_455 S
C21    C108    1.454   .     S
C22    N71     1.157   .     T
C22    C23     1.441   .     S
C23    N69     1.362   .     A
C23    C38     1.412   .     A
C24    C34     1.437   .     S
C24    N72     1.157   .     T
C25    N73     1.157   .     T
C25    C36     1.441   .     S
C26    N74     1.157   .     T
C26    C37     1.437   .     S
C27    H68     1.112   .     S
C27    O86     1.406   .     S
C27    C204    1.522   1_545 S
C27    H218    1.111   1_545 S
C28    H45     1.111   .     S
C28    C203    1.522   .     S
C28    H219    1.111   .     S
C28    H748    1.107   1_554 S
C29    O76     1.412   .     S
C29    C30     1.520   .     S
C29    H47     1.115   .     S
C29    H46     1.114   .     S
C30    H48     1.111   .     S
C30    H225    1.111   .     S
C30    H226    1.111   .     S
C31    O77     1.406   .     S
C31    H51     1.112   .     S
C31    C208    1.522   1_545 S
C31    H229    1.111   1_545 S
C32    H56     1.111   .     S
C32    C207    1.522   .     S
C32    H230    1.111   .     S
C32    H407    1.107   .     S
C33    H58     1.115   .     S
C33    O78     1.412   .     S
C33    H57     1.114   .     S
C33    C35     1.520   .     S
C34    N70     1.365   .     A
C34    C39     1.411   .     A
C35    H59     1.111   .     S
C35    H236    1.111   .     S
C35    H237    1.111   .     S
C36    C40     1.412   .     A
C36    N69     1.362   .     A
C37    N70     1.365   .     A
C38    O86     1.382   .     S
C39    O76     1.382   .     S
C40    O77     1.382   .     S
H42    C203    1.111   .     S
H43    C204    1.111   1_545 S
H44    C380    1.107   .     S
H49    C206    1.111   1_545 S
H50    C206    1.111   1_545 S
H53    C207    1.111   .     S
H54    C208    1.111   1_545 S
H55    C736    1.107   1_554 S
H60    C211    1.111   1_545 S
H61    C211    1.111   1_545 S
N69    Zn88    2.021   .     S
N70    Zn87    2.021   .     S
O75    Zn87    2.010   .     S
O79    Zn88    2.010   .     S
O80    Zn87    2.010   .     S
O81    Zn88    2.010   .     S
O82    Zn87    1.955   .     S
O83    Zn88    1.955   .     S
O84    Zn87    1.955   .     S
O85    Zn88    1.955   .     S
C89    C106    1.444   .     S
C89    O169    1.292   .     A
C89    O163    1.296   .     A
C90    C125    1.411   .     A
C90    C94     1.423   .     A
C90    O166    1.382   .     S
C91    O173    1.282   .     A
C91    C95     1.370   .     S
C91    O170    1.282   .     A
C92    C96     1.370   .     S
C92    O172    1.282   .     A
C92    O171    1.282   .     A
C93    C128    1.428   .     A
C93    C126    1.428   .     A
C93    C270    1.533   1_545 S
C94    C127    1.423   .     A
C94    C269    1.533   .     S
C95    C800    1.168   1_554 S
C96    C447    1.168   .     S
C97    C102    1.376   .     A
C97    C108    1.401   .     A
C97    H129    1.082   .     S
C98    H140    1.083   .     S
C98    C103    1.384   .     A
C98    C109    1.402   .     A
C99    H150    1.082   .     S
C99    C104    1.376   .     A
C99    C109    1.401   .     A
C100   O167    1.292   .     A
C100   O168    1.296   .     A
C100   C107    1.444   .     S
C101   H151    1.083   .     S
C101   C108    1.402   .     A
C101   C105    1.383   .     A
C102   C106    1.396   .     A
C102   H152    1.077   .     S
C103   C107    1.401   .     A
C103   H153    1.083   .     S
C104   H154    1.076   .     S
C104   C107    1.395   .     A
C105   H155    1.083   .     S
C105   C106    1.401   .     A
C109   C20     1.454   1_655 S
C110   N159    1.157   .     T
C110   C111    1.441   .     S
C111   N157    1.362   .     A
C111   C126    1.412   .     A
C112   C122    1.437   .     S
C112   N160    1.157   .     T
C113   N161    1.157   .     T
C113   C124    1.441   .     S
C114   N162    1.157   .     T
C114   C125    1.437   .     S
C115   H156    1.112   .     S
C115   O174    1.406   .     S
C115   C292    1.522   1_545 S
C115   H306    1.111   1_545 S
C116   H133    1.111   .     S
C116   C291    1.522   .     S
C116   H307    1.111   .     S
C116   H836    1.107   1_554 S
C117   O164    1.412   .     S
C117   C118    1.520   .     S
C117   H135    1.115   .     S
C117   H134    1.114   .     S
C118   H136    1.111   .     S
C118   H313    1.111   .     S
C118   H314    1.111   .     S
C119   O165    1.406   .     S
C119   H139    1.112   .     S
C119   C296    1.522   1_545 S
C119   H317    1.111   1_545 S
C120   H144    1.111   .     S
C120   C295    1.522   .     S
C120   H318    1.111   .     S
C120   H495    1.107   .     S
C121   H146    1.115   .     S
C121   O166    1.412   .     S
C121   H145    1.114   .     S
C121   C123    1.520   .     S
C122   N158    1.365   .     A
C122   C127    1.411   .     A
C123   H147    1.111   .     S
C123   H324    1.111   .     S
C123   H325    1.111   .     S
C124   C128    1.412   .     A
C124   N157    1.362   .     A
C125   N158    1.365   .     A
C126   O174    1.382   .     S
C127   O164    1.382   .     S
C128   O165    1.382   .     S
H130   C291    1.111   .     S
H131   C292    1.111   1_545 S
H132   C468    1.107   .     S
H137   C294    1.111   1_545 S
H138   C294    1.111   1_545 S
H141   C295    1.111   .     S
H142   C296    1.111   1_545 S
H143   C824    1.107   1_554 S
H148   C299    1.111   1_545 S
H149   C299    1.111   1_545 S
N157   Zn176   2.021   .     S
N158   Zn175   2.021   .     S
O163   Zn175   2.010   .     S
O167   Zn176   2.010   .     S
O168   Zn175   2.010   .     S
O169   Zn176   2.010   .     S
O170   Zn175   1.955   .     S
O171   Zn176   1.955   .     S
O172   Zn175   1.955   .     S
O173   Zn176   1.955   .     S
C177   C194    1.444   .     S
C177   O257    1.292   .     A
C177   O251    1.296   .     A
C178   C213    1.411   .     A
C178   C182    1.423   .     A
C178   O254    1.382   .     S
C179   O261    1.282   .     A
C179   C183    1.370   .     S
C179   O258    1.282   .     A
C180   C184    1.370   .     S
C180   O260    1.282   .     A
C180   O259    1.282   .     A
C181   C216    1.428   .     A
C181   C214    1.428   .     A
C182   C215    1.423   .     A
C182   C5      1.533   1_565 S
C183   C888    1.168   1_554 S
C184   C535    1.168   .     S
C185   C190    1.376   .     A
C185   C196    1.401   .     A
C185   H217    1.082   .     S
C186   H228    1.083   .     S
C186   C191    1.384   .     A
C186   C197    1.402   .     A
C187   H238    1.082   .     S
C187   C192    1.376   .     A
C187   C197    1.401   .     A
C188   O255    1.292   .     A
C188   O256    1.296   .     A
C188   C195    1.444   .     S
C189   H239    1.083   .     S
C189   C196    1.402   .     A
C189   C193    1.383   .     A
C190   C194    1.396   .     A
C190   H240    1.077   .     S
C191   C195    1.401   .     A
C191   H241    1.083   .     S
C192   H242    1.076   .     S
C192   C195    1.395   .     A
C193   H243    1.083   .     S
C193   C194    1.401   .     A
C196   C285    1.454   1_455 S
C197   C284    1.454   .     S
C198   N247    1.157   .     T
C198   C199    1.441   .     S
C199   N245    1.362   .     A
C199   C214    1.412   .     A
C200   C210    1.437   .     S
C200   N248    1.157   .     T
C201   N249    1.157   .     T
C201   C212    1.441   .     S
C202   N250    1.157   .     T
C202   C213    1.437   .     S
C203   H244    1.112   .     S
C203   O262    1.406   .     S
C204   H221    1.111   .     S
C204   C27     1.522   1_565 S
C204   H43     1.111   1_565 S
C204   H924    1.107   1_554 S
C205   O252    1.412   .     S
C205   C206    1.520   .     S
C205   H223    1.115   .     S
C205   H222    1.114   .     S
C206   H224    1.111   .     S
C206   H49     1.111   1_565 S
C206   H50     1.111   1_565 S
C207   O253    1.406   .     S
C207   H227    1.112   .     S
C208   H232    1.111   .     S
C208   C31     1.522   1_565 S
C208   H54     1.111   1_565 S
C208   H583    1.107   .     S
C209   H234    1.115   .     S
C209   O254    1.412   .     S
C209   H233    1.114   .     S
C209   C211    1.520   .     S
C210   N246    1.365   .     A
C210   C215    1.411   .     A
C211   H235    1.111   .     S
C211   H60     1.111   1_565 S
C211   H61     1.111   1_565 S
C212   C216    1.412   .     A
C212   N245    1.362   .     A
C213   N246    1.365   .     A
C214   O262    1.382   .     S
C215   O252    1.382   .     S
C216   O253    1.382   .     S
H218   C27     1.111   1_565 S
H220   C556    1.107   .     S
H229   C31     1.111   1_565 S
H231   C912    1.107   1_554 S
N245   Zn264   2.021   .     S
N246   Zn263   2.021   .     S
O251   Zn263   2.010   .     S
O255   Zn264   2.010   .     S
O256   Zn263   2.010   .     S
O257   Zn264   2.010   .     S
O258   Zn263   1.955   .     S
O259   Zn264   1.955   .     S
O260   Zn263   1.955   .     S
O261   Zn264   1.955   .     S
C265   C282    1.444   .     S
C265   O345    1.292   .     A
C265   O339    1.296   .     A
C266   C301    1.411   .     A
C266   C270    1.423   .     A
C266   O342    1.382   .     S
C267   O349    1.282   .     A
C267   C271    1.370   .     S
C267   O346    1.282   .     A
C268   C272    1.370   .     S
C268   O348    1.282   .     A
C268   O347    1.282   .     A
C269   C304    1.428   .     A
C269   C302    1.428   .     A
C270   C303    1.423   .     A
C270   C93     1.533   1_565 S
C271   C976    1.168   1_554 S
C272   C623    1.168   .     S
C273   C278    1.376   .     A
C273   C284    1.401   .     A
C273   H305    1.082   .     S
C274   H316    1.083   .     S
C274   C279    1.384   .     A
C274   C285    1.402   .     A
C275   H326    1.082   .     S
C275   C280    1.376   .     A
C275   C285    1.401   .     A
C276   O343    1.292   .     A
C276   O344    1.296   .     A
C276   C283    1.444   .     S
C277   H327    1.083   .     S
C277   C284    1.402   .     A
C277   C281    1.383   .     A
C278   C282    1.396   .     A
C278   H328    1.077   .     S
C279   C283    1.401   .     A
C279   H329    1.083   .     S
C280   H330    1.076   .     S
C280   C283    1.395   .     A
C281   H331    1.083   .     S
C281   C282    1.401   .     A
C285   C196    1.454   1_655 S
C286   N335    1.157   .     T
C286   C287    1.441   .     S
C287   N333    1.362   .     A
C287   C302    1.412   .     A
C288   C298    1.437   .     S
C288   N336    1.157   .     T
C289   N337    1.157   .     T
C289   C300    1.441   .     S
C290   N338    1.157   .     T
C290   C301    1.437   .     S
C291   H332    1.112   .     S
C291   O350    1.406   .     S
C292   H309    1.111   .     S
C292   C115    1.522   1_565 S
C292   H131    1.111   1_565 S
C292   H1012   1.107   1_554 S
C293   O340    1.412   .     S
C293   C294    1.520   .     S
C293   H311    1.115   .     S
C293   H310    1.114   .     S
C294   H312    1.111   .     S
C294   H137    1.111   1_565 S
C294   H138    1.111   1_565 S
C295   O341    1.406   .     S
C295   H315    1.112   .     S
C296   H320    1.111   .     S
C296   C119    1.522   1_565 S
C296   H142    1.111   1_565 S
C296   H671    1.107   .     S
C297   H322    1.115   .     S
C297   O342    1.412   .     S
C297   H321    1.114   .     S
C297   C299    1.520   .     S
C298   N334    1.365   .     A
C298   C303    1.411   .     A
C299   H323    1.111   .     S
C299   H148    1.111   1_565 S
C299   H149    1.111   1_565 S
C300   C304    1.412   .     A
C300   N333    1.362   .     A
C301   N334    1.365   .     A
C302   O350    1.382   .     S
C303   O340    1.382   .     S
C304   O341    1.382   .     S
H306   C115    1.111   1_565 S
H308   C644    1.107   .     S
H317   C119    1.111   1_565 S
H319   C1000   1.107   1_554 S
N333   Zn352   2.021   .     S
N334   Zn351   2.021   .     S
O339   Zn351   2.010   .     S
O343   Zn352   2.010   .     S
O344   Zn351   2.010   .     S
O345   Zn352   2.010   .     S
O346   Zn351   1.955   .     S
O347   Zn352   1.955   .     S
O348   Zn351   1.955   .     S
O349   Zn352   1.955   .     S
C353   C370    1.444   .     S
C353   O433    1.292   .     A
C353   O427    1.296   .     A
C354   C389    1.411   .     A
C354   C358    1.423   .     A
C354   O430    1.382   .     S
C355   O437    1.282   .     A
C355   C359    1.370   .     S
C355   O434    1.282   .     A
C356   C360    1.370   .     S
C356   O436    1.282   .     A
C356   O435    1.282   .     A
C357   C392    1.428   .     A
C357   C390    1.428   .     A
C357   C534    1.533   1_545 S
C358   C391    1.423   .     A
C358   C533    1.533   .     S
C360   C711    1.168   .     S
C361   C366    1.376   .     A
C361   C372    1.401   .     A
C361   H393    1.082   .     S
C362   H404    1.083   .     S
C362   C367    1.384   .     A
C362   C373    1.402   .     A
C363   H414    1.082   .     S
C363   C368    1.376   .     A
C363   C373    1.401   .     A
C364   O431    1.292   .     A
C364   O432    1.296   .     A
C364   C371    1.444   .     S
C365   H415    1.083   .     S
C365   C372    1.402   .     A
C365   C369    1.383   .     A
C366   C370    1.396   .     A
C366   H416    1.077   .     S
C367   C371    1.401   .     A
C367   H417    1.083   .     S
C368   H418    1.076   .     S
C368   C371    1.395   .     A
C369   H419    1.083   .     S
C369   C370    1.401   .     A
C372   C461    1.454   1_455 S
C373   C460    1.454   .     S
C374   N423    1.157   .     T
C374   C375    1.441   .     S
C375   N421    1.362   .     A
C375   C390    1.412   .     A
C376   C386    1.437   .     S
C376   N424    1.157   .     T
C377   N425    1.157   .     T
C377   C388    1.441   .     S
C378   N426    1.157   .     T
C378   C389    1.437   .     S
C379   H420    1.112   .     S
C379   O438    1.406   .     S
C379   C556    1.522   1_545 S
C379   H570    1.111   1_545 S
C380   H397    1.111   .     S
C380   C555    1.522   .     S
C380   H571    1.111   .     S
C381   O428    1.412   .     S
C381   C382    1.520   .     S
C381   H399    1.115   .     S
C381   H398    1.114   .     S
C382   H400    1.111   .     S
C382   H577    1.111   .     S
C382   H578    1.111   .     S
C383   O429    1.406   .     S
C383   H403    1.112   .     S
C383   C560    1.522   1_545 S
C383   H581    1.111   1_545 S
C384   H408    1.111   .     S
C384   C559    1.522   .     S
C384   H582    1.111   .     S
C384   H759    1.107   .     S
C385   H410    1.115   .     S
C385   O430    1.412   .     S
C385   H409    1.114   .     S
C385   C387    1.520   .     S
C386   N422    1.365   .     A
C386   C391    1.411   .     A
C387   H411    1.111   .     S
C387   H588    1.111   .     S
C387   H589    1.111   .     S
C388   C392    1.412   .     A
C388   N421    1.362   .     A
C389   N422    1.365   .     A
C390   O438    1.382   .     S
C391   O428    1.382   .     S
C392   O429    1.382   .     S
H394   C555    1.111   .     S
H395   C556    1.111   1_545 S
H396   C732    1.107   .     S
H401   C558    1.111   1_545 S
H402   C558    1.111   1_545 S
H405   C559    1.111   .     S
H406   C560    1.111   1_545 S
H412   C563    1.111   1_545 S
H413   C563    1.111   1_545 S
N421   Zn440   2.021   .     S
N422   Zn439   2.021   .     S
O427   Zn439   2.010   .     S
O431   Zn440   2.010   .     S
O432   Zn439   2.010   .     S
O433   Zn440   2.010   .     S
O434   Zn439   1.955   .     S
O435   Zn440   1.955   .     S
O436   Zn439   1.955   .     S
O437   Zn440   1.955   .     S
C441   C458    1.444   .     S
C441   O521    1.292   .     A
C441   O515    1.296   .     A
C442   C477    1.411   .     A
C442   C446    1.423   .     A
C442   O518    1.382   .     S
C443   O525    1.282   .     A
C443   C447    1.370   .     S
C443   O522    1.282   .     A
C444   C448    1.370   .     S
C444   O524    1.282   .     A
C444   O523    1.282   .     A
C445   C480    1.428   .     A
C445   C478    1.428   .     A
C445   C622    1.533   1_545 S
C446   C479    1.423   .     A
C446   C621    1.533   .     S
C448   C799    1.168   .     S
C449   C454    1.376   .     A
C449   C460    1.401   .     A
C449   H481    1.082   .     S
C450   H492    1.083   .     S
C450   C455    1.384   .     A
C450   C461    1.402   .     A
C451   H502    1.082   .     S
C451   C456    1.376   .     A
C451   C461    1.401   .     A
C452   O519    1.292   .     A
C452   O520    1.296   .     A
C452   C459    1.444   .     S
C453   H503    1.083   .     S
C453   C460    1.402   .     A
C453   C457    1.383   .     A
C454   C458    1.396   .     A
C454   H504    1.077   .     S
C455   C459    1.401   .     A
C455   H505    1.083   .     S
C456   H506    1.076   .     S
C456   C459    1.395   .     A
C457   H507    1.083   .     S
C457   C458    1.401   .     A
C461   C372    1.454   1_655 S
C462   N511    1.157   .     T
C462   C463    1.441   .     S
C463   N509    1.362   .     A
C463   C478    1.412   .     A
C464   C474    1.437   .     S
C464   N512    1.157   .     T
C465   N513    1.157   .     T
C465   C476    1.441   .     S
C466   N514    1.157   .     T
C466   C477    1.437   .     S
C467   H508    1.112   .     S
C467   O526    1.406   .     S
C467   C644    1.522   1_545 S
C467   H658    1.111   1_545 S
C468   H485    1.111   .     S
C468   C643    1.522   .     S
C468   H659    1.111   .     S
C469   O516    1.412   .     S
C469   C470    1.520   .     S
C469   H487    1.115   .     S
C469   H486    1.114   .     S
C470   H488    1.111   .     S
C470   H665    1.111   .     S
C470   H666    1.111   .     S
C471   O517    1.406   .     S
C471   H491    1.112   .     S
C471   C648    1.522   1_545 S
C471   H669    1.111   1_545 S
C472   H496    1.111   .     S
C472   C647    1.522   .     S
C472   H670    1.111   .     S
C472   H847    1.107   .     S
C473   H498    1.115   .     S
C473   O518    1.412   .     S
C473   H497    1.114   .     S
C473   C475    1.520   .     S
C474   N510    1.365   .     A
C474   C479    1.411   .     A
C475   H499    1.111   .     S
C475   H676    1.111   .     S
C475   H677    1.111   .     S
C476   C480    1.412   .     A
C476   N509    1.362   .     A
C477   N510    1.365   .     A
C478   O526    1.382   .     S
C479   O516    1.382   .     S
C480   O517    1.382   .     S
H482   C643    1.111   .     S
H483   C644    1.111   1_545 S
H484   C820    1.107   .     S
H489   C646    1.111   1_545 S
H490   C646    1.111   1_545 S
H493   C647    1.111   .     S
H494   C648    1.111   1_545 S
H500   C651    1.111   1_545 S
H501   C651    1.111   1_545 S
N509   Zn528   2.021   .     S
N510   Zn527   2.021   .     S
O515   Zn527   2.010   .     S
O519   Zn528   2.010   .     S
O520   Zn527   2.010   .     S
O521   Zn528   2.010   .     S
O522   Zn527   1.955   .     S
O523   Zn528   1.955   .     S
O524   Zn527   1.955   .     S
O525   Zn528   1.955   .     S
C529   C546    1.444   .     S
C529   O609    1.292   .     A
C529   O603    1.296   .     A
C530   C565    1.411   .     A
C530   C534    1.423   .     A
C530   O606    1.382   .     S
C531   O613    1.282   .     A
C531   C535    1.370   .     S
C531   O610    1.282   .     A
C532   C536    1.370   .     S
C532   O612    1.282   .     A
C532   O611    1.282   .     A
C533   C568    1.428   .     A
C533   C566    1.428   .     A
C534   C567    1.423   .     A
C534   C357    1.533   1_565 S
C536   C887    1.168   .     S
C537   C542    1.376   .     A
C537   C548    1.401   .     A
C537   H569    1.082   .     S
C538   H580    1.083   .     S
C538   C543    1.384   .     A
C538   C549    1.402   .     A
C539   H590    1.082   .     S
C539   C544    1.376   .     A
C539   C549    1.401   .     A
C540   O607    1.292   .     A
C540   O608    1.296   .     A
C540   C547    1.444   .     S
C541   H591    1.083   .     S
C541   C548    1.402   .     A
C541   C545    1.383   .     A
C542   C546    1.396   .     A
C542   H592    1.077   .     S
C543   C547    1.401   .     A
C543   H593    1.083   .     S
C544   H594    1.076   .     S
C544   C547    1.395   .     A
C545   H595    1.083   .     S
C545   C546    1.401   .     A
C548   C637    1.454   1_455 S
C549   C636    1.454   .     S
C550   N599    1.157   .     T
C550   C551    1.441   .     S
C551   N597    1.362   .     A
C551   C566    1.412   .     A
C552   C562    1.437   .     S
C552   N600    1.157   .     T
C553   N601    1.157   .     T
C553   C564    1.441   .     S
C554   N602    1.157   .     T
C554   C565    1.437   .     S
C555   H596    1.112   .     S
C555   O614    1.406   .     S
C556   H573    1.111   .     S
C556   C379    1.522   1_565 S
C556   H395    1.111   1_565 S
C557   O604    1.412   .     S
C557   C558    1.520   .     S
C557   H575    1.115   .     S
C557   H574    1.114   .     S
C558   H576    1.111   .     S
C558   H401    1.111   1_565 S
C558   H402    1.111   1_565 S
C559   O605    1.406   .     S
C559   H579    1.112   .     S
C560   H584    1.111   .     S
C560   C383    1.522   1_565 S
C560   H406    1.111   1_565 S
C560   H935    1.107   .     S
C561   H586    1.115   .     S
C561   O606    1.412   .     S
C561   H585    1.114   .     S
C561   C563    1.520   .     S
C562   N598    1.365   .     A
C562   C567    1.411   .     A
C563   H587    1.111   .     S
C563   H412    1.111   1_565 S
C563   H413    1.111   1_565 S
C564   C568    1.412   .     A
C564   N597    1.362   .     A
C565   N598    1.365   .     A
C566   O614    1.382   .     S
C567   O604    1.382   .     S
C568   O605    1.382   .     S
H570   C379    1.111   1_565 S
H572   C908    1.107   .     S
H581   C383    1.111   1_565 S
N597   Zn616   2.021   .     S
N598   Zn615   2.021   .     S
O603   Zn615   2.010   .     S
O607   Zn616   2.010   .     S
O608   Zn615   2.010   .     S
O609   Zn616   2.010   .     S
O610   Zn615   1.955   .     S
O611   Zn616   1.955   .     S
O612   Zn615   1.955   .     S
O613   Zn616   1.955   .     S
C617   C634    1.444   .     S
C617   O697    1.292   .     A
C617   O691    1.296   .     A
C618   C653    1.411   .     A
C618   C622    1.423   .     A
C618   O694    1.382   .     S
C619   O701    1.282   .     A
C619   C623    1.370   .     S
C619   O698    1.282   .     A
C620   C624    1.370   .     S
C620   O700    1.282   .     A
C620   O699    1.282   .     A
C621   C656    1.428   .     A
C621   C654    1.428   .     A
C622   C655    1.423   .     A
C622   C445    1.533   1_565 S
C624   C975    1.168   .     S
C625   C630    1.376   .     A
C625   C636    1.401   .     A
C625   H657    1.082   .     S
C626   H668    1.083   .     S
C626   C631    1.384   .     A
C626   C637    1.402   .     A
C627   H678    1.082   .     S
C627   C632    1.376   .     A
C627   C637    1.401   .     A
C628   O695    1.292   .     A
C628   O696    1.296   .     A
C628   C635    1.444   .     S
C629   H679    1.083   .     S
C629   C636    1.402   .     A
C629   C633    1.383   .     A
C630   C634    1.396   .     A
C630   H680    1.077   .     S
C631   C635    1.401   .     A
C631   H681    1.083   .     S
C632   H682    1.076   .     S
C632   C635    1.395   .     A
C633   H683    1.083   .     S
C633   C634    1.401   .     A
C637   C548    1.454   1_655 S
C638   N687    1.157   .     T
C638   C639    1.441   .     S
C639   N685    1.362   .     A
C639   C654    1.412   .     A
C640   C650    1.437   .     S
C640   N688    1.157   .     T
C641   N689    1.157   .     T
C641   C652    1.441   .     S
C642   N690    1.157   .     T
C642   C653    1.437   .     S
C643   H684    1.112   .     S
C643   O702    1.406   .     S
C644   H661    1.111   .     S
C644   C467    1.522   1_565 S
C644   H483    1.111   1_565 S
C645   O692    1.412   .     S
C645   C646    1.520   .     S
C645   H663    1.115   .     S
C645   H662    1.114   .     S
C646   H664    1.111   .     S
C646   H489    1.111   1_565 S
C646   H490    1.111   1_565 S
C647   O693    1.406   .     S
C647   H667    1.112   .     S
C648   H672    1.111   .     S
C648   C471    1.522   1_565 S
C648   H494    1.111   1_565 S
C648   H1023   1.107   .     S
C649   H674    1.115   .     S
C649   O694    1.412   .     S
C649   H673    1.114   .     S
C649   C651    1.520   .     S
C650   N686    1.365   .     A
C650   C655    1.411   .     A
C651   H675    1.111   .     S
C651   H500    1.111   1_565 S
C651   H501    1.111   1_565 S
C652   C656    1.412   .     A
C652   N685    1.362   .     A
C653   N686    1.365   .     A
C654   O702    1.382   .     S
C655   O692    1.382   .     S
C656   O693    1.382   .     S
H658   C467    1.111   1_565 S
H660   C996    1.107   .     S
H669   C471    1.111   1_565 S
N685   Zn704   2.021   .     S
N686   Zn703   2.021   .     S
O691   Zn703   2.010   .     S
O695   Zn704   2.010   .     S
O696   Zn703   2.010   .     S
O697   Zn704   2.010   .     S
O698   Zn703   1.955   .     S
O699   Zn704   1.955   .     S
O700   Zn703   1.955   .     S
O701   Zn704   1.955   .     S
C705   C722    1.444   .     S
C705   O785    1.292   .     A
C705   O779    1.296   .     A
C706   C741    1.411   .     A
C706   C710    1.423   .     A
C706   O782    1.382   .     S
C707   O789    1.282   .     A
C707   C711    1.370   .     S
C707   O786    1.282   .     A
C708   C712    1.370   .     S
C708   O788    1.282   .     A
C708   O787    1.282   .     A
C709   C744    1.428   .     A
C709   C742    1.428   .     A
C709   C886    1.533   1_545 S
C710   C743    1.423   .     A
C710   C885    1.533   .     S
C712   C7      1.168   1_556 S
C713   C718    1.376   .     A
C713   C724    1.401   .     A
C713   H745    1.082   .     S
C714   H756    1.083   .     S
C714   C719    1.384   .     A
C714   C725    1.402   .     A
C715   H766    1.082   .     S
C715   C720    1.376   .     A
C715   C725    1.401   .     A
C716   O783    1.292   .     A
C716   O784    1.296   .     A
C716   C723    1.444   .     S
C717   H767    1.083   .     S
C717   C724    1.402   .     A
C717   C721    1.383   .     A
C718   C722    1.396   .     A
C718   H768    1.077   .     S
C719   C723    1.401   .     A
C719   H769    1.083   .     S
C720   H770    1.076   .     S
C720   C723    1.395   .     A
C721   H771    1.083   .     S
C721   C722    1.401   .     A
C724   C813    1.454   1_455 S
C725   C812    1.454   .     S
C726   N775    1.157   .     T
C726   C727    1.441   .     S
C727   N773    1.362   .     A
C727   C742    1.412   .     A
C728   C738    1.437   .     S
C728   N776    1.157   .     T
C729   N777    1.157   .     T
C729   C740    1.441   .     S
C730   N778    1.157   .     T
C730   C741    1.437   .     S
C731   H772    1.112   .     S
C731   O790    1.406   .     S
C731   C908    1.522   1_545 S
C731   H922    1.111   1_545 S
C732   H749    1.111   .     S
C732   C907    1.522   .     S
C732   H923    1.111   .     S
C733   O780    1.412   .     S
C733   C734    1.520   .     S
C733   H751    1.115   .     S
C733   H750    1.114   .     S
C734   H752    1.111   .     S
C734   H929    1.111   .     S
C734   H930    1.111   .     S
C735   O781    1.406   .     S
C735   H755    1.112   .     S
C735   C912    1.522   1_545 S
C735   H933    1.111   1_545 S
C736   H760    1.111   .     S
C736   C911    1.522   .     S
C736   H934    1.111   .     S
C736   H55     1.107   1_556 S
C737   H762    1.115   .     S
C737   O782    1.412   .     S
C737   H761    1.114   .     S
C737   C739    1.520   .     S
C738   N774    1.365   .     A
C738   C743    1.411   .     A
C739   H763    1.111   .     S
C739   H940    1.111   .     S
C739   H941    1.111   .     S
C740   C744    1.412   .     A
C740   N773    1.362   .     A
C741   N774    1.365   .     A
C742   O790    1.382   .     S
C743   O780    1.382   .     S
C744   O781    1.382   .     S
H746   C907    1.111   .     S
H747   C908    1.111   1_545 S
H748   C28     1.107   1_556 S
H753   C910    1.111   1_545 S
H754   C910    1.111   1_545 S
H757   C911    1.111   .     S
H758   C912    1.111   1_545 S
H764   C915    1.111   1_545 S
H765   C915    1.111   1_545 S
N773   Zn792   2.021   .     S
N774   Zn791   2.021   .     S
O779   Zn791   2.010   .     S
O783   Zn792   2.010   .     S
O784   Zn791   2.010   .     S
O785   Zn792   2.010   .     S
O786   Zn791   1.955   .     S
O787   Zn792   1.955   .     S
O788   Zn791   1.955   .     S
O789   Zn792   1.955   .     S
C793   C810    1.444   .     S
C793   O873    1.292   .     A
C793   O867    1.296   .     A
C794   C829    1.411   .     A
C794   C798    1.423   .     A
C794   O870    1.382   .     S
C795   O877    1.282   .     A
C795   C799    1.370   .     S
C795   O874    1.282   .     A
C796   C800    1.370   .     S
C796   O876    1.282   .     A
C796   O875    1.282   .     A
C797   C832    1.428   .     A
C797   C830    1.428   .     A
C797   C974    1.533   1_545 S
C798   C831    1.423   .     A
C798   C973    1.533   .     S
C800   C95     1.168   1_556 S
C801   C806    1.376   .     A
C801   C812    1.401   .     A
C801   H833    1.082   .     S
C802   H844    1.083   .     S
C802   C807    1.384   .     A
C802   C813    1.402   .     A
C803   H854    1.082   .     S
C803   C808    1.376   .     A
C803   C813    1.401   .     A
C804   O871    1.292   .     A
C804   O872    1.296   .     A
C804   C811    1.444   .     S
C805   H855    1.083   .     S
C805   C812    1.402   .     A
C805   C809    1.383   .     A
C806   C810    1.396   .     A
C806   H856    1.077   .     S
C807   C811    1.401   .     A
C807   H857    1.083   .     S
C808   H858    1.076   .     S
C808   C811    1.395   .     A
C809   H859    1.083   .     S
C809   C810    1.401   .     A
C813   C724    1.454   1_655 S
C814   N863    1.157   .     T
C814   C815    1.441   .     S
C815   N861    1.362   .     A
C815   C830    1.412   .     A
C816   C826    1.437   .     S
C816   N864    1.157   .     T
C817   N865    1.157   .     T
C817   C828    1.441   .     S
C818   N866    1.157   .     T
C818   C829    1.437   .     S
C819   H860    1.112   .     S
C819   O878    1.406   .     S
C819   C996    1.522   1_545 S
C819   H1010   1.111   1_545 S
C820   H837    1.111   .     S
C820   C995    1.522   .     S
C820   H1011   1.111   .     S
C821   O868    1.412   .     S
C821   C822    1.520   .     S
C821   H839    1.115   .     S
C821   H838    1.114   .     S
C822   H840    1.111   .     S
C822   H1017   1.111   .     S
C822   H1018   1.111   .     S
C823   O869    1.406   .     S
C823   H843    1.112   .     S
C823   C1000   1.522   1_545 S
C823   H1021   1.111   1_545 S
C824   H848    1.111   .     S
C824   C999    1.522   .     S
C824   H1022   1.111   .     S
C824   H143    1.107   1_556 S
C825   H850    1.115   .     S
C825   O870    1.412   .     S
C825   H849    1.114   .     S
C825   C827    1.520   .     S
C826   N862    1.365   .     A
C826   C831    1.411   .     A
C827   H851    1.111   .     S
C827   H1028   1.111   .     S
C827   H1029   1.111   .     S
C828   C832    1.412   .     A
C828   N861    1.362   .     A
C829   N862    1.365   .     A
C830   O878    1.382   .     S
C831   O868    1.382   .     S
C832   O869    1.382   .     S
H834   C995    1.111   .     S
H835   C996    1.111   1_545 S
H836   C116    1.107   1_556 S
H841   C998    1.111   1_545 S
H842   C998    1.111   1_545 S
H845   C999    1.111   .     S
H846   C1000   1.111   1_545 S
H852   C1003   1.111   1_545 S
H853   C1003   1.111   1_545 S
N861   Zn880   2.021   .     S
N862   Zn879   2.021   .     S
O867   Zn879   2.010   .     S
O871   Zn880   2.010   .     S
O872   Zn879   2.010   .     S
O873   Zn880   2.010   .     S
O874   Zn879   1.955   .     S
O875   Zn880   1.955   .     S
O876   Zn879   1.955   .     S
O877   Zn880   1.955   .     S
C881   C898    1.444   .     S
C881   O961    1.292   .     A
C881   O955    1.296   .     A
C882   C917    1.411   .     A
C882   C886    1.423   .     A
C882   O958    1.382   .     S
C883   O965    1.282   .     A
C883   C887    1.370   .     S
C883   O962    1.282   .     A
C884   C888    1.370   .     S
C884   O964    1.282   .     A
C884   O963    1.282   .     A
C885   C920    1.428   .     A
C885   C918    1.428   .     A
C886   C919    1.423   .     A
C886   C709    1.533   1_565 S
C888   C183    1.168   1_556 S
C889   C894    1.376   .     A
C889   C900    1.401   .     A
C889   H921    1.082   .     S
C890   H932    1.083   .     S
C890   C895    1.384   .     A
C890   C901    1.402   .     A
C891   H942    1.082   .     S
C891   C896    1.376   .     A
C891   C901    1.401   .     A
C892   O959    1.292   .     A
C892   O960    1.296   .     A
C892   C899    1.444   .     S
C893   H943    1.083   .     S
C893   C900    1.402   .     A
C893   C897    1.383   .     A
C894   C898    1.396   .     A
C894   H944    1.077   .     S
C895   C899    1.401   .     A
C895   H945    1.083   .     S
C896   H946    1.076   .     S
C896   C899    1.395   .     A
C897   H947    1.083   .     S
C897   C898    1.401   .     A
C900   C989    1.454   1_455 S
C901   C988    1.454   .     S
C902   N951    1.157   .     T
C902   C903    1.441   .     S
C903   N949    1.362   .     A
C903   C918    1.412   .     A
C904   C914    1.437   .     S
C904   N952    1.157   .     T
C905   N953    1.157   .     T
C905   C916    1.441   .     S
C906   N954    1.157   .     T
C906   C917    1.437   .     S
C907   H948    1.112   .     S
C907   O966    1.406   .     S
C908   H925    1.111   .     S
C908   C731    1.522   1_565 S
C908   H747    1.111   1_565 S
C909   O956    1.412   .     S
C909   C910    1.520   .     S
C909   H927    1.115   .     S
C909   H926    1.114   .     S
C910   H928    1.111   .     S
C910   H753    1.111   1_565 S
C910   H754    1.111   1_565 S
C911   O957    1.406   .     S
C911   H931    1.112   .     S
C912   H936    1.111   .     S
C912   C735    1.522   1_565 S
C912   H758    1.111   1_565 S
C912   H231    1.107   1_556 S
C913   H938    1.115   .     S
C913   O958    1.412   .     S
C913   H937    1.114   .     S
C913   C915    1.520   .     S
C914   N950    1.365   .     A
C914   C919    1.411   .     A
C915   H939    1.111   .     S
C915   H764    1.111   1_565 S
C915   H765    1.111   1_565 S
C916   C920    1.412   .     A
C916   N949    1.362   .     A
C917   N950    1.365   .     A
C918   O966    1.382   .     S
C919   O956    1.382   .     S
C920   O957    1.382   .     S
H922   C731    1.111   1_565 S
H924   C204    1.107   1_556 S
H933   C735    1.111   1_565 S
N949   Zn968   2.021   .     S
N950   Zn967   2.021   .     S
O955   Zn967   2.010   .     S
O959   Zn968   2.010   .     S
O960   Zn967   2.010   .     S
O961   Zn968   2.010   .     S
O962   Zn967   1.955   .     S
O963   Zn968   1.955   .     S
O964   Zn967   1.955   .     S
O965   Zn968   1.955   .     S
C969   C986    1.444   .     S
C969   O1049   1.292   .     A
C969   O1043   1.296   .     A
C970   C1005   1.411   .     A
C970   C974    1.423   .     A
C970   O1046   1.382   .     S
C971   O1053   1.282   .     A
C971   C975    1.370   .     S
C971   O1050   1.282   .     A
C972   C976    1.370   .     S
C972   O1052   1.282   .     A
C972   O1051   1.282   .     A
C973   C1008   1.428   .     A
C973   C1006   1.428   .     A
C974   C1007   1.423   .     A
C974   C797    1.533   1_565 S
C976   C271    1.168   1_556 S
C977   C982    1.376   .     A
C977   C988    1.401   .     A
C977   H1009   1.082   .     S
C978   H1020   1.083   .     S
C978   C983    1.384   .     A
C978   C989    1.402   .     A
C979   H1030   1.082   .     S
C979   C984    1.376   .     A
C979   C989    1.401   .     A
C980   O1047   1.292   .     A
C980   O1048   1.296   .     A
C980   C987    1.444   .     S
C981   H1031   1.083   .     S
C981   C988    1.402   .     A
C981   C985    1.383   .     A
C982   C986    1.396   .     A
C982   H1032   1.077   .     S
C983   C987    1.401   .     A
C983   H1033   1.083   .     S
C984   H1034   1.076   .     S
C984   C987    1.395   .     A
C985   H1035   1.083   .     S
C985   C986    1.401   .     A
C989   C900    1.454   1_655 S
C990   N1039   1.157   .     T
C990   C991    1.441   .     S
C991   N1037   1.362   .     A
C991   C1006   1.412   .     A
C992   C1002   1.437   .     S
C992   N1040   1.157   .     T
C993   N1041   1.157   .     T
C993   C1004   1.441   .     S
C994   N1042   1.157   .     T
C994   C1005   1.437   .     S
C995   H1036   1.112   .     S
C995   O1054   1.406   .     S
C996   H1013   1.111   .     S
C996   C819    1.522   1_565 S
C996   H835    1.111   1_565 S
C997   O1044   1.412   .     S
C997   C998    1.520   .     S
C997   H1015   1.115   .     S
C997   H1014   1.114   .     S
C998   H1016   1.111   .     S
C998   H841    1.111   1_565 S
C998   H842    1.111   1_565 S
C999   O1045   1.406   .     S
C999   H1019   1.112   .     S
C1000  H1024   1.111   .     S
C1000  C823    1.522   1_565 S
C1000  H846    1.111   1_565 S
C1000  H319    1.107   1_556 S
C1001  H1026   1.115   .     S
C1001  O1046   1.412   .     S
C1001  H1025   1.114   .     S
C1001  C1003   1.520   .     S
C1002  N1038   1.365   .     A
C1002  C1007   1.411   .     A
C1003  H1027   1.111   .     S
C1003  H852    1.111   1_565 S
C1003  H853    1.111   1_565 S
C1004  C1008   1.412   .     A
C1004  N1037   1.362   .     A
C1005  N1038   1.365   .     A
C1006  O1054   1.382   .     S
C1007  O1044   1.382   .     S
C1008  O1045   1.382   .     S
H1010  C819    1.111   1_565 S
H1012  C292    1.107   1_556 S
H1021  C823    1.111   1_565 S
N1037  Zn1056  2.021   .     S
N1038  Zn1055  2.021   .     S
O1043  Zn1055  2.010   .     S
O1047  Zn1056  2.010   .     S
O1048  Zn1055  2.010   .     S
O1049  Zn1056  2.010   .     S
O1050  Zn1055  1.955   .     S
O1051  Zn1056  1.955   .     S
O1052  Zn1055  1.955   .     S
O1053  Zn1056  1.955   .     S
