data_str_m3_o1_o16_pcu_sym.261
_audit_creation_date              2020-01-03
_audit_creation_method            'Materials Studio'
_symmetry_space_group_name_H-M    'P1'
_symmetry_Int_Tables_number       1
_symmetry_cell_setting            triclinic
loop_
_symmetry_equiv_pos_as_xyz
  x,y,z
_cell_length_a                    29.6591
_cell_length_b                    31.9167
_cell_length_c                    26.2386
_cell_angle_alpha                 89.9399
_cell_angle_beta                  72.6992
_cell_angle_gamma                 89.9370
loop_
_atom_site_label
_atom_site_type_symbol
_atom_site_fract_x
_atom_site_fract_y
_atom_site_fract_z
_atom_site_U_iso_or_equiv
_atom_site_adp_type
_atom_site_occupancy
O1     O     0.12846   0.22775   0.25001   0.00000  Uiso   1.00
O2     O     0.20490   0.22774   0.25001   0.00000  Uiso   1.00
C3     C     0.16661   0.24657   0.25017   0.00000  Uiso   1.00
O4     O     0.10947   0.16666   0.32681   0.00000  Uiso   1.00
O5     O     0.18591   0.16665   0.32681   0.00000  Uiso   1.00
C6     C     0.14167   0.15901   0.35027   0.00000  Uiso   1.00
Zn7    Zn    0.11562   0.16667   0.25000   0.00000  Uiso   1.00
Zn8    Zn    0.21771   0.16666   0.25000   0.00000  Uiso   1.00
O9     O     0.12843   0.10559   0.25000   0.00000  Uiso   1.00
O10    O     0.20488   0.10558   0.25000   0.00000  Uiso   1.00
O11    O     0.14742   0.16668   0.17319   0.00000  Uiso   1.00
O12    O     0.22387   0.16667   0.17319   0.00000  Uiso   1.00
C13    C     0.16710   0.08674   0.24832   0.00000  Uiso   1.00
C14    C     0.19213   0.17014   0.14840   0.00000  Uiso   1.00
C15    C     0.26713   0.16260   0.00628   0.00000  Uiso   1.00
H16    H     0.28158   0.12652   0.41132   0.00000  Uiso   1.00
H17    H     0.30388   0.16267   0.48343   0.00000  Uiso   1.00
C18    C     0.20676   0.17282   0.09018   0.00000  Uiso   1.00
C19    C     0.08165   0.13134   0.43404   0.00000  Uiso   1.00
C20    C     0.07083   0.12175   0.48863   0.00000  Uiso   1.00
C21    C     0.10332   0.13154   0.01589   0.00000  Uiso   1.00
C22    C     0.14970   0.14318   0.48730   0.00000  Uiso   1.00
C23    C     0.16361   0.13831   0.43179   0.00000  Uiso   1.00
C24    C     0.18414   0.15440   0.01204   0.00000  Uiso   1.00
C25    C     0.23250   0.15090   0.48295   0.00000  Uiso   1.00
C26    C     0.24539   0.13492   0.43134   0.00000  Uiso   1.00
C27    C     0.21119   0.12722   0.40622   0.00000  Uiso   1.00
C28    C     0.17183   0.17085   0.06379   0.00000  Uiso   1.00
C29    C     0.25483   0.17311   0.05994   0.00000  Uiso   1.00
C30    C     0.12857   0.14254   0.40552   0.00000  Uiso   1.00
H31    H     0.09371   0.12585   0.05831   0.00000  Uiso   1.00
C32    C     0.20535   0.31113   0.21472   0.00000  Uiso   1.00
H33    H     0.23445   0.29364   0.18851   0.00000  Uiso   1.00
C34    C     0.20556   0.02082   0.21275   0.00000  Uiso   1.00
C35    C     0.16732   0.04255   0.24704   0.00000  Uiso   1.00
C36    C     0.12849   0.02178   0.28099   0.00000  Uiso   1.00
H37    H     0.09900   0.03882   0.30720   0.00000  Uiso   1.00
C38    C     0.12805   0.31215   0.28178   0.00000  Uiso   1.00
H39    H     0.09821   0.29574   0.30828   0.00000  Uiso   1.00
C40    C     0.16678   0.29064   0.24918   0.00000  Uiso   1.00
C41    C     0.31711   0.13881   0.21970   0.00000  Uiso   1.00
H42    H     0.30527   0.11677   0.19525   0.00000  Uiso   1.00
C43    C     0.03140   0.13843   0.21982   0.00000  Uiso   1.00
N44    N     0.04760   0.16668   0.25002   0.00000  Uiso   1.00
C45    C     0.01595   0.19469   0.28032   0.00000  Uiso   1.00
H46    H     0.02757   0.21715   0.30459   0.00000  Uiso   1.00
C47    C     0.30137   0.19456   0.28048   0.00000  Uiso   1.00
H48    H     0.27688   0.21688   0.30496   0.00000  Uiso   1.00
N49    N     0.28573   0.16665   0.25001   0.00000  Uiso   1.00
Br50   Br    0.30500   0.19123   0.08748   0.00000  Uiso   1.00
Br51   Br    0.25652   0.04769   0.16003   0.00000  Uiso   1.00
Br52   Br    0.07153   0.09709   0.17614   0.00000  Uiso   1.00
N53    N     0.13100   0.19764   0.08107   0.00000  Uiso   1.00
O54    O     0.09262   0.18557   0.11683   0.00000  Uiso   1.00
O55    O     0.13056   0.23272   0.05593   0.00000  Uiso   1.00
N56    N     0.04630   0.12672   0.40747   0.00000  Uiso   1.00
O57    O     0.02650   0.15970   0.39427   0.00000  Uiso   1.00
O58    O     0.03587   0.08968   0.39364   0.00000  Uiso   1.00
Br59   Br    0.01408   0.09286   0.02612   0.00000  Uiso   1.00
Br60   Br    0.22857   0.08753   0.34904   0.00000  Uiso   1.00
O61    O     0.46179   0.22775   0.25001   0.00000  Uiso   1.00
O62    O     0.53823   0.22774   0.25001   0.00000  Uiso   1.00
C63    C     0.49994   0.24657   0.25017   0.00000  Uiso   1.00
O64    O     0.44280   0.16666   0.32681   0.00000  Uiso   1.00
O65    O     0.51924   0.16665   0.32681   0.00000  Uiso   1.00
C66    C     0.47500   0.15901   0.35027   0.00000  Uiso   1.00
Zn67   Zn    0.44896   0.16667   0.25000   0.00000  Uiso   1.00
Zn68   Zn    0.55104   0.16666   0.25000   0.00000  Uiso   1.00
O69    O     0.46177   0.10559   0.25000   0.00000  Uiso   1.00
O70    O     0.53821   0.10558   0.25000   0.00000  Uiso   1.00
O71    O     0.48076   0.16668   0.17319   0.00000  Uiso   1.00
O72    O     0.55720   0.16667   0.17319   0.00000  Uiso   1.00
C73    C     0.50044   0.08674   0.24832   0.00000  Uiso   1.00
C74    C     0.52547   0.17014   0.14840   0.00000  Uiso   1.00
C75    C     0.60046   0.16260   0.00628   0.00000  Uiso   1.00
H76    H     0.61491   0.12652   0.41132   0.00000  Uiso   1.00
H77    H     0.63722   0.16267   0.48343   0.00000  Uiso   1.00
C78    C     0.54009   0.17282   0.09018   0.00000  Uiso   1.00
C79    C     0.41499   0.13134   0.43404   0.00000  Uiso   1.00
C80    C     0.40417   0.12175   0.48863   0.00000  Uiso   1.00
C81    C     0.43666   0.13154   0.01589   0.00000  Uiso   1.00
C82    C     0.48304   0.14318   0.48730   0.00000  Uiso   1.00
C83    C     0.49694   0.13831   0.43179   0.00000  Uiso   1.00
C84    C     0.51748   0.15440   0.01204   0.00000  Uiso   1.00
C85    C     0.56583   0.15090   0.48295   0.00000  Uiso   1.00
C86    C     0.57873   0.13492   0.43134   0.00000  Uiso   1.00
C87    C     0.54453   0.12722   0.40622   0.00000  Uiso   1.00
C88    C     0.50516   0.17085   0.06379   0.00000  Uiso   1.00
C89    C     0.58816   0.17311   0.05994   0.00000  Uiso   1.00
C90    C     0.46190   0.14254   0.40552   0.00000  Uiso   1.00
H91    H     0.42704   0.12585   0.05831   0.00000  Uiso   1.00
C92    C     0.53868   0.31113   0.21472   0.00000  Uiso   1.00
H93    H     0.56778   0.29364   0.18851   0.00000  Uiso   1.00
C94    C     0.53889   0.02082   0.21275   0.00000  Uiso   1.00
C95    C     0.50065   0.04255   0.24704   0.00000  Uiso   1.00
C96    C     0.46183   0.02178   0.28099   0.00000  Uiso   1.00
H97    H     0.43234   0.03882   0.30720   0.00000  Uiso   1.00
C98    C     0.46139   0.31215   0.28178   0.00000  Uiso   1.00
H99    H     0.43155   0.29574   0.30828   0.00000  Uiso   1.00
C100   C     0.50011   0.29064   0.24918   0.00000  Uiso   1.00
C101   C     0.65044   0.13881   0.21970   0.00000  Uiso   1.00
H102   H     0.63860   0.11677   0.19525   0.00000  Uiso   1.00
C103   C     0.36473   0.13843   0.21982   0.00000  Uiso   1.00
N104   N     0.38093   0.16668   0.25002   0.00000  Uiso   1.00
C105   C     0.34928   0.19469   0.28032   0.00000  Uiso   1.00
H106   H     0.36090   0.21715   0.30459   0.00000  Uiso   1.00
C107   C     0.63471   0.19456   0.28048   0.00000  Uiso   1.00
H108   H     0.61022   0.21688   0.30496   0.00000  Uiso   1.00
N109   N     0.61906   0.16665   0.25001   0.00000  Uiso   1.00
Br110  Br    0.63834   0.19123   0.08748   0.00000  Uiso   1.00
Br111  Br    0.58986   0.04769   0.16003   0.00000  Uiso   1.00
Br112  Br    0.40487   0.09709   0.17614   0.00000  Uiso   1.00
N113   N     0.46433   0.19764   0.08107   0.00000  Uiso   1.00
O114   O     0.42596   0.18557   0.11683   0.00000  Uiso   1.00
O115   O     0.46389   0.23272   0.05593   0.00000  Uiso   1.00
N116   N     0.37964   0.12672   0.40747   0.00000  Uiso   1.00
O117   O     0.35983   0.15970   0.39427   0.00000  Uiso   1.00
O118   O     0.36920   0.08968   0.39364   0.00000  Uiso   1.00
Br119  Br    0.34742   0.09286   0.02612   0.00000  Uiso   1.00
Br120  Br    0.56190   0.08753   0.34904   0.00000  Uiso   1.00
O121   O     0.79512   0.22775   0.25001   0.00000  Uiso   1.00
O122   O     0.87157   0.22774   0.25001   0.00000  Uiso   1.00
C123   C     0.83327   0.24657   0.25017   0.00000  Uiso   1.00
O124   O     0.77613   0.16666   0.32681   0.00000  Uiso   1.00
O125   O     0.85258   0.16665   0.32681   0.00000  Uiso   1.00
C126   C     0.80834   0.15901   0.35027   0.00000  Uiso   1.00
Zn127  Zn    0.78229   0.16667   0.25000   0.00000  Uiso   1.00
Zn128  Zn    0.88438   0.16666   0.25000   0.00000  Uiso   1.00
O129   O     0.79510   0.10559   0.25000   0.00000  Uiso   1.00
O130   O     0.87154   0.10558   0.25000   0.00000  Uiso   1.00
O131   O     0.81409   0.16668   0.17319   0.00000  Uiso   1.00
O132   O     0.89053   0.16667   0.17319   0.00000  Uiso   1.00
C133   C     0.83377   0.08674   0.24832   0.00000  Uiso   1.00
C134   C     0.85880   0.17014   0.14840   0.00000  Uiso   1.00
C135   C     0.93380   0.16260   0.00628   0.00000  Uiso   1.00
H136   H     0.94825   0.12652   0.41132   0.00000  Uiso   1.00
H137   H     0.97055   0.16267   0.48343   0.00000  Uiso   1.00
C138   C     0.87342   0.17282   0.09018   0.00000  Uiso   1.00
C139   C     0.74832   0.13134   0.43404   0.00000  Uiso   1.00
C140   C     0.73750   0.12175   0.48863   0.00000  Uiso   1.00
C141   C     0.76999   0.13154   0.01589   0.00000  Uiso   1.00
C142   C     0.81637   0.14318   0.48730   0.00000  Uiso   1.00
C143   C     0.83028   0.13831   0.43179   0.00000  Uiso   1.00
C144   C     0.85081   0.15440   0.01204   0.00000  Uiso   1.00
C145   C     0.89917   0.15090   0.48295   0.00000  Uiso   1.00
C146   C     0.91206   0.13492   0.43134   0.00000  Uiso   1.00
C147   C     0.87786   0.12722   0.40622   0.00000  Uiso   1.00
C148   C     0.83850   0.17085   0.06379   0.00000  Uiso   1.00
C149   C     0.92149   0.17311   0.05994   0.00000  Uiso   1.00
C150   C     0.79524   0.14254   0.40552   0.00000  Uiso   1.00
H151   H     0.76038   0.12585   0.05831   0.00000  Uiso   1.00
C152   C     0.87201   0.31113   0.21472   0.00000  Uiso   1.00
H153   H     0.90112   0.29364   0.18851   0.00000  Uiso   1.00
C154   C     0.87223   0.02082   0.21275   0.00000  Uiso   1.00
C155   C     0.83398   0.04255   0.24704   0.00000  Uiso   1.00
C156   C     0.79516   0.02178   0.28099   0.00000  Uiso   1.00
H157   H     0.76567   0.03882   0.30720   0.00000  Uiso   1.00
C158   C     0.79472   0.31215   0.28178   0.00000  Uiso   1.00
H159   H     0.76488   0.29574   0.30828   0.00000  Uiso   1.00
C160   C     0.83344   0.29064   0.24918   0.00000  Uiso   1.00
C161   C     0.98377   0.13881   0.21970   0.00000  Uiso   1.00
H162   H     0.97194   0.11677   0.19525   0.00000  Uiso   1.00
C163   C     0.69806   0.13843   0.21982   0.00000  Uiso   1.00
N164   N     0.71426   0.16668   0.25002   0.00000  Uiso   1.00
C165   C     0.68262   0.19469   0.28032   0.00000  Uiso   1.00
H166   H     0.69423   0.21715   0.30459   0.00000  Uiso   1.00
C167   C     0.96804   0.19456   0.28048   0.00000  Uiso   1.00
H168   H     0.94355   0.21688   0.30496   0.00000  Uiso   1.00
N169   N     0.95239   0.16665   0.25001   0.00000  Uiso   1.00
Br170  Br    0.97167   0.19123   0.08748   0.00000  Uiso   1.00
Br171  Br    0.92319   0.04769   0.16003   0.00000  Uiso   1.00
Br172  Br    0.73820   0.09709   0.17614   0.00000  Uiso   1.00
N173   N     0.79766   0.19764   0.08107   0.00000  Uiso   1.00
O174   O     0.75929   0.18557   0.11683   0.00000  Uiso   1.00
O175   O     0.79722   0.23272   0.05593   0.00000  Uiso   1.00
N176   N     0.71297   0.12672   0.40747   0.00000  Uiso   1.00
O177   O     0.69317   0.15970   0.39427   0.00000  Uiso   1.00
O178   O     0.70254   0.08968   0.39364   0.00000  Uiso   1.00
Br179  Br    0.68075   0.09286   0.02612   0.00000  Uiso   1.00
Br180  Br    0.89523   0.08753   0.34904   0.00000  Uiso   1.00
O181   O     0.12846   0.56108   0.25001   0.00000  Uiso   1.00
O182   O     0.20490   0.56107   0.25001   0.00000  Uiso   1.00
C183   C     0.16661   0.57990   0.25017   0.00000  Uiso   1.00
O184   O     0.10947   0.50000   0.32681   0.00000  Uiso   1.00
O185   O     0.18591   0.49999   0.32681   0.00000  Uiso   1.00
C186   C     0.14167   0.49234   0.35027   0.00000  Uiso   1.00
Zn187  Zn    0.11562   0.50001   0.25000   0.00000  Uiso   1.00
Zn188  Zn    0.21771   0.49999   0.25000   0.00000  Uiso   1.00
O189   O     0.12843   0.43893   0.25000   0.00000  Uiso   1.00
O190   O     0.20488   0.43892   0.25000   0.00000  Uiso   1.00
O191   O     0.14742   0.50001   0.17319   0.00000  Uiso   1.00
O192   O     0.22387   0.50000   0.17319   0.00000  Uiso   1.00
C193   C     0.16710   0.42008   0.24832   0.00000  Uiso   1.00
C194   C     0.19213   0.50347   0.14840   0.00000  Uiso   1.00
C195   C     0.26713   0.49593   0.00628   0.00000  Uiso   1.00
H196   H     0.28158   0.45985   0.41132   0.00000  Uiso   1.00
H197   H     0.30388   0.49600   0.48343   0.00000  Uiso   1.00
C198   C     0.20676   0.50615   0.09018   0.00000  Uiso   1.00
C199   C     0.08165   0.46467   0.43404   0.00000  Uiso   1.00
C200   C     0.07083   0.45508   0.48863   0.00000  Uiso   1.00
C201   C     0.10332   0.46487   0.01589   0.00000  Uiso   1.00
C202   C     0.14970   0.47652   0.48730   0.00000  Uiso   1.00
C203   C     0.16361   0.47165   0.43179   0.00000  Uiso   1.00
C204   C     0.18414   0.48774   0.01204   0.00000  Uiso   1.00
C205   C     0.23250   0.48424   0.48295   0.00000  Uiso   1.00
C206   C     0.24539   0.46825   0.43134   0.00000  Uiso   1.00
C207   C     0.21119   0.46056   0.40622   0.00000  Uiso   1.00
C208   C     0.17183   0.50418   0.06379   0.00000  Uiso   1.00
C209   C     0.25483   0.50644   0.05994   0.00000  Uiso   1.00
C210   C     0.12857   0.47587   0.40552   0.00000  Uiso   1.00
H211   H     0.09371   0.45919   0.05831   0.00000  Uiso   1.00
C212   C     0.20535   0.64446   0.21472   0.00000  Uiso   1.00
H213   H     0.23445   0.62697   0.18851   0.00000  Uiso   1.00
C214   C     0.20556   0.35416   0.21275   0.00000  Uiso   1.00
C215   C     0.16732   0.37589   0.24704   0.00000  Uiso   1.00
C216   C     0.12849   0.35512   0.28099   0.00000  Uiso   1.00
H217   H     0.09900   0.37215   0.30720   0.00000  Uiso   1.00
C218   C     0.12805   0.64549   0.28178   0.00000  Uiso   1.00
H219   H     0.09821   0.62908   0.30828   0.00000  Uiso   1.00
C220   C     0.16678   0.62397   0.24918   0.00000  Uiso   1.00
C221   C     0.31711   0.47215   0.21970   0.00000  Uiso   1.00
H222   H     0.30527   0.45010   0.19525   0.00000  Uiso   1.00
C223   C     0.03140   0.47176   0.21982   0.00000  Uiso   1.00
N224   N     0.04760   0.50001   0.25002   0.00000  Uiso   1.00
C225   C     0.01595   0.52803   0.28032   0.00000  Uiso   1.00
H226   H     0.02757   0.55049   0.30459   0.00000  Uiso   1.00
C227   C     0.30137   0.52790   0.28048   0.00000  Uiso   1.00
H228   H     0.27688   0.55022   0.30496   0.00000  Uiso   1.00
N229   N     0.28573   0.49998   0.25001   0.00000  Uiso   1.00
Br230  Br    0.30500   0.52456   0.08748   0.00000  Uiso   1.00
Br231  Br    0.25652   0.38103   0.16003   0.00000  Uiso   1.00
Br232  Br    0.07153   0.43042   0.17614   0.00000  Uiso   1.00
N233   N     0.13100   0.53097   0.08107   0.00000  Uiso   1.00
O234   O     0.09262   0.51890   0.11683   0.00000  Uiso   1.00
O235   O     0.13056   0.56605   0.05593   0.00000  Uiso   1.00
N236   N     0.04630   0.46005   0.40747   0.00000  Uiso   1.00
O237   O     0.02650   0.49303   0.39427   0.00000  Uiso   1.00
O238   O     0.03587   0.42301   0.39364   0.00000  Uiso   1.00
Br239  Br    0.01408   0.42620   0.02612   0.00000  Uiso   1.00
Br240  Br    0.22857   0.42086   0.34904   0.00000  Uiso   1.00
O241   O     0.46179   0.56108   0.25001   0.00000  Uiso   1.00
O242   O     0.53823   0.56107   0.25001   0.00000  Uiso   1.00
C243   C     0.49994   0.57990   0.25017   0.00000  Uiso   1.00
O244   O     0.44280   0.50000   0.32681   0.00000  Uiso   1.00
O245   O     0.51924   0.49999   0.32681   0.00000  Uiso   1.00
C246   C     0.47500   0.49234   0.35027   0.00000  Uiso   1.00
Zn247  Zn    0.44896   0.50001   0.25000   0.00000  Uiso   1.00
Zn248  Zn    0.55104   0.49999   0.25000   0.00000  Uiso   1.00
O249   O     0.46177   0.43893   0.25000   0.00000  Uiso   1.00
O250   O     0.53821   0.43892   0.25000   0.00000  Uiso   1.00
O251   O     0.48076   0.50001   0.17319   0.00000  Uiso   1.00
O252   O     0.55720   0.50000   0.17319   0.00000  Uiso   1.00
C253   C     0.50044   0.42008   0.24832   0.00000  Uiso   1.00
C254   C     0.52547   0.50347   0.14840   0.00000  Uiso   1.00
C255   C     0.60046   0.49593   0.00628   0.00000  Uiso   1.00
H256   H     0.61491   0.45985   0.41132   0.00000  Uiso   1.00
H257   H     0.63722   0.49600   0.48343   0.00000  Uiso   1.00
C258   C     0.54009   0.50615   0.09018   0.00000  Uiso   1.00
C259   C     0.41499   0.46467   0.43404   0.00000  Uiso   1.00
C260   C     0.40417   0.45508   0.48863   0.00000  Uiso   1.00
C261   C     0.43666   0.46487   0.01589   0.00000  Uiso   1.00
C262   C     0.48304   0.47652   0.48730   0.00000  Uiso   1.00
C263   C     0.49694   0.47165   0.43179   0.00000  Uiso   1.00
C264   C     0.51748   0.48774   0.01204   0.00000  Uiso   1.00
C265   C     0.56583   0.48424   0.48295   0.00000  Uiso   1.00
C266   C     0.57873   0.46825   0.43134   0.00000  Uiso   1.00
C267   C     0.54453   0.46056   0.40622   0.00000  Uiso   1.00
C268   C     0.50516   0.50418   0.06379   0.00000  Uiso   1.00
C269   C     0.58816   0.50644   0.05994   0.00000  Uiso   1.00
C270   C     0.46190   0.47587   0.40552   0.00000  Uiso   1.00
H271   H     0.42704   0.45919   0.05831   0.00000  Uiso   1.00
C272   C     0.53868   0.64446   0.21472   0.00000  Uiso   1.00
H273   H     0.56778   0.62697   0.18851   0.00000  Uiso   1.00
C274   C     0.53889   0.35416   0.21275   0.00000  Uiso   1.00
C275   C     0.50065   0.37589   0.24704   0.00000  Uiso   1.00
C276   C     0.46183   0.35512   0.28099   0.00000  Uiso   1.00
H277   H     0.43234   0.37215   0.30720   0.00000  Uiso   1.00
C278   C     0.46139   0.64549   0.28178   0.00000  Uiso   1.00
H279   H     0.43155   0.62908   0.30828   0.00000  Uiso   1.00
C280   C     0.50011   0.62397   0.24918   0.00000  Uiso   1.00
C281   C     0.65044   0.47215   0.21970   0.00000  Uiso   1.00
H282   H     0.63860   0.45010   0.19525   0.00000  Uiso   1.00
C283   C     0.36473   0.47176   0.21982   0.00000  Uiso   1.00
N284   N     0.38093   0.50001   0.25002   0.00000  Uiso   1.00
C285   C     0.34928   0.52803   0.28032   0.00000  Uiso   1.00
H286   H     0.36090   0.55049   0.30459   0.00000  Uiso   1.00
C287   C     0.63471   0.52790   0.28048   0.00000  Uiso   1.00
H288   H     0.61022   0.55022   0.30496   0.00000  Uiso   1.00
N289   N     0.61906   0.49998   0.25001   0.00000  Uiso   1.00
Br290  Br    0.63834   0.52456   0.08748   0.00000  Uiso   1.00
Br291  Br    0.58986   0.38103   0.16003   0.00000  Uiso   1.00
Br292  Br    0.40487   0.43042   0.17614   0.00000  Uiso   1.00
N293   N     0.46433   0.53097   0.08107   0.00000  Uiso   1.00
O294   O     0.42596   0.51890   0.11683   0.00000  Uiso   1.00
O295   O     0.46389   0.56605   0.05593   0.00000  Uiso   1.00
N296   N     0.37964   0.46005   0.40747   0.00000  Uiso   1.00
O297   O     0.35983   0.49303   0.39427   0.00000  Uiso   1.00
O298   O     0.36920   0.42301   0.39364   0.00000  Uiso   1.00
Br299  Br    0.34742   0.42620   0.02612   0.00000  Uiso   1.00
Br300  Br    0.56190   0.42086   0.34904   0.00000  Uiso   1.00
O301   O     0.79512   0.56108   0.25001   0.00000  Uiso   1.00
O302   O     0.87157   0.56107   0.25001   0.00000  Uiso   1.00
C303   C     0.83327   0.57990   0.25017   0.00000  Uiso   1.00
O304   O     0.77613   0.50000   0.32681   0.00000  Uiso   1.00
O305   O     0.85258   0.49999   0.32681   0.00000  Uiso   1.00
C306   C     0.80834   0.49234   0.35027   0.00000  Uiso   1.00
Zn307  Zn    0.78229   0.50001   0.25000   0.00000  Uiso   1.00
Zn308  Zn    0.88438   0.49999   0.25000   0.00000  Uiso   1.00
O309   O     0.79510   0.43893   0.25000   0.00000  Uiso   1.00
O310   O     0.87154   0.43892   0.25000   0.00000  Uiso   1.00
O311   O     0.81409   0.50001   0.17319   0.00000  Uiso   1.00
O312   O     0.89053   0.50000   0.17319   0.00000  Uiso   1.00
C313   C     0.83377   0.42008   0.24832   0.00000  Uiso   1.00
C314   C     0.85880   0.50347   0.14840   0.00000  Uiso   1.00
C315   C     0.93380   0.49593   0.00628   0.00000  Uiso   1.00
H316   H     0.94825   0.45985   0.41132   0.00000  Uiso   1.00
H317   H     0.97055   0.49600   0.48343   0.00000  Uiso   1.00
C318   C     0.87342   0.50615   0.09018   0.00000  Uiso   1.00
C319   C     0.74832   0.46467   0.43404   0.00000  Uiso   1.00
C320   C     0.73750   0.45508   0.48863   0.00000  Uiso   1.00
C321   C     0.76999   0.46487   0.01589   0.00000  Uiso   1.00
C322   C     0.81637   0.47652   0.48730   0.00000  Uiso   1.00
C323   C     0.83028   0.47165   0.43179   0.00000  Uiso   1.00
C324   C     0.85081   0.48774   0.01204   0.00000  Uiso   1.00
C325   C     0.89917   0.48424   0.48295   0.00000  Uiso   1.00
C326   C     0.91206   0.46825   0.43134   0.00000  Uiso   1.00
C327   C     0.87786   0.46056   0.40622   0.00000  Uiso   1.00
C328   C     0.83850   0.50418   0.06379   0.00000  Uiso   1.00
C329   C     0.92149   0.50644   0.05994   0.00000  Uiso   1.00
C330   C     0.79524   0.47587   0.40552   0.00000  Uiso   1.00
H331   H     0.76038   0.45919   0.05831   0.00000  Uiso   1.00
C332   C     0.87201   0.64446   0.21472   0.00000  Uiso   1.00
H333   H     0.90112   0.62697   0.18851   0.00000  Uiso   1.00
C334   C     0.87223   0.35416   0.21275   0.00000  Uiso   1.00
C335   C     0.83398   0.37589   0.24704   0.00000  Uiso   1.00
C336   C     0.79516   0.35512   0.28099   0.00000  Uiso   1.00
H337   H     0.76567   0.37215   0.30720   0.00000  Uiso   1.00
C338   C     0.79472   0.64549   0.28178   0.00000  Uiso   1.00
H339   H     0.76488   0.62908   0.30828   0.00000  Uiso   1.00
C340   C     0.83344   0.62397   0.24918   0.00000  Uiso   1.00
C341   C     0.98377   0.47215   0.21970   0.00000  Uiso   1.00
H342   H     0.97194   0.45010   0.19525   0.00000  Uiso   1.00
C343   C     0.69806   0.47176   0.21982   0.00000  Uiso   1.00
N344   N     0.71426   0.50001   0.25002   0.00000  Uiso   1.00
C345   C     0.68262   0.52803   0.28032   0.00000  Uiso   1.00
H346   H     0.69423   0.55049   0.30459   0.00000  Uiso   1.00
C347   C     0.96804   0.52790   0.28048   0.00000  Uiso   1.00
H348   H     0.94355   0.55022   0.30496   0.00000  Uiso   1.00
N349   N     0.95239   0.49998   0.25001   0.00000  Uiso   1.00
Br350  Br    0.97167   0.52456   0.08748   0.00000  Uiso   1.00
Br351  Br    0.92319   0.38103   0.16003   0.00000  Uiso   1.00
Br352  Br    0.73820   0.43042   0.17614   0.00000  Uiso   1.00
N353   N     0.79766   0.53097   0.08107   0.00000  Uiso   1.00
O354   O     0.75929   0.51890   0.11683   0.00000  Uiso   1.00
O355   O     0.79722   0.56605   0.05593   0.00000  Uiso   1.00
N356   N     0.71297   0.46005   0.40747   0.00000  Uiso   1.00
O357   O     0.69317   0.49303   0.39427   0.00000  Uiso   1.00
O358   O     0.70254   0.42301   0.39364   0.00000  Uiso   1.00
Br359  Br    0.68075   0.42620   0.02612   0.00000  Uiso   1.00
Br360  Br    0.89523   0.42086   0.34904   0.00000  Uiso   1.00
O361   O     0.12846   0.89442   0.25001   0.00000  Uiso   1.00
O362   O     0.20490   0.89441   0.25001   0.00000  Uiso   1.00
C363   C     0.16661   0.91324   0.25017   0.00000  Uiso   1.00
O364   O     0.10947   0.83333   0.32681   0.00000  Uiso   1.00
O365   O     0.18591   0.83332   0.32681   0.00000  Uiso   1.00
C366   C     0.14167   0.82568   0.35027   0.00000  Uiso   1.00
Zn367  Zn    0.11562   0.83334   0.25000   0.00000  Uiso   1.00
Zn368  Zn    0.21771   0.83333   0.25000   0.00000  Uiso   1.00
O369   O     0.12843   0.77226   0.25000   0.00000  Uiso   1.00
O370   O     0.20488   0.77225   0.25000   0.00000  Uiso   1.00
O371   O     0.14742   0.83335   0.17319   0.00000  Uiso   1.00
O372   O     0.22387   0.83334   0.17319   0.00000  Uiso   1.00
C373   C     0.16710   0.75341   0.24832   0.00000  Uiso   1.00
C374   C     0.19213   0.83680   0.14840   0.00000  Uiso   1.00
C375   C     0.26713   0.82927   0.00628   0.00000  Uiso   1.00
H376   H     0.28158   0.79318   0.41132   0.00000  Uiso   1.00
H377   H     0.30388   0.82933   0.48343   0.00000  Uiso   1.00
C378   C     0.20676   0.83948   0.09018   0.00000  Uiso   1.00
C379   C     0.08165   0.79801   0.43404   0.00000  Uiso   1.00
C380   C     0.07083   0.78841   0.48863   0.00000  Uiso   1.00
C381   C     0.10332   0.79820   0.01589   0.00000  Uiso   1.00
C382   C     0.14970   0.80985   0.48730   0.00000  Uiso   1.00
C383   C     0.16361   0.80498   0.43179   0.00000  Uiso   1.00
C384   C     0.18414   0.82107   0.01204   0.00000  Uiso   1.00
C385   C     0.23250   0.81757   0.48295   0.00000  Uiso   1.00
C386   C     0.24539   0.80158   0.43134   0.00000  Uiso   1.00
C387   C     0.21119   0.79389   0.40622   0.00000  Uiso   1.00
C388   C     0.17183   0.83752   0.06379   0.00000  Uiso   1.00
C389   C     0.25483   0.83977   0.05994   0.00000  Uiso   1.00
C390   C     0.12857   0.80921   0.40552   0.00000  Uiso   1.00
H391   H     0.09371   0.79252   0.05831   0.00000  Uiso   1.00
C392   C     0.20535   0.97779   0.21472   0.00000  Uiso   1.00
H393   H     0.23445   0.96031   0.18851   0.00000  Uiso   1.00
C394   C     0.20556   0.68749   0.21275   0.00000  Uiso   1.00
C395   C     0.16732   0.70922   0.24704   0.00000  Uiso   1.00
C396   C     0.12849   0.68845   0.28099   0.00000  Uiso   1.00
H397   H     0.09900   0.70549   0.30720   0.00000  Uiso   1.00
C398   C     0.12805   0.97882   0.28178   0.00000  Uiso   1.00
H399   H     0.09821   0.96241   0.30828   0.00000  Uiso   1.00
C400   C     0.16678   0.95731   0.24918   0.00000  Uiso   1.00
C401   C     0.31711   0.80548   0.21970   0.00000  Uiso   1.00
H402   H     0.30527   0.78344   0.19525   0.00000  Uiso   1.00
C403   C     0.03140   0.80510   0.21982   0.00000  Uiso   1.00
N404   N     0.04760   0.83334   0.25002   0.00000  Uiso   1.00
C405   C     0.01595   0.86136   0.28032   0.00000  Uiso   1.00
H406   H     0.02757   0.88382   0.30459   0.00000  Uiso   1.00
C407   C     0.30137   0.86123   0.28048   0.00000  Uiso   1.00
H408   H     0.27688   0.88355   0.30496   0.00000  Uiso   1.00
N409   N     0.28573   0.83331   0.25001   0.00000  Uiso   1.00
Br410  Br    0.30500   0.85789   0.08748   0.00000  Uiso   1.00
Br411  Br    0.25652   0.71436   0.16003   0.00000  Uiso   1.00
Br412  Br    0.07153   0.76376   0.17614   0.00000  Uiso   1.00
N413   N     0.13100   0.86430   0.08107   0.00000  Uiso   1.00
O414   O     0.09262   0.85224   0.11683   0.00000  Uiso   1.00
O415   O     0.13056   0.89938   0.05593   0.00000  Uiso   1.00
N416   N     0.04630   0.79338   0.40747   0.00000  Uiso   1.00
O417   O     0.02650   0.82637   0.39427   0.00000  Uiso   1.00
O418   O     0.03587   0.75634   0.39364   0.00000  Uiso   1.00
Br419  Br    0.01408   0.75953   0.02612   0.00000  Uiso   1.00
Br420  Br    0.22857   0.75420   0.34904   0.00000  Uiso   1.00
O421   O     0.46179   0.89442   0.25001   0.00000  Uiso   1.00
O422   O     0.53823   0.89441   0.25001   0.00000  Uiso   1.00
C423   C     0.49994   0.91324   0.25017   0.00000  Uiso   1.00
O424   O     0.44280   0.83333   0.32681   0.00000  Uiso   1.00
O425   O     0.51924   0.83332   0.32681   0.00000  Uiso   1.00
C426   C     0.47500   0.82568   0.35027   0.00000  Uiso   1.00
Zn427  Zn    0.44896   0.83334   0.25000   0.00000  Uiso   1.00
Zn428  Zn    0.55104   0.83333   0.25000   0.00000  Uiso   1.00
O429   O     0.46177   0.77226   0.25000   0.00000  Uiso   1.00
O430   O     0.53821   0.77225   0.25000   0.00000  Uiso   1.00
O431   O     0.48076   0.83335   0.17319   0.00000  Uiso   1.00
O432   O     0.55720   0.83334   0.17319   0.00000  Uiso   1.00
C433   C     0.50044   0.75341   0.24832   0.00000  Uiso   1.00
C434   C     0.52547   0.83680   0.14840   0.00000  Uiso   1.00
C435   C     0.60046   0.82927   0.00628   0.00000  Uiso   1.00
H436   H     0.61491   0.79318   0.41132   0.00000  Uiso   1.00
H437   H     0.63722   0.82933   0.48343   0.00000  Uiso   1.00
C438   C     0.54009   0.83948   0.09018   0.00000  Uiso   1.00
C439   C     0.41499   0.79801   0.43404   0.00000  Uiso   1.00
C440   C     0.40417   0.78841   0.48863   0.00000  Uiso   1.00
C441   C     0.43666   0.79820   0.01589   0.00000  Uiso   1.00
C442   C     0.48304   0.80985   0.48730   0.00000  Uiso   1.00
C443   C     0.49694   0.80498   0.43179   0.00000  Uiso   1.00
C444   C     0.51748   0.82107   0.01204   0.00000  Uiso   1.00
C445   C     0.56583   0.81757   0.48295   0.00000  Uiso   1.00
C446   C     0.57873   0.80158   0.43134   0.00000  Uiso   1.00
C447   C     0.54453   0.79389   0.40622   0.00000  Uiso   1.00
C448   C     0.50516   0.83752   0.06379   0.00000  Uiso   1.00
C449   C     0.58816   0.83977   0.05994   0.00000  Uiso   1.00
C450   C     0.46190   0.80921   0.40552   0.00000  Uiso   1.00
H451   H     0.42704   0.79252   0.05831   0.00000  Uiso   1.00
C452   C     0.53868   0.97779   0.21472   0.00000  Uiso   1.00
H453   H     0.56778   0.96031   0.18851   0.00000  Uiso   1.00
C454   C     0.53889   0.68749   0.21275   0.00000  Uiso   1.00
C455   C     0.50065   0.70922   0.24704   0.00000  Uiso   1.00
C456   C     0.46183   0.68845   0.28099   0.00000  Uiso   1.00
H457   H     0.43234   0.70549   0.30720   0.00000  Uiso   1.00
C458   C     0.46139   0.97882   0.28178   0.00000  Uiso   1.00
H459   H     0.43155   0.96241   0.30828   0.00000  Uiso   1.00
C460   C     0.50011   0.95731   0.24918   0.00000  Uiso   1.00
C461   C     0.65044   0.80548   0.21970   0.00000  Uiso   1.00
H462   H     0.63860   0.78344   0.19525   0.00000  Uiso   1.00
C463   C     0.36473   0.80510   0.21982   0.00000  Uiso   1.00
N464   N     0.38093   0.83334   0.25002   0.00000  Uiso   1.00
C465   C     0.34928   0.86136   0.28032   0.00000  Uiso   1.00
H466   H     0.36090   0.88382   0.30459   0.00000  Uiso   1.00
C467   C     0.63471   0.86123   0.28048   0.00000  Uiso   1.00
H468   H     0.61022   0.88355   0.30496   0.00000  Uiso   1.00
N469   N     0.61906   0.83331   0.25001   0.00000  Uiso   1.00
Br470  Br    0.63834   0.85789   0.08748   0.00000  Uiso   1.00
Br471  Br    0.58986   0.71436   0.16003   0.00000  Uiso   1.00
Br472  Br    0.40487   0.76376   0.17614   0.00000  Uiso   1.00
N473   N     0.46433   0.86430   0.08107   0.00000  Uiso   1.00
O474   O     0.42596   0.85224   0.11683   0.00000  Uiso   1.00
O475   O     0.46389   0.89938   0.05593   0.00000  Uiso   1.00
N476   N     0.37964   0.79338   0.40747   0.00000  Uiso   1.00
O477   O     0.35983   0.82637   0.39427   0.00000  Uiso   1.00
O478   O     0.36920   0.75634   0.39364   0.00000  Uiso   1.00
Br479  Br    0.34742   0.75953   0.02612   0.00000  Uiso   1.00
Br480  Br    0.56190   0.75420   0.34904   0.00000  Uiso   1.00
O481   O     0.79512   0.89442   0.25001   0.00000  Uiso   1.00
O482   O     0.87157   0.89441   0.25001   0.00000  Uiso   1.00
C483   C     0.83327   0.91324   0.25017   0.00000  Uiso   1.00
O484   O     0.77613   0.83333   0.32681   0.00000  Uiso   1.00
O485   O     0.85258   0.83332   0.32681   0.00000  Uiso   1.00
C486   C     0.80834   0.82568   0.35027   0.00000  Uiso   1.00
Zn487  Zn    0.78229   0.83334   0.25000   0.00000  Uiso   1.00
Zn488  Zn    0.88438   0.83333   0.25000   0.00000  Uiso   1.00
O489   O     0.79510   0.77226   0.25000   0.00000  Uiso   1.00
O490   O     0.87154   0.77225   0.25000   0.00000  Uiso   1.00
O491   O     0.81409   0.83335   0.17319   0.00000  Uiso   1.00
O492   O     0.89053   0.83334   0.17319   0.00000  Uiso   1.00
C493   C     0.83377   0.75341   0.24832   0.00000  Uiso   1.00
C494   C     0.85880   0.83680   0.14840   0.00000  Uiso   1.00
C495   C     0.93380   0.82927   0.00628   0.00000  Uiso   1.00
H496   H     0.94825   0.79318   0.41132   0.00000  Uiso   1.00
H497   H     0.97055   0.82933   0.48343   0.00000  Uiso   1.00
C498   C     0.87342   0.83948   0.09018   0.00000  Uiso   1.00
C499   C     0.74832   0.79801   0.43404   0.00000  Uiso   1.00
C500   C     0.73750   0.78841   0.48863   0.00000  Uiso   1.00
C501   C     0.76999   0.79820   0.01589   0.00000  Uiso   1.00
C502   C     0.81637   0.80985   0.48730   0.00000  Uiso   1.00
C503   C     0.83028   0.80498   0.43179   0.00000  Uiso   1.00
C504   C     0.85081   0.82107   0.01204   0.00000  Uiso   1.00
C505   C     0.89917   0.81757   0.48295   0.00000  Uiso   1.00
C506   C     0.91206   0.80158   0.43134   0.00000  Uiso   1.00
C507   C     0.87786   0.79389   0.40622   0.00000  Uiso   1.00
C508   C     0.83850   0.83752   0.06379   0.00000  Uiso   1.00
C509   C     0.92149   0.83977   0.05994   0.00000  Uiso   1.00
C510   C     0.79524   0.80921   0.40552   0.00000  Uiso   1.00
H511   H     0.76038   0.79252   0.05831   0.00000  Uiso   1.00
C512   C     0.87201   0.97779   0.21472   0.00000  Uiso   1.00
H513   H     0.90112   0.96031   0.18851   0.00000  Uiso   1.00
C514   C     0.87223   0.68749   0.21275   0.00000  Uiso   1.00
C515   C     0.83398   0.70922   0.24704   0.00000  Uiso   1.00
C516   C     0.79516   0.68845   0.28099   0.00000  Uiso   1.00
H517   H     0.76567   0.70549   0.30720   0.00000  Uiso   1.00
C518   C     0.79472   0.97882   0.28178   0.00000  Uiso   1.00
H519   H     0.76488   0.96241   0.30828   0.00000  Uiso   1.00
C520   C     0.83344   0.95731   0.24918   0.00000  Uiso   1.00
C521   C     0.98377   0.80548   0.21970   0.00000  Uiso   1.00
H522   H     0.97194   0.78344   0.19525   0.00000  Uiso   1.00
C523   C     0.69806   0.80510   0.21982   0.00000  Uiso   1.00
N524   N     0.71426   0.83334   0.25002   0.00000  Uiso   1.00
C525   C     0.68262   0.86136   0.28032   0.00000  Uiso   1.00
H526   H     0.69423   0.88382   0.30459   0.00000  Uiso   1.00
C527   C     0.96804   0.86123   0.28048   0.00000  Uiso   1.00
H528   H     0.94355   0.88355   0.30496   0.00000  Uiso   1.00
N529   N     0.95239   0.83331   0.25001   0.00000  Uiso   1.00
Br530  Br    0.97167   0.85789   0.08748   0.00000  Uiso   1.00
Br531  Br    0.92319   0.71436   0.16003   0.00000  Uiso   1.00
Br532  Br    0.73820   0.76376   0.17614   0.00000  Uiso   1.00
N533   N     0.79766   0.86430   0.08107   0.00000  Uiso   1.00
O534   O     0.75929   0.85224   0.11683   0.00000  Uiso   1.00
O535   O     0.79722   0.89938   0.05593   0.00000  Uiso   1.00
N536   N     0.71297   0.79338   0.40747   0.00000  Uiso   1.00
O537   O     0.69317   0.82637   0.39427   0.00000  Uiso   1.00
O538   O     0.70254   0.75634   0.39364   0.00000  Uiso   1.00
Br539  Br    0.68075   0.75953   0.02612   0.00000  Uiso   1.00
Br540  Br    0.89523   0.75420   0.34904   0.00000  Uiso   1.00
O541   O     0.12846   0.22775   0.75001   0.00000  Uiso   1.00
O542   O     0.20490   0.22774   0.75001   0.00000  Uiso   1.00
C543   C     0.16661   0.24657   0.75017   0.00000  Uiso   1.00
O544   O     0.10947   0.16666   0.82681   0.00000  Uiso   1.00
O545   O     0.18591   0.16665   0.82681   0.00000  Uiso   1.00
C546   C     0.14167   0.15901   0.85027   0.00000  Uiso   1.00
Zn547  Zn    0.11562   0.16667   0.75000   0.00000  Uiso   1.00
Zn548  Zn    0.21771   0.16666   0.75000   0.00000  Uiso   1.00
O549   O     0.12843   0.10559   0.75000   0.00000  Uiso   1.00
O550   O     0.20488   0.10558   0.75000   0.00000  Uiso   1.00
O551   O     0.14742   0.16668   0.67319   0.00000  Uiso   1.00
O552   O     0.22387   0.16667   0.67319   0.00000  Uiso   1.00
C553   C     0.16710   0.08674   0.74832   0.00000  Uiso   1.00
C554   C     0.19213   0.17014   0.64840   0.00000  Uiso   1.00
C555   C     0.26713   0.16260   0.50628   0.00000  Uiso   1.00
H556   H     0.28158   0.12652   0.91132   0.00000  Uiso   1.00
H557   H     0.30388   0.16267   0.98343   0.00000  Uiso   1.00
C558   C     0.20676   0.17282   0.59018   0.00000  Uiso   1.00
C559   C     0.08165   0.13134   0.93404   0.00000  Uiso   1.00
C560   C     0.07083   0.12175   0.98863   0.00000  Uiso   1.00
C561   C     0.10332   0.13154   0.51589   0.00000  Uiso   1.00
C562   C     0.14970   0.14318   0.98730   0.00000  Uiso   1.00
C563   C     0.16361   0.13831   0.93179   0.00000  Uiso   1.00
C564   C     0.18414   0.15440   0.51204   0.00000  Uiso   1.00
C565   C     0.23250   0.15090   0.98295   0.00000  Uiso   1.00
C566   C     0.24539   0.13492   0.93134   0.00000  Uiso   1.00
C567   C     0.21119   0.12722   0.90622   0.00000  Uiso   1.00
C568   C     0.17183   0.17085   0.56379   0.00000  Uiso   1.00
C569   C     0.25483   0.17311   0.55994   0.00000  Uiso   1.00
C570   C     0.12857   0.14254   0.90552   0.00000  Uiso   1.00
H571   H     0.09371   0.12585   0.55831   0.00000  Uiso   1.00
C572   C     0.20535   0.31113   0.71472   0.00000  Uiso   1.00
H573   H     0.23445   0.29364   0.68851   0.00000  Uiso   1.00
C574   C     0.20556   0.02082   0.71275   0.00000  Uiso   1.00
C575   C     0.16732   0.04255   0.74704   0.00000  Uiso   1.00
C576   C     0.12849   0.02178   0.78099   0.00000  Uiso   1.00
H577   H     0.09900   0.03882   0.80720   0.00000  Uiso   1.00
C578   C     0.12805   0.31215   0.78178   0.00000  Uiso   1.00
H579   H     0.09821   0.29574   0.80828   0.00000  Uiso   1.00
C580   C     0.16678   0.29064   0.74918   0.00000  Uiso   1.00
C581   C     0.31711   0.13881   0.71970   0.00000  Uiso   1.00
H582   H     0.30527   0.11677   0.69525   0.00000  Uiso   1.00
C583   C     0.03140   0.13843   0.71982   0.00000  Uiso   1.00
N584   N     0.04760   0.16668   0.75002   0.00000  Uiso   1.00
C585   C     0.01595   0.19469   0.78032   0.00000  Uiso   1.00
H586   H     0.02757   0.21715   0.80459   0.00000  Uiso   1.00
C587   C     0.30137   0.19456   0.78048   0.00000  Uiso   1.00
H588   H     0.27688   0.21688   0.80496   0.00000  Uiso   1.00
N589   N     0.28573   0.16665   0.75001   0.00000  Uiso   1.00
Br590  Br    0.30500   0.19123   0.58748   0.00000  Uiso   1.00
Br591  Br    0.25652   0.04769   0.66003   0.00000  Uiso   1.00
Br592  Br    0.07153   0.09709   0.67614   0.00000  Uiso   1.00
N593   N     0.13100   0.19764   0.58107   0.00000  Uiso   1.00
O594   O     0.09262   0.18557   0.61683   0.00000  Uiso   1.00
O595   O     0.13056   0.23272   0.55593   0.00000  Uiso   1.00
N596   N     0.04630   0.12672   0.90747   0.00000  Uiso   1.00
O597   O     0.02650   0.15970   0.89427   0.00000  Uiso   1.00
O598   O     0.03587   0.08968   0.89364   0.00000  Uiso   1.00
Br599  Br    0.01408   0.09286   0.52612   0.00000  Uiso   1.00
Br600  Br    0.22857   0.08753   0.84904   0.00000  Uiso   1.00
O601   O     0.46179   0.22775   0.75001   0.00000  Uiso   1.00
O602   O     0.53823   0.22774   0.75001   0.00000  Uiso   1.00
C603   C     0.49994   0.24657   0.75017   0.00000  Uiso   1.00
O604   O     0.44280   0.16666   0.82681   0.00000  Uiso   1.00
O605   O     0.51924   0.16665   0.82681   0.00000  Uiso   1.00
C606   C     0.47500   0.15901   0.85027   0.00000  Uiso   1.00
Zn607  Zn    0.44896   0.16667   0.75000   0.00000  Uiso   1.00
Zn608  Zn    0.55104   0.16666   0.75000   0.00000  Uiso   1.00
O609   O     0.46177   0.10559   0.75000   0.00000  Uiso   1.00
O610   O     0.53821   0.10558   0.75000   0.00000  Uiso   1.00
O611   O     0.48076   0.16668   0.67319   0.00000  Uiso   1.00
O612   O     0.55720   0.16667   0.67319   0.00000  Uiso   1.00
C613   C     0.50044   0.08674   0.74832   0.00000  Uiso   1.00
C614   C     0.52547   0.17014   0.64840   0.00000  Uiso   1.00
C615   C     0.60046   0.16260   0.50628   0.00000  Uiso   1.00
H616   H     0.61491   0.12652   0.91132   0.00000  Uiso   1.00
H617   H     0.63722   0.16267   0.98343   0.00000  Uiso   1.00
C618   C     0.54009   0.17282   0.59018   0.00000  Uiso   1.00
C619   C     0.41499   0.13134   0.93404   0.00000  Uiso   1.00
C620   C     0.40417   0.12175   0.98863   0.00000  Uiso   1.00
C621   C     0.43666   0.13154   0.51589   0.00000  Uiso   1.00
C622   C     0.48304   0.14318   0.98730   0.00000  Uiso   1.00
C623   C     0.49694   0.13831   0.93179   0.00000  Uiso   1.00
C624   C     0.51748   0.15440   0.51204   0.00000  Uiso   1.00
C625   C     0.56583   0.15090   0.98295   0.00000  Uiso   1.00
C626   C     0.57873   0.13492   0.93134   0.00000  Uiso   1.00
C627   C     0.54453   0.12722   0.90622   0.00000  Uiso   1.00
C628   C     0.50516   0.17085   0.56379   0.00000  Uiso   1.00
C629   C     0.58816   0.17311   0.55994   0.00000  Uiso   1.00
C630   C     0.46190   0.14254   0.90552   0.00000  Uiso   1.00
H631   H     0.42704   0.12585   0.55831   0.00000  Uiso   1.00
C632   C     0.53868   0.31113   0.71472   0.00000  Uiso   1.00
H633   H     0.56778   0.29364   0.68851   0.00000  Uiso   1.00
C634   C     0.53889   0.02082   0.71275   0.00000  Uiso   1.00
C635   C     0.50065   0.04255   0.74704   0.00000  Uiso   1.00
C636   C     0.46183   0.02178   0.78099   0.00000  Uiso   1.00
H637   H     0.43234   0.03882   0.80720   0.00000  Uiso   1.00
C638   C     0.46139   0.31215   0.78178   0.00000  Uiso   1.00
H639   H     0.43155   0.29574   0.80828   0.00000  Uiso   1.00
C640   C     0.50011   0.29064   0.74918   0.00000  Uiso   1.00
C641   C     0.65044   0.13881   0.71970   0.00000  Uiso   1.00
H642   H     0.63860   0.11677   0.69525   0.00000  Uiso   1.00
C643   C     0.36473   0.13843   0.71982   0.00000  Uiso   1.00
N644   N     0.38093   0.16668   0.75002   0.00000  Uiso   1.00
C645   C     0.34928   0.19469   0.78032   0.00000  Uiso   1.00
H646   H     0.36090   0.21715   0.80459   0.00000  Uiso   1.00
C647   C     0.63471   0.19456   0.78048   0.00000  Uiso   1.00
H648   H     0.61022   0.21688   0.80496   0.00000  Uiso   1.00
N649   N     0.61906   0.16665   0.75001   0.00000  Uiso   1.00
Br650  Br    0.63834   0.19123   0.58748   0.00000  Uiso   1.00
Br651  Br    0.58986   0.04769   0.66003   0.00000  Uiso   1.00
Br652  Br    0.40487   0.09709   0.67614   0.00000  Uiso   1.00
N653   N     0.46433   0.19764   0.58107   0.00000  Uiso   1.00
O654   O     0.42596   0.18557   0.61683   0.00000  Uiso   1.00
O655   O     0.46389   0.23272   0.55593   0.00000  Uiso   1.00
N656   N     0.37964   0.12672   0.90747   0.00000  Uiso   1.00
O657   O     0.35983   0.15970   0.89427   0.00000  Uiso   1.00
O658   O     0.36920   0.08968   0.89364   0.00000  Uiso   1.00
Br659  Br    0.34742   0.09286   0.52612   0.00000  Uiso   1.00
Br660  Br    0.56190   0.08753   0.84904   0.00000  Uiso   1.00
O661   O     0.79512   0.22775   0.75001   0.00000  Uiso   1.00
O662   O     0.87157   0.22774   0.75001   0.00000  Uiso   1.00
C663   C     0.83327   0.24657   0.75017   0.00000  Uiso   1.00
O664   O     0.77613   0.16666   0.82681   0.00000  Uiso   1.00
O665   O     0.85258   0.16665   0.82681   0.00000  Uiso   1.00
C666   C     0.80834   0.15901   0.85027   0.00000  Uiso   1.00
Zn667  Zn    0.78229   0.16667   0.75000   0.00000  Uiso   1.00
Zn668  Zn    0.88438   0.16666   0.75000   0.00000  Uiso   1.00
O669   O     0.79510   0.10559   0.75000   0.00000  Uiso   1.00
O670   O     0.87154   0.10558   0.75000   0.00000  Uiso   1.00
O671   O     0.81409   0.16668   0.67319   0.00000  Uiso   1.00
O672   O     0.89053   0.16667   0.67319   0.00000  Uiso   1.00
C673   C     0.83377   0.08674   0.74832   0.00000  Uiso   1.00
C674   C     0.85880   0.17014   0.64840   0.00000  Uiso   1.00
C675   C     0.93380   0.16260   0.50628   0.00000  Uiso   1.00
H676   H     0.94825   0.12652   0.91132   0.00000  Uiso   1.00
H677   H     0.97055   0.16267   0.98343   0.00000  Uiso   1.00
C678   C     0.87342   0.17282   0.59018   0.00000  Uiso   1.00
C679   C     0.74832   0.13134   0.93404   0.00000  Uiso   1.00
C680   C     0.73750   0.12175   0.98863   0.00000  Uiso   1.00
C681   C     0.76999   0.13154   0.51589   0.00000  Uiso   1.00
C682   C     0.81637   0.14318   0.98730   0.00000  Uiso   1.00
C683   C     0.83028   0.13831   0.93179   0.00000  Uiso   1.00
C684   C     0.85081   0.15440   0.51204   0.00000  Uiso   1.00
C685   C     0.89917   0.15090   0.98295   0.00000  Uiso   1.00
C686   C     0.91206   0.13492   0.93134   0.00000  Uiso   1.00
C687   C     0.87786   0.12722   0.90622   0.00000  Uiso   1.00
C688   C     0.83850   0.17085   0.56379   0.00000  Uiso   1.00
C689   C     0.92149   0.17311   0.55994   0.00000  Uiso   1.00
C690   C     0.79524   0.14254   0.90552   0.00000  Uiso   1.00
H691   H     0.76038   0.12585   0.55831   0.00000  Uiso   1.00
C692   C     0.87201   0.31113   0.71472   0.00000  Uiso   1.00
H693   H     0.90112   0.29364   0.68851   0.00000  Uiso   1.00
C694   C     0.87223   0.02082   0.71275   0.00000  Uiso   1.00
C695   C     0.83398   0.04255   0.74704   0.00000  Uiso   1.00
C696   C     0.79516   0.02178   0.78099   0.00000  Uiso   1.00
H697   H     0.76567   0.03882   0.80720   0.00000  Uiso   1.00
C698   C     0.79472   0.31215   0.78178   0.00000  Uiso   1.00
H699   H     0.76488   0.29574   0.80828   0.00000  Uiso   1.00
C700   C     0.83344   0.29064   0.74918   0.00000  Uiso   1.00
C701   C     0.98377   0.13881   0.71970   0.00000  Uiso   1.00
H702   H     0.97194   0.11677   0.69525   0.00000  Uiso   1.00
C703   C     0.69806   0.13843   0.71982   0.00000  Uiso   1.00
N704   N     0.71426   0.16668   0.75002   0.00000  Uiso   1.00
C705   C     0.68262   0.19469   0.78032   0.00000  Uiso   1.00
H706   H     0.69423   0.21715   0.80459   0.00000  Uiso   1.00
C707   C     0.96804   0.19456   0.78048   0.00000  Uiso   1.00
H708   H     0.94355   0.21688   0.80496   0.00000  Uiso   1.00
N709   N     0.95239   0.16665   0.75001   0.00000  Uiso   1.00
Br710  Br    0.97167   0.19123   0.58748   0.00000  Uiso   1.00
Br711  Br    0.92319   0.04769   0.66003   0.00000  Uiso   1.00
Br712  Br    0.73820   0.09709   0.67614   0.00000  Uiso   1.00
N713   N     0.79766   0.19764   0.58107   0.00000  Uiso   1.00
O714   O     0.75929   0.18557   0.61683   0.00000  Uiso   1.00
O715   O     0.79722   0.23272   0.55593   0.00000  Uiso   1.00
N716   N     0.71297   0.12672   0.90747   0.00000  Uiso   1.00
O717   O     0.69317   0.15970   0.89427   0.00000  Uiso   1.00
O718   O     0.70254   0.08968   0.89364   0.00000  Uiso   1.00
Br719  Br    0.68075   0.09286   0.52612   0.00000  Uiso   1.00
Br720  Br    0.89523   0.08753   0.84904   0.00000  Uiso   1.00
O721   O     0.12846   0.56108   0.75001   0.00000  Uiso   1.00
O722   O     0.20490   0.56107   0.75001   0.00000  Uiso   1.00
C723   C     0.16661   0.57990   0.75017   0.00000  Uiso   1.00
O724   O     0.10947   0.50000   0.82681   0.00000  Uiso   1.00
O725   O     0.18591   0.49999   0.82681   0.00000  Uiso   1.00
C726   C     0.14167   0.49234   0.85027   0.00000  Uiso   1.00
Zn727  Zn    0.11562   0.50001   0.75000   0.00000  Uiso   1.00
Zn728  Zn    0.21771   0.49999   0.75000   0.00000  Uiso   1.00
O729   O     0.12843   0.43893   0.75000   0.00000  Uiso   1.00
O730   O     0.20488   0.43892   0.75000   0.00000  Uiso   1.00
O731   O     0.14742   0.50001   0.67319   0.00000  Uiso   1.00
O732   O     0.22387   0.50000   0.67319   0.00000  Uiso   1.00
C733   C     0.16710   0.42008   0.74832   0.00000  Uiso   1.00
C734   C     0.19213   0.50347   0.64840   0.00000  Uiso   1.00
C735   C     0.26713   0.49593   0.50628   0.00000  Uiso   1.00
H736   H     0.28158   0.45985   0.91132   0.00000  Uiso   1.00
H737   H     0.30388   0.49600   0.98343   0.00000  Uiso   1.00
C738   C     0.20676   0.50615   0.59018   0.00000  Uiso   1.00
C739   C     0.08165   0.46467   0.93404   0.00000  Uiso   1.00
C740   C     0.07083   0.45508   0.98863   0.00000  Uiso   1.00
C741   C     0.10332   0.46487   0.51589   0.00000  Uiso   1.00
C742   C     0.14970   0.47652   0.98730   0.00000  Uiso   1.00
C743   C     0.16361   0.47165   0.93179   0.00000  Uiso   1.00
C744   C     0.18414   0.48774   0.51204   0.00000  Uiso   1.00
C745   C     0.23250   0.48424   0.98295   0.00000  Uiso   1.00
C746   C     0.24539   0.46825   0.93134   0.00000  Uiso   1.00
C747   C     0.21119   0.46056   0.90622   0.00000  Uiso   1.00
C748   C     0.17183   0.50418   0.56379   0.00000  Uiso   1.00
C749   C     0.25483   0.50644   0.55994   0.00000  Uiso   1.00
C750   C     0.12857   0.47587   0.90552   0.00000  Uiso   1.00
H751   H     0.09371   0.45919   0.55831   0.00000  Uiso   1.00
C752   C     0.20535   0.64446   0.71472   0.00000  Uiso   1.00
H753   H     0.23445   0.62697   0.68851   0.00000  Uiso   1.00
C754   C     0.20556   0.35416   0.71275   0.00000  Uiso   1.00
C755   C     0.16732   0.37589   0.74704   0.00000  Uiso   1.00
C756   C     0.12849   0.35512   0.78099   0.00000  Uiso   1.00
H757   H     0.09900   0.37215   0.80720   0.00000  Uiso   1.00
C758   C     0.12805   0.64549   0.78178   0.00000  Uiso   1.00
H759   H     0.09821   0.62908   0.80828   0.00000  Uiso   1.00
C760   C     0.16678   0.62397   0.74918   0.00000  Uiso   1.00
C761   C     0.31711   0.47215   0.71970   0.00000  Uiso   1.00
H762   H     0.30527   0.45010   0.69525   0.00000  Uiso   1.00
C763   C     0.03140   0.47176   0.71982   0.00000  Uiso   1.00
N764   N     0.04760   0.50001   0.75002   0.00000  Uiso   1.00
C765   C     0.01595   0.52803   0.78032   0.00000  Uiso   1.00
H766   H     0.02757   0.55049   0.80459   0.00000  Uiso   1.00
C767   C     0.30137   0.52790   0.78048   0.00000  Uiso   1.00
H768   H     0.27688   0.55022   0.80496   0.00000  Uiso   1.00
N769   N     0.28573   0.49998   0.75001   0.00000  Uiso   1.00
Br770  Br    0.30500   0.52456   0.58748   0.00000  Uiso   1.00
Br771  Br    0.25652   0.38103   0.66003   0.00000  Uiso   1.00
Br772  Br    0.07153   0.43042   0.67614   0.00000  Uiso   1.00
N773   N     0.13100   0.53097   0.58107   0.00000  Uiso   1.00
O774   O     0.09262   0.51890   0.61683   0.00000  Uiso   1.00
O775   O     0.13056   0.56605   0.55593   0.00000  Uiso   1.00
N776   N     0.04630   0.46005   0.90747   0.00000  Uiso   1.00
O777   O     0.02650   0.49303   0.89427   0.00000  Uiso   1.00
O778   O     0.03587   0.42301   0.89364   0.00000  Uiso   1.00
Br779  Br    0.01408   0.42620   0.52612   0.00000  Uiso   1.00
Br780  Br    0.22857   0.42086   0.84904   0.00000  Uiso   1.00
O781   O     0.46179   0.56108   0.75001   0.00000  Uiso   1.00
O782   O     0.53823   0.56107   0.75001   0.00000  Uiso   1.00
C783   C     0.49994   0.57990   0.75017   0.00000  Uiso   1.00
O784   O     0.44280   0.50000   0.82681   0.00000  Uiso   1.00
O785   O     0.51924   0.49999   0.82681   0.00000  Uiso   1.00
C786   C     0.47500   0.49234   0.85027   0.00000  Uiso   1.00
Zn787  Zn    0.44896   0.50001   0.75000   0.00000  Uiso   1.00
Zn788  Zn    0.55104   0.49999   0.75000   0.00000  Uiso   1.00
O789   O     0.46177   0.43893   0.75000   0.00000  Uiso   1.00
O790   O     0.53821   0.43892   0.75000   0.00000  Uiso   1.00
O791   O     0.48076   0.50001   0.67319   0.00000  Uiso   1.00
O792   O     0.55720   0.50000   0.67319   0.00000  Uiso   1.00
C793   C     0.50044   0.42008   0.74832   0.00000  Uiso   1.00
C794   C     0.52547   0.50347   0.64840   0.00000  Uiso   1.00
C795   C     0.60046   0.49593   0.50628   0.00000  Uiso   1.00
H796   H     0.61491   0.45985   0.91132   0.00000  Uiso   1.00
H797   H     0.63722   0.49600   0.98343   0.00000  Uiso   1.00
C798   C     0.54009   0.50615   0.59018   0.00000  Uiso   1.00
C799   C     0.41499   0.46467   0.93404   0.00000  Uiso   1.00
C800   C     0.40417   0.45508   0.98863   0.00000  Uiso   1.00
C801   C     0.43666   0.46487   0.51589   0.00000  Uiso   1.00
C802   C     0.48304   0.47652   0.98730   0.00000  Uiso   1.00
C803   C     0.49694   0.47165   0.93179   0.00000  Uiso   1.00
C804   C     0.51748   0.48774   0.51204   0.00000  Uiso   1.00
C805   C     0.56583   0.48424   0.98295   0.00000  Uiso   1.00
C806   C     0.57873   0.46825   0.93134   0.00000  Uiso   1.00
C807   C     0.54453   0.46056   0.90622   0.00000  Uiso   1.00
C808   C     0.50516   0.50418   0.56379   0.00000  Uiso   1.00
C809   C     0.58816   0.50644   0.55994   0.00000  Uiso   1.00
C810   C     0.46190   0.47587   0.90552   0.00000  Uiso   1.00
H811   H     0.42704   0.45919   0.55831   0.00000  Uiso   1.00
C812   C     0.53868   0.64446   0.71472   0.00000  Uiso   1.00
H813   H     0.56778   0.62697   0.68851   0.00000  Uiso   1.00
C814   C     0.53889   0.35416   0.71275   0.00000  Uiso   1.00
C815   C     0.50065   0.37589   0.74704   0.00000  Uiso   1.00
C816   C     0.46183   0.35512   0.78099   0.00000  Uiso   1.00
H817   H     0.43234   0.37215   0.80720   0.00000  Uiso   1.00
C818   C     0.46139   0.64549   0.78178   0.00000  Uiso   1.00
H819   H     0.43155   0.62908   0.80828   0.00000  Uiso   1.00
C820   C     0.50011   0.62397   0.74918   0.00000  Uiso   1.00
C821   C     0.65044   0.47215   0.71970   0.00000  Uiso   1.00
H822   H     0.63860   0.45010   0.69525   0.00000  Uiso   1.00
C823   C     0.36473   0.47176   0.71982   0.00000  Uiso   1.00
N824   N     0.38093   0.50001   0.75002   0.00000  Uiso   1.00
C825   C     0.34928   0.52803   0.78032   0.00000  Uiso   1.00
H826   H     0.36090   0.55049   0.80459   0.00000  Uiso   1.00
C827   C     0.63471   0.52790   0.78048   0.00000  Uiso   1.00
H828   H     0.61022   0.55022   0.80496   0.00000  Uiso   1.00
N829   N     0.61906   0.49998   0.75001   0.00000  Uiso   1.00
Br830  Br    0.63834   0.52456   0.58748   0.00000  Uiso   1.00
Br831  Br    0.58986   0.38103   0.66003   0.00000  Uiso   1.00
Br832  Br    0.40487   0.43042   0.67614   0.00000  Uiso   1.00
N833   N     0.46433   0.53097   0.58107   0.00000  Uiso   1.00
O834   O     0.42596   0.51890   0.61683   0.00000  Uiso   1.00
O835   O     0.46389   0.56605   0.55593   0.00000  Uiso   1.00
N836   N     0.37964   0.46005   0.90747   0.00000  Uiso   1.00
O837   O     0.35983   0.49303   0.89427   0.00000  Uiso   1.00
O838   O     0.36920   0.42301   0.89364   0.00000  Uiso   1.00
Br839  Br    0.34742   0.42620   0.52612   0.00000  Uiso   1.00
Br840  Br    0.56190   0.42086   0.84904   0.00000  Uiso   1.00
O841   O     0.79512   0.56108   0.75001   0.00000  Uiso   1.00
O842   O     0.87157   0.56107   0.75001   0.00000  Uiso   1.00
C843   C     0.83327   0.57990   0.75017   0.00000  Uiso   1.00
O844   O     0.77613   0.50000   0.82681   0.00000  Uiso   1.00
O845   O     0.85258   0.49999   0.82681   0.00000  Uiso   1.00
C846   C     0.80834   0.49234   0.85027   0.00000  Uiso   1.00
Zn847  Zn    0.78229   0.50001   0.75000   0.00000  Uiso   1.00
Zn848  Zn    0.88438   0.49999   0.75000   0.00000  Uiso   1.00
O849   O     0.79510   0.43893   0.75000   0.00000  Uiso   1.00
O850   O     0.87154   0.43892   0.75000   0.00000  Uiso   1.00
O851   O     0.81409   0.50001   0.67319   0.00000  Uiso   1.00
O852   O     0.89053   0.50000   0.67319   0.00000  Uiso   1.00
C853   C     0.83377   0.42008   0.74832   0.00000  Uiso   1.00
C854   C     0.85880   0.50347   0.64840   0.00000  Uiso   1.00
C855   C     0.93380   0.49593   0.50628   0.00000  Uiso   1.00
H856   H     0.94825   0.45985   0.91132   0.00000  Uiso   1.00
H857   H     0.97055   0.49600   0.98343   0.00000  Uiso   1.00
C858   C     0.87342   0.50615   0.59018   0.00000  Uiso   1.00
C859   C     0.74832   0.46467   0.93404   0.00000  Uiso   1.00
C860   C     0.73750   0.45508   0.98863   0.00000  Uiso   1.00
C861   C     0.76999   0.46487   0.51589   0.00000  Uiso   1.00
C862   C     0.81637   0.47652   0.98730   0.00000  Uiso   1.00
C863   C     0.83028   0.47165   0.93179   0.00000  Uiso   1.00
C864   C     0.85081   0.48774   0.51204   0.00000  Uiso   1.00
C865   C     0.89917   0.48424   0.98295   0.00000  Uiso   1.00
C866   C     0.91206   0.46825   0.93134   0.00000  Uiso   1.00
C867   C     0.87786   0.46056   0.90622   0.00000  Uiso   1.00
C868   C     0.83850   0.50418   0.56379   0.00000  Uiso   1.00
C869   C     0.92149   0.50644   0.55994   0.00000  Uiso   1.00
C870   C     0.79524   0.47587   0.90552   0.00000  Uiso   1.00
H871   H     0.76038   0.45919   0.55831   0.00000  Uiso   1.00
C872   C     0.87201   0.64446   0.71472   0.00000  Uiso   1.00
H873   H     0.90112   0.62697   0.68851   0.00000  Uiso   1.00
C874   C     0.87223   0.35416   0.71275   0.00000  Uiso   1.00
C875   C     0.83398   0.37589   0.74704   0.00000  Uiso   1.00
C876   C     0.79516   0.35512   0.78099   0.00000  Uiso   1.00
H877   H     0.76567   0.37215   0.80720   0.00000  Uiso   1.00
C878   C     0.79472   0.64549   0.78178   0.00000  Uiso   1.00
H879   H     0.76488   0.62908   0.80828   0.00000  Uiso   1.00
C880   C     0.83344   0.62397   0.74918   0.00000  Uiso   1.00
C881   C     0.98377   0.47215   0.71970   0.00000  Uiso   1.00
H882   H     0.97194   0.45010   0.69525   0.00000  Uiso   1.00
C883   C     0.69806   0.47176   0.71982   0.00000  Uiso   1.00
N884   N     0.71426   0.50001   0.75002   0.00000  Uiso   1.00
C885   C     0.68262   0.52803   0.78032   0.00000  Uiso   1.00
H886   H     0.69423   0.55049   0.80459   0.00000  Uiso   1.00
C887   C     0.96804   0.52790   0.78048   0.00000  Uiso   1.00
H888   H     0.94355   0.55022   0.80496   0.00000  Uiso   1.00
N889   N     0.95239   0.49998   0.75001   0.00000  Uiso   1.00
Br890  Br    0.97167   0.52456   0.58748   0.00000  Uiso   1.00
Br891  Br    0.92319   0.38103   0.66003   0.00000  Uiso   1.00
Br892  Br    0.73820   0.43042   0.67614   0.00000  Uiso   1.00
N893   N     0.79766   0.53097   0.58107   0.00000  Uiso   1.00
O894   O     0.75929   0.51890   0.61683   0.00000  Uiso   1.00
O895   O     0.79722   0.56605   0.55593   0.00000  Uiso   1.00
N896   N     0.71297   0.46005   0.90747   0.00000  Uiso   1.00
O897   O     0.69317   0.49303   0.89427   0.00000  Uiso   1.00
O898   O     0.70254   0.42301   0.89364   0.00000  Uiso   1.00
Br899  Br    0.68075   0.42620   0.52612   0.00000  Uiso   1.00
Br900  Br    0.89523   0.42086   0.84904   0.00000  Uiso   1.00
O901   O     0.12846   0.89442   0.75001   0.00000  Uiso   1.00
O902   O     0.20490   0.89441   0.75001   0.00000  Uiso   1.00
C903   C     0.16661   0.91324   0.75017   0.00000  Uiso   1.00
O904   O     0.10947   0.83333   0.82681   0.00000  Uiso   1.00
O905   O     0.18591   0.83332   0.82681   0.00000  Uiso   1.00
C906   C     0.14167   0.82568   0.85027   0.00000  Uiso   1.00
Zn907  Zn    0.11562   0.83334   0.75000   0.00000  Uiso   1.00
Zn908  Zn    0.21771   0.83333   0.75000   0.00000  Uiso   1.00
O909   O     0.12843   0.77226   0.75000   0.00000  Uiso   1.00
O910   O     0.20488   0.77225   0.75000   0.00000  Uiso   1.00
O911   O     0.14742   0.83335   0.67319   0.00000  Uiso   1.00
O912   O     0.22387   0.83334   0.67319   0.00000  Uiso   1.00
C913   C     0.16710   0.75341   0.74832   0.00000  Uiso   1.00
C914   C     0.19213   0.83680   0.64840   0.00000  Uiso   1.00
C915   C     0.26713   0.82927   0.50628   0.00000  Uiso   1.00
H916   H     0.28158   0.79318   0.91132   0.00000  Uiso   1.00
H917   H     0.30388   0.82933   0.98343   0.00000  Uiso   1.00
C918   C     0.20676   0.83948   0.59018   0.00000  Uiso   1.00
C919   C     0.08165   0.79801   0.93404   0.00000  Uiso   1.00
C920   C     0.07083   0.78841   0.98863   0.00000  Uiso   1.00
C921   C     0.10332   0.79820   0.51589   0.00000  Uiso   1.00
C922   C     0.14970   0.80985   0.98730   0.00000  Uiso   1.00
C923   C     0.16361   0.80498   0.93179   0.00000  Uiso   1.00
C924   C     0.18414   0.82107   0.51204   0.00000  Uiso   1.00
C925   C     0.23250   0.81757   0.98295   0.00000  Uiso   1.00
C926   C     0.24539   0.80158   0.93134   0.00000  Uiso   1.00
C927   C     0.21119   0.79389   0.90622   0.00000  Uiso   1.00
C928   C     0.17183   0.83752   0.56379   0.00000  Uiso   1.00
C929   C     0.25483   0.83977   0.55994   0.00000  Uiso   1.00
C930   C     0.12857   0.80921   0.90552   0.00000  Uiso   1.00
H931   H     0.09371   0.79252   0.55831   0.00000  Uiso   1.00
C932   C     0.20535   0.97779   0.71472   0.00000  Uiso   1.00
H933   H     0.23445   0.96031   0.68851   0.00000  Uiso   1.00
C934   C     0.20556   0.68749   0.71275   0.00000  Uiso   1.00
C935   C     0.16732   0.70922   0.74704   0.00000  Uiso   1.00
C936   C     0.12849   0.68845   0.78099   0.00000  Uiso   1.00
H937   H     0.09900   0.70549   0.80720   0.00000  Uiso   1.00
C938   C     0.12805   0.97882   0.78178   0.00000  Uiso   1.00
H939   H     0.09821   0.96241   0.80828   0.00000  Uiso   1.00
C940   C     0.16678   0.95731   0.74918   0.00000  Uiso   1.00
C941   C     0.31711   0.80548   0.71970   0.00000  Uiso   1.00
H942   H     0.30527   0.78344   0.69525   0.00000  Uiso   1.00
C943   C     0.03140   0.80510   0.71982   0.00000  Uiso   1.00
N944   N     0.04760   0.83334   0.75002   0.00000  Uiso   1.00
C945   C     0.01595   0.86136   0.78032   0.00000  Uiso   1.00
H946   H     0.02757   0.88382   0.80459   0.00000  Uiso   1.00
C947   C     0.30137   0.86123   0.78048   0.00000  Uiso   1.00
H948   H     0.27688   0.88355   0.80496   0.00000  Uiso   1.00
N949   N     0.28573   0.83331   0.75001   0.00000  Uiso   1.00
Br950  Br    0.30500   0.85789   0.58748   0.00000  Uiso   1.00
Br951  Br    0.25652   0.71436   0.66003   0.00000  Uiso   1.00
Br952  Br    0.07153   0.76376   0.67614   0.00000  Uiso   1.00
N953   N     0.13100   0.86430   0.58107   0.00000  Uiso   1.00
O954   O     0.09262   0.85224   0.61683   0.00000  Uiso   1.00
O955   O     0.13056   0.89938   0.55593   0.00000  Uiso   1.00
N956   N     0.04630   0.79338   0.90747   0.00000  Uiso   1.00
O957   O     0.02650   0.82637   0.89427   0.00000  Uiso   1.00
O958   O     0.03587   0.75634   0.89364   0.00000  Uiso   1.00
Br959  Br    0.01408   0.75953   0.52612   0.00000  Uiso   1.00
Br960  Br    0.22857   0.75420   0.84904   0.00000  Uiso   1.00
O961   O     0.46179   0.89442   0.75001   0.00000  Uiso   1.00
O962   O     0.53823   0.89441   0.75001   0.00000  Uiso   1.00
C963   C     0.49994   0.91324   0.75017   0.00000  Uiso   1.00
O964   O     0.44280   0.83333   0.82681   0.00000  Uiso   1.00
O965   O     0.51924   0.83332   0.82681   0.00000  Uiso   1.00
C966   C     0.47500   0.82568   0.85027   0.00000  Uiso   1.00
Zn967  Zn    0.44896   0.83334   0.75000   0.00000  Uiso   1.00
Zn968  Zn    0.55104   0.83333   0.75000   0.00000  Uiso   1.00
O969   O     0.46177   0.77226   0.75000   0.00000  Uiso   1.00
O970   O     0.53821   0.77225   0.75000   0.00000  Uiso   1.00
O971   O     0.48076   0.83335   0.67319   0.00000  Uiso   1.00
O972   O     0.55720   0.83334   0.67319   0.00000  Uiso   1.00
C973   C     0.50044   0.75341   0.74832   0.00000  Uiso   1.00
C974   C     0.52547   0.83680   0.64840   0.00000  Uiso   1.00
C975   C     0.60046   0.82927   0.50628   0.00000  Uiso   1.00
H976   H     0.61491   0.79318   0.91132   0.00000  Uiso   1.00
H977   H     0.63722   0.82933   0.98343   0.00000  Uiso   1.00
C978   C     0.54009   0.83948   0.59018   0.00000  Uiso   1.00
C979   C     0.41499   0.79801   0.93404   0.00000  Uiso   1.00
C980   C     0.40417   0.78841   0.98863   0.00000  Uiso   1.00
C981   C     0.43666   0.79820   0.51589   0.00000  Uiso   1.00
C982   C     0.48304   0.80985   0.98730   0.00000  Uiso   1.00
C983   C     0.49694   0.80498   0.93179   0.00000  Uiso   1.00
C984   C     0.51748   0.82107   0.51204   0.00000  Uiso   1.00
C985   C     0.56583   0.81757   0.98295   0.00000  Uiso   1.00
C986   C     0.57873   0.80158   0.93134   0.00000  Uiso   1.00
C987   C     0.54453   0.79389   0.90622   0.00000  Uiso   1.00
C988   C     0.50516   0.83752   0.56379   0.00000  Uiso   1.00
C989   C     0.58816   0.83977   0.55994   0.00000  Uiso   1.00
C990   C     0.46190   0.80921   0.90552   0.00000  Uiso   1.00
H991   H     0.42704   0.79252   0.55831   0.00000  Uiso   1.00
C992   C     0.53868   0.97779   0.71472   0.00000  Uiso   1.00
H993   H     0.56778   0.96031   0.68851   0.00000  Uiso   1.00
C994   C     0.53889   0.68749   0.71275   0.00000  Uiso   1.00
C995   C     0.50065   0.70922   0.74704   0.00000  Uiso   1.00
C996   C     0.46183   0.68845   0.78099   0.00000  Uiso   1.00
H997   H     0.43234   0.70549   0.80720   0.00000  Uiso   1.00
C998   C     0.46139   0.97882   0.78178   0.00000  Uiso   1.00
H999   H     0.43155   0.96241   0.80828   0.00000  Uiso   1.00
C1000  C     0.50011   0.95731   0.74918   0.00000  Uiso   1.00
C1001  C     0.65044   0.80548   0.71970   0.00000  Uiso   1.00
H1002  H     0.63860   0.78344   0.69525   0.00000  Uiso   1.00
C1003  C     0.36473   0.80510   0.71982   0.00000  Uiso   1.00
N1004  N     0.38093   0.83334   0.75002   0.00000  Uiso   1.00
C1005  C     0.34928   0.86136   0.78032   0.00000  Uiso   1.00
H1006  H     0.36090   0.88382   0.80459   0.00000  Uiso   1.00
C1007  C     0.63471   0.86123   0.78048   0.00000  Uiso   1.00
H1008  H     0.61022   0.88355   0.80496   0.00000  Uiso   1.00
N1009  N     0.61906   0.83331   0.75001   0.00000  Uiso   1.00
Br1010 Br    0.63834   0.85789   0.58748   0.00000  Uiso   1.00
Br1011 Br    0.58986   0.71436   0.66003   0.00000  Uiso   1.00
Br1012 Br    0.40487   0.76376   0.67614   0.00000  Uiso   1.00
N1013  N     0.46433   0.86430   0.58107   0.00000  Uiso   1.00
O1014  O     0.42596   0.85224   0.61683   0.00000  Uiso   1.00
O1015  O     0.46389   0.89938   0.55593   0.00000  Uiso   1.00
N1016  N     0.37964   0.79338   0.90747   0.00000  Uiso   1.00
O1017  O     0.35983   0.82637   0.89427   0.00000  Uiso   1.00
O1018  O     0.36920   0.75634   0.89364   0.00000  Uiso   1.00
Br1019 Br    0.34742   0.75953   0.52612   0.00000  Uiso   1.00
Br1020 Br    0.56190   0.75420   0.84904   0.00000  Uiso   1.00
O1021  O     0.79512   0.89442   0.75001   0.00000  Uiso   1.00
O1022  O     0.87157   0.89441   0.75001   0.00000  Uiso   1.00
C1023  C     0.83327   0.91324   0.75017   0.00000  Uiso   1.00
O1024  O     0.77613   0.83333   0.82681   0.00000  Uiso   1.00
O1025  O     0.85258   0.83332   0.82681   0.00000  Uiso   1.00
C1026  C     0.80834   0.82568   0.85027   0.00000  Uiso   1.00
Zn1027 Zn    0.78229   0.83334   0.75000   0.00000  Uiso   1.00
Zn1028 Zn    0.88438   0.83333   0.75000   0.00000  Uiso   1.00
O1029  O     0.79510   0.77226   0.75000   0.00000  Uiso   1.00
O1030  O     0.87154   0.77225   0.75000   0.00000  Uiso   1.00
O1031  O     0.81409   0.83335   0.67319   0.00000  Uiso   1.00
O1032  O     0.89053   0.83334   0.67319   0.00000  Uiso   1.00
C1033  C     0.83377   0.75341   0.74832   0.00000  Uiso   1.00
C1034  C     0.85880   0.83680   0.64840   0.00000  Uiso   1.00
C1035  C     0.93380   0.82927   0.50628   0.00000  Uiso   1.00
H1036  H     0.94825   0.79318   0.91132   0.00000  Uiso   1.00
H1037  H     0.97055   0.82933   0.98343   0.00000  Uiso   1.00
C1038  C     0.87342   0.83948   0.59018   0.00000  Uiso   1.00
C1039  C     0.74832   0.79801   0.93404   0.00000  Uiso   1.00
C1040  C     0.73750   0.78841   0.98863   0.00000  Uiso   1.00
C1041  C     0.76999   0.79820   0.51589   0.00000  Uiso   1.00
C1042  C     0.81637   0.80985   0.98730   0.00000  Uiso   1.00
C1043  C     0.83028   0.80498   0.93179   0.00000  Uiso   1.00
C1044  C     0.85081   0.82107   0.51204   0.00000  Uiso   1.00
C1045  C     0.89917   0.81757   0.98295   0.00000  Uiso   1.00
C1046  C     0.91206   0.80158   0.93134   0.00000  Uiso   1.00
C1047  C     0.87786   0.79389   0.90622   0.00000  Uiso   1.00
C1048  C     0.83850   0.83752   0.56379   0.00000  Uiso   1.00
C1049  C     0.92149   0.83977   0.55994   0.00000  Uiso   1.00
C1050  C     0.79524   0.80921   0.90552   0.00000  Uiso   1.00
H1051  H     0.76038   0.79252   0.55831   0.00000  Uiso   1.00
C1052  C     0.87201   0.97779   0.71472   0.00000  Uiso   1.00
H1053  H     0.90112   0.96031   0.68851   0.00000  Uiso   1.00
C1054  C     0.87223   0.68749   0.71275   0.00000  Uiso   1.00
C1055  C     0.83398   0.70922   0.74704   0.00000  Uiso   1.00
C1056  C     0.79516   0.68845   0.78099   0.00000  Uiso   1.00
H1057  H     0.76567   0.70549   0.80720   0.00000  Uiso   1.00
C1058  C     0.79472   0.97882   0.78178   0.00000  Uiso   1.00
H1059  H     0.76488   0.96241   0.80828   0.00000  Uiso   1.00
C1060  C     0.83344   0.95731   0.74918   0.00000  Uiso   1.00
C1061  C     0.98377   0.80548   0.71970   0.00000  Uiso   1.00
H1062  H     0.97194   0.78344   0.69525   0.00000  Uiso   1.00
C1063  C     0.69806   0.80510   0.71982   0.00000  Uiso   1.00
N1064  N     0.71426   0.83334   0.75002   0.00000  Uiso   1.00
C1065  C     0.68262   0.86136   0.78032   0.00000  Uiso   1.00
H1066  H     0.69423   0.88382   0.80459   0.00000  Uiso   1.00
C1067  C     0.96804   0.86123   0.78048   0.00000  Uiso   1.00
H1068  H     0.94355   0.88355   0.80496   0.00000  Uiso   1.00
N1069  N     0.95239   0.83331   0.75001   0.00000  Uiso   1.00
Br1070 Br    0.97167   0.85789   0.58748   0.00000  Uiso   1.00
Br1071 Br    0.92319   0.71436   0.66003   0.00000  Uiso   1.00
Br1072 Br    0.73820   0.76376   0.67614   0.00000  Uiso   1.00
N1073  N     0.79766   0.86430   0.58107   0.00000  Uiso   1.00
O1074  O     0.75929   0.85224   0.61683   0.00000  Uiso   1.00
O1075  O     0.79722   0.89938   0.55593   0.00000  Uiso   1.00
N1076  N     0.71297   0.79338   0.90747   0.00000  Uiso   1.00
O1077  O     0.69317   0.82637   0.89427   0.00000  Uiso   1.00
O1078  O     0.70254   0.75634   0.89364   0.00000  Uiso   1.00
Br1079 Br    0.68075   0.75953   0.52612   0.00000  Uiso   1.00
Br1080 Br    0.89523   0.75420   0.84904   0.00000  Uiso   1.00
loop_
_geom_bond_atom_site_label_1
_geom_bond_atom_site_label_2
_geom_bond_distance
_geom_bond_site_symmetry_2
_ccdc_geom_bond_type
O1     Zn7     1.987   .     S
O1     C3      1.283   .     A
O2     C3      1.283   .     A
O2     Zn8     1.986   .     S
C3     C40     1.407   .     S
O4     Zn7     1.969   .     S
O4     C6      1.304   .     A
O5     Zn8     1.955   .     S
O5     C6      1.296   .     A
C6     C30     1.481   .     S
Zn7    N44     2.017   .     S
Zn7    O11     1.955   .     S
Zn7    O9      1.986   .     S
Zn8    O12     1.969   .     S
Zn8    N49     2.017   .     S
Zn8    O10     1.987   .     S
O9     C13     1.284   .     A
O10    C13     1.284   .     A
O11    C14     1.296   .     A
O12    C14     1.298   .     A
C13    C35     1.411   .     S
C14    C18     1.461   .     S
C15    C29     1.387   .     A
C15    H557    1.077   1_554 S
C15    C565    1.394   1_554 S
H16    C26     1.079   .     S
H17    C555    1.077   .     S
C18    C29     1.411   .     A
C18    C28     1.408   .     A
C19    N56     1.429   .     S
C19    C30     1.416   .     A
C19    C20     1.405   .     A
C20    C561    1.396   .     S
C20    Br599   1.915   .     S
C21    H31     1.079   .     S
C21    C560    1.396   1_554 S
C21    C562    1.407   1_554 S
C22    C23     1.400   .     A
C22    C561    1.407   .     S
C22    C564    1.410   .     S
C23    C27     1.415   .     A
C23    C30     1.414   .     A
C24    C28     1.400   .     A
C24    C562    1.410   1_554 S
C24    C565    1.414   1_554 S
C25    C26     1.391   .     A
C25    C555    1.394   .     S
C25    C564    1.414   .     S
C26    C27     1.386   .     A
C27    Br60    1.914   .     S
C28    N53     1.441   .     S
C29    Br50    1.927   .     S
C32    H33     1.084   .     S
C32    C40     1.393   .     A
C32    C214    1.374   .     S
C34    Br51    1.921   .     S
C34    C35     1.403   .     A
C34    C392    1.374   1_545 S
C35    C36     1.396   .     A
C36    H37     1.084   .     S
C36    C398    1.371   1_545 S
C38    C40     1.392   .     A
C38    H39     1.084   .     S
C38    C216    1.371   .     S
C41    H42     1.079   .     S
C41    N49     1.359   .     A
C41    C103    1.414   .     S
C43    N44     1.378   .     A
C43    Br52    1.913   .     S
C43    C161    1.414   1_455 S
N44    C45     1.367   .     A
C45    H46     1.082   .     S
C45    C167    1.420   1_455 S
C47    N49     1.368   .     A
C47    H48     1.082   .     S
C47    C105    1.420   .     S
N53    O55     1.301   .     A
N53    O54     1.300   .     A
N56    O57     1.301   .     A
N56    O58     1.301   .     A
Br59   C560    1.915   1_554 S
O61    Zn67    1.987   .     S
O61    C63     1.283   .     A
O62    C63     1.283   .     A
O62    Zn68    1.986   .     S
C63    C100    1.407   .     S
O64    Zn67    1.969   .     S
O64    C66     1.304   .     A
O65    Zn68    1.955   .     S
O65    C66     1.296   .     A
C66    C90     1.481   .     S
Zn67   N104    2.017   .     S
Zn67   O71     1.955   .     S
Zn67   O69     1.986   .     S
Zn68   O72     1.969   .     S
Zn68   N109    2.017   .     S
Zn68   O70     1.987   .     S
O69    C73     1.284   .     A
O70    C73     1.284   .     A
O71    C74     1.296   .     A
O72    C74     1.298   .     A
C73    C95     1.411   .     S
C74    C78     1.461   .     S
C75    C89     1.387   .     A
C75    H617    1.077   1_554 S
C75    C625    1.394   1_554 S
H76    C86     1.079   .     S
H77    C615    1.077   .     S
C78    C89     1.411   .     A
C78    C88     1.408   .     A
C79    N116    1.429   .     S
C79    C90     1.416   .     A
C79    C80     1.405   .     A
C80    C621    1.396   .     S
C80    Br659   1.915   .     S
C81    H91     1.079   .     S
C81    C620    1.396   1_554 S
C81    C622    1.407   1_554 S
C82    C83     1.400   .     A
C82    C621    1.407   .     S
C82    C624    1.410   .     S
C83    C87     1.415   .     A
C83    C90     1.414   .     A
C84    C88     1.400   .     A
C84    C622    1.410   1_554 S
C84    C625    1.414   1_554 S
C85    C86     1.391   .     A
C85    C615    1.394   .     S
C85    C624    1.414   .     S
C86    C87     1.386   .     A
C87    Br120   1.914   .     S
C88    N113    1.441   .     S
C89    Br110   1.927   .     S
C92    H93     1.084   .     S
C92    C100    1.393   .     A
C92    C274    1.374   .     S
C94    Br111   1.921   .     S
C94    C95     1.403   .     A
C94    C452    1.374   1_545 S
C95    C96     1.396   .     A
C96    H97     1.084   .     S
C96    C458    1.371   1_545 S
C98    C100    1.392   .     A
C98    H99     1.084   .     S
C98    C276    1.371   .     S
C101   H102    1.079   .     S
C101   N109    1.359   .     A
C101   C163    1.414   .     S
C103   N104    1.378   .     A
C103   Br112   1.913   .     S
N104   C105    1.367   .     A
C105   H106    1.082   .     S
C107   N109    1.368   .     A
C107   H108    1.082   .     S
C107   C165    1.420   .     S
N113   O115    1.301   .     A
N113   O114    1.300   .     A
N116   O117    1.301   .     A
N116   O118    1.301   .     A
Br119  C620    1.915   1_554 S
O121   Zn127   1.987   .     S
O121   C123    1.283   .     A
O122   C123    1.283   .     A
O122   Zn128   1.986   .     S
C123   C160    1.407   .     S
O124   Zn127   1.969   .     S
O124   C126    1.304   .     A
O125   Zn128   1.955   .     S
O125   C126    1.296   .     A
C126   C150    1.481   .     S
Zn127  N164    2.017   .     S
Zn127  O131    1.955   .     S
Zn127  O129    1.986   .     S
Zn128  O132    1.969   .     S
Zn128  N169    2.017   .     S
Zn128  O130    1.987   .     S
O129   C133    1.284   .     A
O130   C133    1.284   .     A
O131   C134    1.296   .     A
O132   C134    1.298   .     A
C133   C155    1.411   .     S
C134   C138    1.461   .     S
C135   C149    1.387   .     A
C135   H677    1.077   1_554 S
C135   C685    1.394   1_554 S
H136   C146    1.079   .     S
H137   C675    1.077   .     S
C138   C149    1.411   .     A
C138   C148    1.408   .     A
C139   N176    1.429   .     S
C139   C150    1.416   .     A
C139   C140    1.405   .     A
C140   C681    1.396   .     S
C140   Br719   1.915   .     S
C141   H151    1.079   .     S
C141   C680    1.396   1_554 S
C141   C682    1.407   1_554 S
C142   C143    1.400   .     A
C142   C681    1.407   .     S
C142   C684    1.410   .     S
C143   C147    1.415   .     A
C143   C150    1.414   .     A
C144   C148    1.400   .     A
C144   C682    1.410   1_554 S
C144   C685    1.414   1_554 S
C145   C146    1.391   .     A
C145   C675    1.394   .     S
C145   C684    1.414   .     S
C146   C147    1.386   .     A
C147   Br180   1.914   .     S
C148   N173    1.441   .     S
C149   Br170   1.927   .     S
C152   H153    1.084   .     S
C152   C160    1.393   .     A
C152   C334    1.374   .     S
C154   Br171   1.921   .     S
C154   C155    1.403   .     A
C154   C512    1.374   1_545 S
C155   C156    1.396   .     A
C156   H157    1.084   .     S
C156   C518    1.371   1_545 S
C158   C160    1.392   .     A
C158   H159    1.084   .     S
C158   C336    1.371   .     S
C161   H162    1.079   .     S
C161   N169    1.359   .     A
C161   C43     1.414   1_655 S
C163   N164    1.378   .     A
C163   Br172   1.913   .     S
N164   C165    1.367   .     A
C165   H166    1.082   .     S
C167   N169    1.368   .     A
C167   H168    1.082   .     S
C167   C45     1.420   1_655 S
N173   O175    1.301   .     A
N173   O174    1.300   .     A
N176   O177    1.301   .     A
N176   O178    1.301   .     A
Br179  C680    1.915   1_554 S
O181   Zn187   1.987   .     S
O181   C183    1.283   .     A
O182   C183    1.283   .     A
O182   Zn188   1.986   .     S
C183   C220    1.407   .     S
O184   Zn187   1.969   .     S
O184   C186    1.304   .     A
O185   Zn188   1.955   .     S
O185   C186    1.296   .     A
C186   C210    1.481   .     S
Zn187  N224    2.017   .     S
Zn187  O191    1.955   .     S
Zn187  O189    1.986   .     S
Zn188  O192    1.969   .     S
Zn188  N229    2.017   .     S
Zn188  O190    1.987   .     S
O189   C193    1.284   .     A
O190   C193    1.284   .     A
O191   C194    1.296   .     A
O192   C194    1.298   .     A
C193   C215    1.411   .     S
C194   C198    1.461   .     S
C195   C209    1.387   .     A
C195   H737    1.077   1_554 S
C195   C745    1.394   1_554 S
H196   C206    1.079   .     S
H197   C735    1.077   .     S
C198   C209    1.411   .     A
C198   C208    1.408   .     A
C199   N236    1.429   .     S
C199   C210    1.416   .     A
C199   C200    1.405   .     A
C200   C741    1.396   .     S
C200   Br779   1.915   .     S
C201   H211    1.079   .     S
C201   C740    1.396   1_554 S
C201   C742    1.407   1_554 S
C202   C203    1.400   .     A
C202   C741    1.407   .     S
C202   C744    1.410   .     S
C203   C207    1.415   .     A
C203   C210    1.414   .     A
C204   C208    1.400   .     A
C204   C742    1.410   1_554 S
C204   C745    1.414   1_554 S
C205   C206    1.391   .     A
C205   C735    1.394   .     S
C205   C744    1.414   .     S
C206   C207    1.386   .     A
C207   Br240   1.914   .     S
C208   N233    1.441   .     S
C209   Br230   1.927   .     S
C212   H213    1.084   .     S
C212   C220    1.393   .     A
C212   C394    1.374   .     S
C214   Br231   1.921   .     S
C214   C215    1.403   .     A
C215   C216    1.396   .     A
C216   H217    1.084   .     S
C218   C220    1.392   .     A
C218   H219    1.084   .     S
C218   C396    1.371   .     S
C221   H222    1.079   .     S
C221   N229    1.359   .     A
C221   C283    1.414   .     S
C223   N224    1.378   .     A
C223   Br232   1.913   .     S
C223   C341    1.414   1_455 S
N224   C225    1.367   .     A
C225   H226    1.082   .     S
C225   C347    1.420   1_455 S
C227   N229    1.368   .     A
C227   H228    1.082   .     S
C227   C285    1.420   .     S
N233   O235    1.301   .     A
N233   O234    1.300   .     A
N236   O237    1.301   .     A
N236   O238    1.301   .     A
Br239  C740    1.915   1_554 S
O241   Zn247   1.987   .     S
O241   C243    1.283   .     A
O242   C243    1.283   .     A
O242   Zn248   1.986   .     S
C243   C280    1.407   .     S
O244   Zn247   1.969   .     S
O244   C246    1.304   .     A
O245   Zn248   1.955   .     S
O245   C246    1.296   .     A
C246   C270    1.481   .     S
Zn247  N284    2.017   .     S
Zn247  O251    1.955   .     S
Zn247  O249    1.986   .     S
Zn248  O252    1.969   .     S
Zn248  N289    2.017   .     S
Zn248  O250    1.987   .     S
O249   C253    1.284   .     A
O250   C253    1.284   .     A
O251   C254    1.296   .     A
O252   C254    1.298   .     A
C253   C275    1.411   .     S
C254   C258    1.461   .     S
C255   C269    1.387   .     A
C255   H797    1.077   1_554 S
C255   C805    1.394   1_554 S
H256   C266    1.079   .     S
H257   C795    1.077   .     S
C258   C269    1.411   .     A
C258   C268    1.408   .     A
C259   N296    1.429   .     S
C259   C270    1.416   .     A
C259   C260    1.405   .     A
C260   C801    1.396   .     S
C260   Br839   1.915   .     S
C261   H271    1.079   .     S
C261   C800    1.396   1_554 S
C261   C802    1.407   1_554 S
C262   C263    1.400   .     A
C262   C801    1.407   .     S
C262   C804    1.410   .     S
C263   C267    1.415   .     A
C263   C270    1.414   .     A
C264   C268    1.400   .     A
C264   C802    1.410   1_554 S
C264   C805    1.414   1_554 S
C265   C266    1.391   .     A
C265   C795    1.394   .     S
C265   C804    1.414   .     S
C266   C267    1.386   .     A
C267   Br300   1.914   .     S
C268   N293    1.441   .     S
C269   Br290   1.927   .     S
C272   H273    1.084   .     S
C272   C280    1.393   .     A
C272   C454    1.374   .     S
C274   Br291   1.921   .     S
C274   C275    1.403   .     A
C275   C276    1.396   .     A
C276   H277    1.084   .     S
C278   C280    1.392   .     A
C278   H279    1.084   .     S
C278   C456    1.371   .     S
C281   H282    1.079   .     S
C281   N289    1.359   .     A
C281   C343    1.414   .     S
C283   N284    1.378   .     A
C283   Br292   1.913   .     S
N284   C285    1.367   .     A
C285   H286    1.082   .     S
C287   N289    1.368   .     A
C287   H288    1.082   .     S
C287   C345    1.420   .     S
N293   O295    1.301   .     A
N293   O294    1.300   .     A
N296   O297    1.301   .     A
N296   O298    1.301   .     A
Br299  C800    1.915   1_554 S
O301   Zn307   1.987   .     S
O301   C303    1.283   .     A
O302   C303    1.283   .     A
O302   Zn308   1.986   .     S
C303   C340    1.407   .     S
O304   Zn307   1.969   .     S
O304   C306    1.304   .     A
O305   Zn308   1.955   .     S
O305   C306    1.296   .     A
C306   C330    1.481   .     S
Zn307  N344    2.017   .     S
Zn307  O311    1.955   .     S
Zn307  O309    1.986   .     S
Zn308  O312    1.969   .     S
Zn308  N349    2.017   .     S
Zn308  O310    1.987   .     S
O309   C313    1.284   .     A
O310   C313    1.284   .     A
O311   C314    1.296   .     A
O312   C314    1.298   .     A
C313   C335    1.411   .     S
C314   C318    1.461   .     S
C315   C329    1.387   .     A
C315   H857    1.077   1_554 S
C315   C865    1.394   1_554 S
H316   C326    1.079   .     S
H317   C855    1.077   .     S
C318   C329    1.411   .     A
C318   C328    1.408   .     A
C319   N356    1.429   .     S
C319   C330    1.416   .     A
C319   C320    1.405   .     A
C320   C861    1.396   .     S
C320   Br899   1.915   .     S
C321   H331    1.079   .     S
C321   C860    1.396   1_554 S
C321   C862    1.407   1_554 S
C322   C323    1.400   .     A
C322   C861    1.407   .     S
C322   C864    1.410   .     S
C323   C327    1.415   .     A
C323   C330    1.414   .     A
C324   C328    1.400   .     A
C324   C862    1.410   1_554 S
C324   C865    1.414   1_554 S
C325   C326    1.391   .     A
C325   C855    1.394   .     S
C325   C864    1.414   .     S
C326   C327    1.386   .     A
C327   Br360   1.914   .     S
C328   N353    1.441   .     S
C329   Br350   1.927   .     S
C332   H333    1.084   .     S
C332   C340    1.393   .     A
C332   C514    1.374   .     S
C334   Br351   1.921   .     S
C334   C335    1.403   .     A
C335   C336    1.396   .     A
C336   H337    1.084   .     S
C338   C340    1.392   .     A
C338   H339    1.084   .     S
C338   C516    1.371   .     S
C341   H342    1.079   .     S
C341   N349    1.359   .     A
C341   C223    1.414   1_655 S
C343   N344    1.378   .     A
C343   Br352   1.913   .     S
N344   C345    1.367   .     A
C345   H346    1.082   .     S
C347   N349    1.368   .     A
C347   H348    1.082   .     S
C347   C225    1.420   1_655 S
N353   O355    1.301   .     A
N353   O354    1.300   .     A
N356   O357    1.301   .     A
N356   O358    1.301   .     A
Br359  C860    1.915   1_554 S
O361   Zn367   1.987   .     S
O361   C363    1.283   .     A
O362   C363    1.283   .     A
O362   Zn368   1.986   .     S
C363   C400    1.407   .     S
O364   Zn367   1.969   .     S
O364   C366    1.304   .     A
O365   Zn368   1.955   .     S
O365   C366    1.296   .     A
C366   C390    1.481   .     S
Zn367  N404    2.017   .     S
Zn367  O371    1.955   .     S
Zn367  O369    1.986   .     S
Zn368  O372    1.969   .     S
Zn368  N409    2.017   .     S
Zn368  O370    1.987   .     S
O369   C373    1.284   .     A
O370   C373    1.284   .     A
O371   C374    1.296   .     A
O372   C374    1.298   .     A
C373   C395    1.411   .     S
C374   C378    1.461   .     S
C375   C389    1.387   .     A
C375   H917    1.077   1_554 S
C375   C925    1.394   1_554 S
H376   C386    1.079   .     S
H377   C915    1.077   .     S
C378   C389    1.411   .     A
C378   C388    1.408   .     A
C379   N416    1.429   .     S
C379   C390    1.416   .     A
C379   C380    1.405   .     A
C380   C921    1.396   .     S
C380   Br959   1.915   .     S
C381   H391    1.079   .     S
C381   C920    1.396   1_554 S
C381   C922    1.407   1_554 S
C382   C383    1.400   .     A
C382   C921    1.407   .     S
C382   C924    1.410   .     S
C383   C387    1.415   .     A
C383   C390    1.414   .     A
C384   C388    1.400   .     A
C384   C922    1.410   1_554 S
C384   C925    1.414   1_554 S
C385   C386    1.391   .     A
C385   C915    1.394   .     S
C385   C924    1.414   .     S
C386   C387    1.386   .     A
C387   Br420   1.914   .     S
C388   N413    1.441   .     S
C389   Br410   1.927   .     S
C392   H393    1.084   .     S
C392   C400    1.393   .     A
C392   C34     1.374   1_565 S
C394   Br411   1.921   .     S
C394   C395    1.403   .     A
C395   C396    1.396   .     A
C396   H397    1.084   .     S
C398   C400    1.392   .     A
C398   H399    1.084   .     S
C398   C36     1.371   1_565 S
C401   H402    1.079   .     S
C401   N409    1.359   .     A
C401   C463    1.414   .     S
C403   N404    1.378   .     A
C403   Br412   1.913   .     S
C403   C521    1.414   1_455 S
N404   C405    1.367   .     A
C405   H406    1.082   .     S
C405   C527    1.420   1_455 S
C407   N409    1.368   .     A
C407   H408    1.082   .     S
C407   C465    1.420   .     S
N413   O415    1.301   .     A
N413   O414    1.300   .     A
N416   O417    1.301   .     A
N416   O418    1.301   .     A
Br419  C920    1.915   1_554 S
O421   Zn427   1.987   .     S
O421   C423    1.283   .     A
O422   C423    1.283   .     A
O422   Zn428   1.986   .     S
C423   C460    1.407   .     S
O424   Zn427   1.969   .     S
O424   C426    1.304   .     A
O425   Zn428   1.955   .     S
O425   C426    1.296   .     A
C426   C450    1.481   .     S
Zn427  N464    2.017   .     S
Zn427  O431    1.955   .     S
Zn427  O429    1.986   .     S
Zn428  O432    1.969   .     S
Zn428  N469    2.017   .     S
Zn428  O430    1.987   .     S
O429   C433    1.284   .     A
O430   C433    1.284   .     A
O431   C434    1.296   .     A
O432   C434    1.298   .     A
C433   C455    1.411   .     S
C434   C438    1.461   .     S
C435   C449    1.387   .     A
C435   H977    1.077   1_554 S
C435   C985    1.394   1_554 S
H436   C446    1.079   .     S
H437   C975    1.077   .     S
C438   C449    1.411   .     A
C438   C448    1.408   .     A
C439   N476    1.429   .     S
C439   C450    1.416   .     A
C439   C440    1.405   .     A
C440   C981    1.396   .     S
C440   Br1019  1.915   .     S
C441   H451    1.079   .     S
C441   C980    1.396   1_554 S
C441   C982    1.407   1_554 S
C442   C443    1.400   .     A
C442   C981    1.407   .     S
C442   C984    1.410   .     S
C443   C447    1.415   .     A
C443   C450    1.414   .     A
C444   C448    1.400   .     A
C444   C982    1.410   1_554 S
C444   C985    1.414   1_554 S
C445   C446    1.391   .     A
C445   C975    1.394   .     S
C445   C984    1.414   .     S
C446   C447    1.386   .     A
C447   Br480   1.914   .     S
C448   N473    1.441   .     S
C449   Br470   1.927   .     S
C452   H453    1.084   .     S
C452   C460    1.393   .     A
C452   C94     1.374   1_565 S
C454   Br471   1.921   .     S
C454   C455    1.403   .     A
C455   C456    1.396   .     A
C456   H457    1.084   .     S
C458   C460    1.392   .     A
C458   H459    1.084   .     S
C458   C96     1.371   1_565 S
C461   H462    1.079   .     S
C461   N469    1.359   .     A
C461   C523    1.414   .     S
C463   N464    1.378   .     A
C463   Br472   1.913   .     S
N464   C465    1.367   .     A
C465   H466    1.082   .     S
C467   N469    1.368   .     A
C467   H468    1.082   .     S
C467   C525    1.420   .     S
N473   O475    1.301   .     A
N473   O474    1.300   .     A
N476   O477    1.301   .     A
N476   O478    1.301   .     A
Br479  C980    1.915   1_554 S
O481   Zn487   1.987   .     S
O481   C483    1.283   .     A
O482   C483    1.283   .     A
O482   Zn488   1.986   .     S
C483   C520    1.407   .     S
O484   Zn487   1.969   .     S
O484   C486    1.304   .     A
O485   Zn488   1.955   .     S
O485   C486    1.296   .     A
C486   C510    1.481   .     S
Zn487  N524    2.017   .     S
Zn487  O491    1.955   .     S
Zn487  O489    1.986   .     S
Zn488  O492    1.969   .     S
Zn488  N529    2.017   .     S
Zn488  O490    1.987   .     S
O489   C493    1.284   .     A
O490   C493    1.284   .     A
O491   C494    1.296   .     A
O492   C494    1.298   .     A
C493   C515    1.411   .     S
C494   C498    1.461   .     S
C495   C509    1.387   .     A
C495   H1037   1.077   1_554 S
C495   C1045   1.394   1_554 S
H496   C506    1.079   .     S
H497   C1035   1.077   .     S
C498   C509    1.411   .     A
C498   C508    1.408   .     A
C499   N536    1.429   .     S
C499   C510    1.416   .     A
C499   C500    1.405   .     A
C500   C1041   1.396   .     S
C500   Br1079  1.915   .     S
C501   H511    1.079   .     S
C501   C1040   1.396   1_554 S
C501   C1042   1.407   1_554 S
C502   C503    1.400   .     A
C502   C1041   1.407   .     S
C502   C1044   1.410   .     S
C503   C507    1.415   .     A
C503   C510    1.414   .     A
C504   C508    1.400   .     A
C504   C1042   1.410   1_554 S
C504   C1045   1.414   1_554 S
C505   C506    1.391   .     A
C505   C1035   1.394   .     S
C505   C1044   1.414   .     S
C506   C507    1.386   .     A
C507   Br540   1.914   .     S
C508   N533    1.441   .     S
C509   Br530   1.927   .     S
C512   H513    1.084   .     S
C512   C520    1.393   .     A
C512   C154    1.374   1_565 S
C514   Br531   1.921   .     S
C514   C515    1.403   .     A
C515   C516    1.396   .     A
C516   H517    1.084   .     S
C518   C520    1.392   .     A
C518   H519    1.084   .     S
C518   C156    1.371   1_565 S
C521   H522    1.079   .     S
C521   N529    1.359   .     A
C521   C403    1.414   1_655 S
C523   N524    1.378   .     A
C523   Br532   1.913   .     S
N524   C525    1.367   .     A
C525   H526    1.082   .     S
C527   N529    1.368   .     A
C527   H528    1.082   .     S
C527   C405    1.420   1_655 S
N533   O535    1.301   .     A
N533   O534    1.300   .     A
N536   O537    1.301   .     A
N536   O538    1.301   .     A
Br539  C1040   1.915   1_554 S
O541   Zn547   1.987   .     S
O541   C543    1.283   .     A
O542   C543    1.283   .     A
O542   Zn548   1.986   .     S
C543   C580    1.407   .     S
O544   Zn547   1.969   .     S
O544   C546    1.304   .     A
O545   Zn548   1.955   .     S
O545   C546    1.296   .     A
C546   C570    1.481   .     S
Zn547  N584    2.017   .     S
Zn547  O551    1.955   .     S
Zn547  O549    1.986   .     S
Zn548  O552    1.969   .     S
Zn548  N589    2.017   .     S
Zn548  O550    1.987   .     S
O549   C553    1.284   .     A
O550   C553    1.284   .     A
O551   C554    1.296   .     A
O552   C554    1.298   .     A
C553   C575    1.411   .     S
C554   C558    1.461   .     S
C555   C569    1.387   .     A
H556   C566    1.079   .     S
H557   C15     1.077   1_556 S
C558   C569    1.411   .     A
C558   C568    1.408   .     A
C559   N596    1.429   .     S
C559   C570    1.416   .     A
C559   C560    1.405   .     A
C560   C21     1.396   1_556 S
C560   Br59    1.915   1_556 S
C561   H571    1.079   .     S
C562   C563    1.400   .     A
C562   C21     1.407   1_556 S
C562   C24     1.410   1_556 S
C563   C567    1.415   .     A
C563   C570    1.414   .     A
C564   C568    1.400   .     A
C565   C566    1.391   .     A
C565   C15     1.394   1_556 S
C565   C24     1.414   1_556 S
C566   C567    1.386   .     A
C567   Br600   1.914   .     S
C568   N593    1.441   .     S
C569   Br590   1.927   .     S
C572   H573    1.084   .     S
C572   C580    1.393   .     A
C572   C754    1.374   .     S
C574   Br591   1.921   .     S
C574   C575    1.403   .     A
C574   C932    1.374   1_545 S
C575   C576    1.396   .     A
C576   H577    1.084   .     S
C576   C938    1.371   1_545 S
C578   C580    1.392   .     A
C578   H579    1.084   .     S
C578   C756    1.371   .     S
C581   H582    1.079   .     S
C581   N589    1.359   .     A
C581   C643    1.414   .     S
C583   N584    1.378   .     A
C583   Br592   1.913   .     S
C583   C701    1.414   1_455 S
N584   C585    1.367   .     A
C585   H586    1.082   .     S
C585   C707    1.420   1_455 S
C587   N589    1.368   .     A
C587   H588    1.082   .     S
C587   C645    1.420   .     S
N593   O595    1.301   .     A
N593   O594    1.300   .     A
N596   O597    1.301   .     A
N596   O598    1.301   .     A
O601   Zn607   1.987   .     S
O601   C603    1.283   .     A
O602   C603    1.283   .     A
O602   Zn608   1.986   .     S
C603   C640    1.407   .     S
O604   Zn607   1.969   .     S
O604   C606    1.304   .     A
O605   Zn608   1.955   .     S
O605   C606    1.296   .     A
C606   C630    1.481   .     S
Zn607  N644    2.017   .     S
Zn607  O611    1.955   .     S
Zn607  O609    1.986   .     S
Zn608  O612    1.969   .     S
Zn608  N649    2.017   .     S
Zn608  O610    1.987   .     S
O609   C613    1.284   .     A
O610   C613    1.284   .     A
O611   C614    1.296   .     A
O612   C614    1.298   .     A
C613   C635    1.411   .     S
C614   C618    1.461   .     S
C615   C629    1.387   .     A
H616   C626    1.079   .     S
H617   C75     1.077   1_556 S
C618   C629    1.411   .     A
C618   C628    1.408   .     A
C619   N656    1.429   .     S
C619   C630    1.416   .     A
C619   C620    1.405   .     A
C620   C81     1.396   1_556 S
C620   Br119   1.915   1_556 S
C621   H631    1.079   .     S
C622   C623    1.400   .     A
C622   C81     1.407   1_556 S
C622   C84     1.410   1_556 S
C623   C627    1.415   .     A
C623   C630    1.414   .     A
C624   C628    1.400   .     A
C625   C626    1.391   .     A
C625   C75     1.394   1_556 S
C625   C84     1.414   1_556 S
C626   C627    1.386   .     A
C627   Br660   1.914   .     S
C628   N653    1.441   .     S
C629   Br650   1.927   .     S
C632   H633    1.084   .     S
C632   C640    1.393   .     A
C632   C814    1.374   .     S
C634   Br651   1.921   .     S
C634   C635    1.403   .     A
C634   C992    1.374   1_545 S
C635   C636    1.396   .     A
C636   H637    1.084   .     S
C636   C998    1.371   1_545 S
C638   C640    1.392   .     A
C638   H639    1.084   .     S
C638   C816    1.371   .     S
C641   H642    1.079   .     S
C641   N649    1.359   .     A
C641   C703    1.414   .     S
C643   N644    1.378   .     A
C643   Br652   1.913   .     S
N644   C645    1.367   .     A
C645   H646    1.082   .     S
C647   N649    1.368   .     A
C647   H648    1.082   .     S
C647   C705    1.420   .     S
N653   O655    1.301   .     A
N653   O654    1.300   .     A
N656   O657    1.301   .     A
N656   O658    1.301   .     A
O661   Zn667   1.987   .     S
O661   C663    1.283   .     A
O662   C663    1.283   .     A
O662   Zn668   1.986   .     S
C663   C700    1.407   .     S
O664   Zn667   1.969   .     S
O664   C666    1.304   .     A
O665   Zn668   1.955   .     S
O665   C666    1.296   .     A
C666   C690    1.481   .     S
Zn667  N704    2.017   .     S
Zn667  O671    1.955   .     S
Zn667  O669    1.986   .     S
Zn668  O672    1.969   .     S
Zn668  N709    2.017   .     S
Zn668  O670    1.987   .     S
O669   C673    1.284   .     A
O670   C673    1.284   .     A
O671   C674    1.296   .     A
O672   C674    1.298   .     A
C673   C695    1.411   .     S
C674   C678    1.461   .     S
C675   C689    1.387   .     A
H676   C686    1.079   .     S
H677   C135    1.077   1_556 S
C678   C689    1.411   .     A
C678   C688    1.408   .     A
C679   N716    1.429   .     S
C679   C690    1.416   .     A
C679   C680    1.405   .     A
C680   C141    1.396   1_556 S
C680   Br179   1.915   1_556 S
C681   H691    1.079   .     S
C682   C683    1.400   .     A
C682   C141    1.407   1_556 S
C682   C144    1.410   1_556 S
C683   C687    1.415   .     A
C683   C690    1.414   .     A
C684   C688    1.400   .     A
C685   C686    1.391   .     A
C685   C135    1.394   1_556 S
C685   C144    1.414   1_556 S
C686   C687    1.386   .     A
C687   Br720   1.914   .     S
C688   N713    1.441   .     S
C689   Br710   1.927   .     S
C692   H693    1.084   .     S
C692   C700    1.393   .     A
C692   C874    1.374   .     S
C694   Br711   1.921   .     S
C694   C695    1.403   .     A
C694   C1052   1.374   1_545 S
C695   C696    1.396   .     A
C696   H697    1.084   .     S
C696   C1058   1.371   1_545 S
C698   C700    1.392   .     A
C698   H699    1.084   .     S
C698   C876    1.371   .     S
C701   H702    1.079   .     S
C701   N709    1.359   .     A
C701   C583    1.414   1_655 S
C703   N704    1.378   .     A
C703   Br712   1.913   .     S
N704   C705    1.367   .     A
C705   H706    1.082   .     S
C707   N709    1.368   .     A
C707   H708    1.082   .     S
C707   C585    1.420   1_655 S
N713   O715    1.301   .     A
N713   O714    1.300   .     A
N716   O717    1.301   .     A
N716   O718    1.301   .     A
O721   Zn727   1.987   .     S
O721   C723    1.283   .     A
O722   C723    1.283   .     A
O722   Zn728   1.986   .     S
C723   C760    1.407   .     S
O724   Zn727   1.969   .     S
O724   C726    1.304   .     A
O725   Zn728   1.955   .     S
O725   C726    1.296   .     A
C726   C750    1.481   .     S
Zn727  N764    2.017   .     S
Zn727  O731    1.955   .     S
Zn727  O729    1.986   .     S
Zn728  O732    1.969   .     S
Zn728  N769    2.017   .     S
Zn728  O730    1.987   .     S
O729   C733    1.284   .     A
O730   C733    1.284   .     A
O731   C734    1.296   .     A
O732   C734    1.298   .     A
C733   C755    1.411   .     S
C734   C738    1.461   .     S
C735   C749    1.387   .     A
H736   C746    1.079   .     S
H737   C195    1.077   1_556 S
C738   C749    1.411   .     A
C738   C748    1.408   .     A
C739   N776    1.429   .     S
C739   C750    1.416   .     A
C739   C740    1.405   .     A
C740   C201    1.396   1_556 S
C740   Br239   1.915   1_556 S
C741   H751    1.079   .     S
C742   C743    1.400   .     A
C742   C201    1.407   1_556 S
C742   C204    1.410   1_556 S
C743   C747    1.415   .     A
C743   C750    1.414   .     A
C744   C748    1.400   .     A
C745   C746    1.391   .     A
C745   C195    1.394   1_556 S
C745   C204    1.414   1_556 S
C746   C747    1.386   .     A
C747   Br780   1.914   .     S
C748   N773    1.441   .     S
C749   Br770   1.927   .     S
C752   H753    1.084   .     S
C752   C760    1.393   .     A
C752   C934    1.374   .     S
C754   Br771   1.921   .     S
C754   C755    1.403   .     A
C755   C756    1.396   .     A
C756   H757    1.084   .     S
C758   C760    1.392   .     A
C758   H759    1.084   .     S
C758   C936    1.371   .     S
C761   H762    1.079   .     S
C761   N769    1.359   .     A
C761   C823    1.414   .     S
C763   N764    1.378   .     A
C763   Br772   1.913   .     S
C763   C881    1.414   1_455 S
N764   C765    1.367   .     A
C765   H766    1.082   .     S
C765   C887    1.420   1_455 S
C767   N769    1.368   .     A
C767   H768    1.082   .     S
C767   C825    1.420   .     S
N773   O775    1.301   .     A
N773   O774    1.300   .     A
N776   O777    1.301   .     A
N776   O778    1.301   .     A
O781   Zn787   1.987   .     S
O781   C783    1.283   .     A
O782   C783    1.283   .     A
O782   Zn788   1.986   .     S
C783   C820    1.407   .     S
O784   Zn787   1.969   .     S
O784   C786    1.304   .     A
O785   Zn788   1.955   .     S
O785   C786    1.296   .     A
C786   C810    1.481   .     S
Zn787  N824    2.017   .     S
Zn787  O791    1.955   .     S
Zn787  O789    1.986   .     S
Zn788  O792    1.969   .     S
Zn788  N829    2.017   .     S
Zn788  O790    1.987   .     S
O789   C793    1.284   .     A
O790   C793    1.284   .     A
O791   C794    1.296   .     A
O792   C794    1.298   .     A
C793   C815    1.411   .     S
C794   C798    1.461   .     S
C795   C809    1.387   .     A
H796   C806    1.079   .     S
H797   C255    1.077   1_556 S
C798   C809    1.411   .     A
C798   C808    1.408   .     A
C799   N836    1.429   .     S
C799   C810    1.416   .     A
C799   C800    1.405   .     A
C800   C261    1.396   1_556 S
C800   Br299   1.915   1_556 S
C801   H811    1.079   .     S
C802   C803    1.400   .     A
C802   C261    1.407   1_556 S
C802   C264    1.410   1_556 S
C803   C807    1.415   .     A
C803   C810    1.414   .     A
C804   C808    1.400   .     A
C805   C806    1.391   .     A
C805   C255    1.394   1_556 S
C805   C264    1.414   1_556 S
C806   C807    1.386   .     A
C807   Br840   1.914   .     S
C808   N833    1.441   .     S
C809   Br830   1.927   .     S
C812   H813    1.084   .     S
C812   C820    1.393   .     A
C812   C994    1.374   .     S
C814   Br831   1.921   .     S
C814   C815    1.403   .     A
C815   C816    1.396   .     A
C816   H817    1.084   .     S
C818   C820    1.392   .     A
C818   H819    1.084   .     S
C818   C996    1.371   .     S
C821   H822    1.079   .     S
C821   N829    1.359   .     A
C821   C883    1.414   .     S
C823   N824    1.378   .     A
C823   Br832   1.913   .     S
N824   C825    1.367   .     A
C825   H826    1.082   .     S
C827   N829    1.368   .     A
C827   H828    1.082   .     S
C827   C885    1.420   .     S
N833   O835    1.301   .     A
N833   O834    1.300   .     A
N836   O837    1.301   .     A
N836   O838    1.301   .     A
O841   Zn847   1.987   .     S
O841   C843    1.283   .     A
O842   C843    1.283   .     A
O842   Zn848   1.986   .     S
C843   C880    1.407   .     S
O844   Zn847   1.969   .     S
O844   C846    1.304   .     A
O845   Zn848   1.955   .     S
O845   C846    1.296   .     A
C846   C870    1.481   .     S
Zn847  N884    2.017   .     S
Zn847  O851    1.955   .     S
Zn847  O849    1.986   .     S
Zn848  O852    1.969   .     S
Zn848  N889    2.017   .     S
Zn848  O850    1.987   .     S
O849   C853    1.284   .     A
O850   C853    1.284   .     A
O851   C854    1.296   .     A
O852   C854    1.298   .     A
C853   C875    1.411   .     S
C854   C858    1.461   .     S
C855   C869    1.387   .     A
H856   C866    1.079   .     S
H857   C315    1.077   1_556 S
C858   C869    1.411   .     A
C858   C868    1.408   .     A
C859   N896    1.429   .     S
C859   C870    1.416   .     A
C859   C860    1.405   .     A
C860   C321    1.396   1_556 S
C860   Br359   1.915   1_556 S
C861   H871    1.079   .     S
C862   C863    1.400   .     A
C862   C321    1.407   1_556 S
C862   C324    1.410   1_556 S
C863   C867    1.415   .     A
C863   C870    1.414   .     A
C864   C868    1.400   .     A
C865   C866    1.391   .     A
C865   C315    1.394   1_556 S
C865   C324    1.414   1_556 S
C866   C867    1.386   .     A
C867   Br900   1.914   .     S
C868   N893    1.441   .     S
C869   Br890   1.927   .     S
C872   H873    1.084   .     S
C872   C880    1.393   .     A
C872   C1054   1.374   .     S
C874   Br891   1.921   .     S
C874   C875    1.403   .     A
C875   C876    1.396   .     A
C876   H877    1.084   .     S
C878   C880    1.392   .     A
C878   H879    1.084   .     S
C878   C1056   1.371   .     S
C881   H882    1.079   .     S
C881   N889    1.359   .     A
C881   C763    1.414   1_655 S
C883   N884    1.378   .     A
C883   Br892   1.913   .     S
N884   C885    1.367   .     A
C885   H886    1.082   .     S
C887   N889    1.368   .     A
C887   H888    1.082   .     S
C887   C765    1.420   1_655 S
N893   O895    1.301   .     A
N893   O894    1.300   .     A
N896   O897    1.301   .     A
N896   O898    1.301   .     A
O901   Zn907   1.987   .     S
O901   C903    1.283   .     A
O902   C903    1.283   .     A
O902   Zn908   1.986   .     S
C903   C940    1.407   .     S
O904   Zn907   1.969   .     S
O904   C906    1.304   .     A
O905   Zn908   1.955   .     S
O905   C906    1.296   .     A
C906   C930    1.481   .     S
Zn907  N944    2.017   .     S
Zn907  O911    1.955   .     S
Zn907  O909    1.986   .     S
Zn908  O912    1.969   .     S
Zn908  N949    2.017   .     S
Zn908  O910    1.987   .     S
O909   C913    1.284   .     A
O910   C913    1.284   .     A
O911   C914    1.296   .     A
O912   C914    1.298   .     A
C913   C935    1.411   .     S
C914   C918    1.461   .     S
C915   C929    1.387   .     A
H916   C926    1.079   .     S
H917   C375    1.077   1_556 S
C918   C929    1.411   .     A
C918   C928    1.408   .     A
C919   N956    1.429   .     S
C919   C930    1.416   .     A
C919   C920    1.405   .     A
C920   C381    1.396   1_556 S
C920   Br419   1.915   1_556 S
C921   H931    1.079   .     S
C922   C923    1.400   .     A
C922   C381    1.407   1_556 S
C922   C384    1.410   1_556 S
C923   C927    1.415   .     A
C923   C930    1.414   .     A
C924   C928    1.400   .     A
C925   C926    1.391   .     A
C925   C375    1.394   1_556 S
C925   C384    1.414   1_556 S
C926   C927    1.386   .     A
C927   Br960   1.914   .     S
C928   N953    1.441   .     S
C929   Br950   1.927   .     S
C932   H933    1.084   .     S
C932   C940    1.393   .     A
C932   C574    1.374   1_565 S
C934   Br951   1.921   .     S
C934   C935    1.403   .     A
C935   C936    1.396   .     A
C936   H937    1.084   .     S
C938   C940    1.392   .     A
C938   H939    1.084   .     S
C938   C576    1.371   1_565 S
C941   H942    1.079   .     S
C941   N949    1.359   .     A
C941   C1003   1.414   .     S
C943   N944    1.378   .     A
C943   Br952   1.913   .     S
C943   C1061   1.414   1_455 S
N944   C945    1.367   .     A
C945   H946    1.082   .     S
C945   C1067   1.420   1_455 S
C947   N949    1.368   .     A
C947   H948    1.082   .     S
C947   C1005   1.420   .     S
N953   O955    1.301   .     A
N953   O954    1.300   .     A
N956   O957    1.301   .     A
N956   O958    1.301   .     A
O961   Zn967   1.987   .     S
O961   C963    1.283   .     A
O962   C963    1.283   .     A
O962   Zn968   1.986   .     S
C963   C1000   1.407   .     S
O964   Zn967   1.969   .     S
O964   C966    1.304   .     A
O965   Zn968   1.955   .     S
O965   C966    1.296   .     A
C966   C990    1.481   .     S
Zn967  N1004   2.017   .     S
Zn967  O971    1.955   .     S
Zn967  O969    1.986   .     S
Zn968  O972    1.969   .     S
Zn968  N1009   2.017   .     S
Zn968  O970    1.987   .     S
O969   C973    1.284   .     A
O970   C973    1.284   .     A
O971   C974    1.296   .     A
O972   C974    1.298   .     A
C973   C995    1.411   .     S
C974   C978    1.461   .     S
C975   C989    1.387   .     A
H976   C986    1.079   .     S
H977   C435    1.077   1_556 S
C978   C989    1.411   .     A
C978   C988    1.408   .     A
C979   N1016   1.429   .     S
C979   C990    1.416   .     A
C979   C980    1.405   .     A
C980   C441    1.396   1_556 S
C980   Br479   1.915   1_556 S
C981   H991    1.079   .     S
C982   C983    1.400   .     A
C982   C441    1.407   1_556 S
C982   C444    1.410   1_556 S
C983   C987    1.415   .     A
C983   C990    1.414   .     A
C984   C988    1.400   .     A
C985   C986    1.391   .     A
C985   C435    1.394   1_556 S
C985   C444    1.414   1_556 S
C986   C987    1.386   .     A
C987   Br1020  1.914   .     S
C988   N1013   1.441   .     S
C989   Br1010  1.927   .     S
C992   H993    1.084   .     S
C992   C1000   1.393   .     A
C992   C634    1.374   1_565 S
C994   Br1011  1.921   .     S
C994   C995    1.403   .     A
C995   C996    1.396   .     A
C996   H997    1.084   .     S
C998   C1000   1.392   .     A
C998   H999    1.084   .     S
C998   C636    1.371   1_565 S
C1001  H1002   1.079   .     S
C1001  N1009   1.359   .     A
C1001  C1063   1.414   .     S
C1003  N1004   1.378   .     A
C1003  Br1012  1.913   .     S
N1004  C1005   1.367   .     A
C1005  H1006   1.082   .     S
C1007  N1009   1.368   .     A
C1007  H1008   1.082   .     S
C1007  C1065   1.420   .     S
N1013  O1015   1.301   .     A
N1013  O1014   1.300   .     A
N1016  O1017   1.301   .     A
N1016  O1018   1.301   .     A
O1021  Zn1027  1.987   .     S
O1021  C1023   1.283   .     A
O1022  C1023   1.283   .     A
O1022  Zn1028  1.986   .     S
C1023  C1060   1.407   .     S
O1024  Zn1027  1.969   .     S
O1024  C1026   1.304   .     A
O1025  Zn1028  1.955   .     S
O1025  C1026   1.296   .     A
C1026  C1050   1.481   .     S
Zn1027 N1064   2.017   .     S
Zn1027 O1031   1.955   .     S
Zn1027 O1029   1.986   .     S
Zn1028 O1032   1.969   .     S
Zn1028 N1069   2.017   .     S
Zn1028 O1030   1.987   .     S
O1029  C1033   1.284   .     A
O1030  C1033   1.284   .     A
O1031  C1034   1.296   .     A
O1032  C1034   1.298   .     A
C1033  C1055   1.411   .     S
C1034  C1038   1.461   .     S
C1035  C1049   1.387   .     A
H1036  C1046   1.079   .     S
H1037  C495    1.077   1_556 S
C1038  C1049   1.411   .     A
C1038  C1048   1.408   .     A
C1039  N1076   1.429   .     S
C1039  C1050   1.416   .     A
C1039  C1040   1.405   .     A
C1040  C501    1.396   1_556 S
C1040  Br539   1.915   1_556 S
C1041  H1051   1.079   .     S
C1042  C1043   1.400   .     A
C1042  C501    1.407   1_556 S
C1042  C504    1.410   1_556 S
C1043  C1047   1.415   .     A
C1043  C1050   1.414   .     A
C1044  C1048   1.400   .     A
C1045  C1046   1.391   .     A
C1045  C495    1.394   1_556 S
C1045  C504    1.414   1_556 S
C1046  C1047   1.386   .     A
C1047  Br1080  1.914   .     S
C1048  N1073   1.441   .     S
C1049  Br1070  1.927   .     S
C1052  H1053   1.084   .     S
C1052  C1060   1.393   .     A
C1052  C694    1.374   1_565 S
C1054  Br1071  1.921   .     S
C1054  C1055   1.403   .     A
C1055  C1056   1.396   .     A
C1056  H1057   1.084   .     S
C1058  C1060   1.392   .     A
C1058  H1059   1.084   .     S
C1058  C696    1.371   1_565 S
C1061  H1062   1.079   .     S
C1061  N1069   1.359   .     A
C1061  C943    1.414   1_655 S
C1063  N1064   1.378   .     A
C1063  Br1072  1.913   .     S
N1064  C1065   1.367   .     A
C1065  H1066   1.082   .     S
C1067  N1069   1.368   .     A
C1067  H1068   1.082   .     S
C1067  C945    1.420   1_655 S
N1073  O1075   1.301   .     A
N1073  O1074   1.300   .     A
N1076  O1077   1.301   .     A
N1076  O1078   1.301   .     A
