data_str_m3_o2_o10_pcu_sym.175
_audit_creation_date              2020-01-03
_audit_creation_method            'Materials Studio'
_symmetry_space_group_name_H-M    'P1'
_symmetry_Int_Tables_number       1
_symmetry_cell_setting            triclinic
loop_
_symmetry_equiv_pos_as_xyz
  x,y,z
_cell_length_a                    25.6934
_cell_length_b                    30.1225
_cell_length_c                    28.4136
_cell_angle_alpha                 90.7654
_cell_angle_beta                  99.0287
_cell_angle_gamma                 90.4512
loop_
_atom_site_label
_atom_site_type_symbol
_atom_site_fract_x
_atom_site_fract_y
_atom_site_fract_z
_atom_site_U_iso_or_equiv
_atom_site_adp_type
_atom_site_occupancy
C1     C     0.16672   0.16430   0.24969   0.00000  Uiso   1.00
C2     C     0.16450   0.33643   0.25007   0.00000  Uiso   1.00
C3     C     0.13643   0.21902   0.04793   0.00000  Uiso   1.00
C4     C     0.20693   0.27057   0.45363   0.00000  Uiso   1.00
C5     C     0.13646   0.21981   0.09743   0.00000  Uiso   1.00
C6     C     0.20615   0.27101   0.40410   0.00000  Uiso   1.00
C7     C     0.19638   0.28036   0.10702   0.00000  Uiso   1.00
C8     C     0.12647   0.22973   0.39152   0.00000  Uiso   1.00
C9     C     0.19588   0.28171   0.05753   0.00000  Uiso   1.00
C10    C     0.12487   0.23004   0.44079   0.00000  Uiso   1.00
C11    C     0.16600   0.25043   0.02668   0.00000  Uiso   1.00
C12    C     0.16584   0.25029   0.47323   0.00000  Uiso   1.00
C13    C     0.06699   0.24979   0.23746   0.00000  Uiso   1.00
C14    C     0.26634   0.24988   0.26253   0.00000  Uiso   1.00
C15    C     0.01185   0.24951   0.23076   0.00000  Uiso   1.00
C16    C     0.32148   0.24963   0.26923   0.00000  Uiso   1.00
C17    C     0.12048   0.04921   0.26188   0.00000  Uiso   1.00
C18    C     0.15538   0.45434   0.20780   0.00000  Uiso   1.00
C19    C     0.12220   0.09487   0.26311   0.00000  Uiso   1.00
C20    C     0.15456   0.40864   0.20688   0.00000  Uiso   1.00
C21    C     0.16527   0.11680   0.24863   0.00000  Uiso   1.00
C22    C     0.15931   0.38512   0.25034   0.00000  Uiso   1.00
C23    C     0.20647   0.09326   0.23261   0.00000  Uiso   1.00
C24    C     0.15836   0.40920   0.29389   0.00000  Uiso   1.00
C25    C     0.20557   0.04682   0.23314   0.00000  Uiso   1.00
C26    C     0.15814   0.45572   0.29388   0.00000  Uiso   1.00
C27    C     0.16239   0.02537   0.24878   0.00000  Uiso   1.00
C28    C     0.15941   0.47756   0.25067   0.00000  Uiso   1.00
H29    H     0.32428   0.24937   0.19436   0.00000  Uiso   1.00
H30    H     0.00904   0.24970   0.30563   0.00000  Uiso   1.00
H31    H     0.08678   0.03194   0.27197   0.00000  Uiso   1.00
H32    H     0.15276   0.47237   0.17466   0.00000  Uiso   1.00
H33    H     0.11355   0.19354   0.02665   0.00000  Uiso   1.00
H34    H     0.24002   0.28603   0.47632   0.00000  Uiso   1.00
H35    H     0.22001   0.30420   0.13011   0.00000  Uiso   1.00
H36    H     0.09501   0.21366   0.36736   0.00000  Uiso   1.00
H37    H     0.21844   0.30771   0.04405   0.00000  Uiso   1.00
H38    H     0.09114   0.21487   0.45279   0.00000  Uiso   1.00
N39    N     0.16667   0.24999   0.12624   0.00000  Uiso   1.00
N40    N     0.16667   0.25001   0.37377   0.00000  Uiso   1.00
O41    O     0.16667   0.18454   0.28974   0.00000  Uiso   1.00
O42    O     0.16666   0.31547   0.21026   0.00000  Uiso   1.00
O43    O     0.16667   0.18453   0.21026   0.00000  Uiso   1.00
O44    O     0.16666   0.31547   0.28974   0.00000  Uiso   1.00
O45    O     0.09058   0.25000   0.28045   0.00000  Uiso   1.00
O46    O     0.24275   0.25000   0.21956   0.00000  Uiso   1.00
O47    O     0.09058   0.25000   0.20097   0.00000  Uiso   1.00
O48    O     0.24275   0.25001   0.29904   0.00000  Uiso   1.00
Zn49   Zn    0.16667   0.25001   0.30307   0.00000  Uiso   1.00
Zn50   Zn    0.16667   0.25000   0.19693   0.00000  Uiso   1.00
C51    C     0.07918   0.11852   0.27902   0.00000  Uiso   1.00
N52    N     0.04491   0.13746   0.29193   0.00000  Uiso   1.00
C53    C     0.14697   0.38790   0.16007   0.00000  Uiso   1.00
N54    N     0.14053   0.37179   0.12238   0.00000  Uiso   1.00
C55    C     0.25039   0.11678   0.21742   0.00000  Uiso   1.00
N56    N     0.28525   0.13556   0.20513   0.00000  Uiso   1.00
C57    C     0.15705   0.38750   0.33904   0.00000  Uiso   1.00
N58    N     0.15570   0.37065   0.37521   0.00000  Uiso   1.00
C59    C     0.24915   0.02116   0.21714   0.00000  Uiso   1.00
C60    C     0.28428   0.49684   0.24972   0.00000  Uiso   1.00
C61    C     0.32557   0.47351   0.23443   0.00000  Uiso   1.00
C62    C     0.33219   0.47433   0.18659   0.00000  Uiso   1.00
C63    C     0.29737   0.49833   0.15390   0.00000  Uiso   1.00
C64    C     0.25599   0.02166   0.16904   0.00000  Uiso   1.00
H65    H     0.28014   0.49618   0.28690   0.00000  Uiso   1.00
H66    H     0.01927   0.45493   0.25968   0.00000  Uiso   1.00
H67    H     0.03096   0.45638   0.17487   0.00000  Uiso   1.00
H68    H     0.30248   0.49891   0.11682   0.00000  Uiso   1.00
H69    H     0.22927   0.04013   0.14336   0.00000  Uiso   1.00
C70    C     0.15465   0.48143   0.33851   0.00000  Uiso   1.00
C71    C     0.19705   0.00788   0.36054   0.00000  Uiso   1.00
C72    C     0.19244   0.03309   0.40132   0.00000  Uiso   1.00
C73    C     0.14557   0.03203   0.42046   0.00000  Uiso   1.00
C74    C     0.10326   0.00566   0.39891   0.00000  Uiso   1.00
C75    C     0.10772   0.48042   0.35812   0.00000  Uiso   1.00
H76    H     0.23349   0.00918   0.34621   0.00000  Uiso   1.00
H77    H     0.22519   0.05353   0.41804   0.00000  Uiso   1.00
H78    H     0.14204   0.05163   0.45199   0.00000  Uiso   1.00
H79    H     0.06693   0.00489   0.41370   0.00000  Uiso   1.00
H80    H     0.07447   0.46044   0.34151   0.00000  Uiso   1.00
C81    C     0.10357   0.18857   0.11728   0.00000  Uiso   1.00
N82    N     0.07690   0.16339   0.13297   0.00000  Uiso   1.00
C83    C     0.24692   0.29540   0.38599   0.00000  Uiso   1.00
N84    N     0.27981   0.31536   0.37191   0.00000  Uiso   1.00
C85    C     0.50005   0.16430   0.24969   0.00000  Uiso   1.00
C86    C     0.49783   0.33643   0.25007   0.00000  Uiso   1.00
C87    C     0.46977   0.21902   0.04793   0.00000  Uiso   1.00
C88    C     0.54027   0.27057   0.45363   0.00000  Uiso   1.00
C89    C     0.46979   0.21981   0.09743   0.00000  Uiso   1.00
C90    C     0.53948   0.27101   0.40410   0.00000  Uiso   1.00
C91    C     0.52972   0.28036   0.10702   0.00000  Uiso   1.00
C92    C     0.45981   0.22973   0.39152   0.00000  Uiso   1.00
C93    C     0.52922   0.28171   0.05753   0.00000  Uiso   1.00
C94    C     0.45821   0.23004   0.44079   0.00000  Uiso   1.00
C95    C     0.49933   0.25043   0.02668   0.00000  Uiso   1.00
C96    C     0.49917   0.25029   0.47323   0.00000  Uiso   1.00
C97    C     0.40033   0.24979   0.23746   0.00000  Uiso   1.00
C98    C     0.59967   0.24988   0.26253   0.00000  Uiso   1.00
C99    C     0.34518   0.24951   0.23076   0.00000  Uiso   1.00
C100   C     0.65481   0.24963   0.26923   0.00000  Uiso   1.00
C101   C     0.45381   0.04921   0.26188   0.00000  Uiso   1.00
C102   C     0.48872   0.45434   0.20780   0.00000  Uiso   1.00
C103   C     0.45554   0.09487   0.26311   0.00000  Uiso   1.00
C104   C     0.48789   0.40864   0.20688   0.00000  Uiso   1.00
C105   C     0.49861   0.11680   0.24863   0.00000  Uiso   1.00
C106   C     0.49265   0.38512   0.25034   0.00000  Uiso   1.00
C107   C     0.53980   0.09326   0.23261   0.00000  Uiso   1.00
C108   C     0.49169   0.40920   0.29389   0.00000  Uiso   1.00
C109   C     0.53890   0.04682   0.23314   0.00000  Uiso   1.00
C110   C     0.49147   0.45572   0.29388   0.00000  Uiso   1.00
C111   C     0.49573   0.02537   0.24878   0.00000  Uiso   1.00
C112   C     0.49274   0.47756   0.25067   0.00000  Uiso   1.00
H113   H     0.65761   0.24937   0.19436   0.00000  Uiso   1.00
H114   H     0.34238   0.24970   0.30563   0.00000  Uiso   1.00
H115   H     0.42011   0.03194   0.27197   0.00000  Uiso   1.00
H116   H     0.48609   0.47237   0.17466   0.00000  Uiso   1.00
H117   H     0.44689   0.19354   0.02665   0.00000  Uiso   1.00
H118   H     0.57335   0.28603   0.47632   0.00000  Uiso   1.00
H119   H     0.55334   0.30420   0.13011   0.00000  Uiso   1.00
H120   H     0.42834   0.21366   0.36736   0.00000  Uiso   1.00
H121   H     0.55177   0.30771   0.04405   0.00000  Uiso   1.00
H122   H     0.42448   0.21487   0.45279   0.00000  Uiso   1.00
N123   N     0.50000   0.24999   0.12624   0.00000  Uiso   1.00
N124   N     0.50000   0.25001   0.37377   0.00000  Uiso   1.00
O125   O     0.50000   0.18454   0.28974   0.00000  Uiso   1.00
O126   O     0.50000   0.31547   0.21026   0.00000  Uiso   1.00
O127   O     0.50000   0.18453   0.21026   0.00000  Uiso   1.00
O128   O     0.50000   0.31547   0.28974   0.00000  Uiso   1.00
O129   O     0.42392   0.25000   0.28045   0.00000  Uiso   1.00
O130   O     0.57608   0.25000   0.21956   0.00000  Uiso   1.00
O131   O     0.42392   0.25000   0.20097   0.00000  Uiso   1.00
O132   O     0.57608   0.25001   0.29904   0.00000  Uiso   1.00
Zn133  Zn    0.50000   0.25001   0.30307   0.00000  Uiso   1.00
Zn134  Zn    0.50000   0.25000   0.19693   0.00000  Uiso   1.00
C135   C     0.41252   0.11852   0.27902   0.00000  Uiso   1.00
N136   N     0.37824   0.13746   0.29193   0.00000  Uiso   1.00
C137   C     0.48030   0.38790   0.16007   0.00000  Uiso   1.00
N138   N     0.47386   0.37179   0.12238   0.00000  Uiso   1.00
C139   C     0.58372   0.11678   0.21742   0.00000  Uiso   1.00
N140   N     0.61858   0.13556   0.20513   0.00000  Uiso   1.00
C141   C     0.49038   0.38750   0.33904   0.00000  Uiso   1.00
N142   N     0.48903   0.37065   0.37521   0.00000  Uiso   1.00
C143   C     0.58248   0.02116   0.21714   0.00000  Uiso   1.00
C144   C     0.61761   0.49684   0.24972   0.00000  Uiso   1.00
C145   C     0.65890   0.47351   0.23443   0.00000  Uiso   1.00
C146   C     0.66552   0.47433   0.18659   0.00000  Uiso   1.00
C147   C     0.63070   0.49833   0.15390   0.00000  Uiso   1.00
C148   C     0.58932   0.02166   0.16904   0.00000  Uiso   1.00
H149   H     0.61347   0.49618   0.28690   0.00000  Uiso   1.00
H150   H     0.35261   0.45493   0.25968   0.00000  Uiso   1.00
H151   H     0.36429   0.45638   0.17487   0.00000  Uiso   1.00
H152   H     0.63581   0.49891   0.11682   0.00000  Uiso   1.00
H153   H     0.56260   0.04013   0.14336   0.00000  Uiso   1.00
C154   C     0.48798   0.48143   0.33851   0.00000  Uiso   1.00
C155   C     0.53039   0.00788   0.36054   0.00000  Uiso   1.00
C156   C     0.52577   0.03309   0.40132   0.00000  Uiso   1.00
C157   C     0.47890   0.03203   0.42046   0.00000  Uiso   1.00
C158   C     0.43659   0.00566   0.39891   0.00000  Uiso   1.00
C159   C     0.44105   0.48042   0.35812   0.00000  Uiso   1.00
H160   H     0.56683   0.00918   0.34621   0.00000  Uiso   1.00
H161   H     0.55852   0.05353   0.41804   0.00000  Uiso   1.00
H162   H     0.47538   0.05163   0.45199   0.00000  Uiso   1.00
H163   H     0.40027   0.00489   0.41370   0.00000  Uiso   1.00
H164   H     0.40781   0.46044   0.34151   0.00000  Uiso   1.00
C165   C     0.43690   0.18857   0.11728   0.00000  Uiso   1.00
N166   N     0.41024   0.16339   0.13297   0.00000  Uiso   1.00
C167   C     0.58025   0.29540   0.38599   0.00000  Uiso   1.00
N168   N     0.61314   0.31536   0.37191   0.00000  Uiso   1.00
C169   C     0.83338   0.16430   0.24969   0.00000  Uiso   1.00
C170   C     0.83117   0.33643   0.25007   0.00000  Uiso   1.00
C171   C     0.80310   0.21902   0.04793   0.00000  Uiso   1.00
C172   C     0.87360   0.27057   0.45363   0.00000  Uiso   1.00
C173   C     0.80313   0.21981   0.09743   0.00000  Uiso   1.00
C174   C     0.87281   0.27101   0.40410   0.00000  Uiso   1.00
C175   C     0.86305   0.28036   0.10702   0.00000  Uiso   1.00
C176   C     0.79314   0.22973   0.39152   0.00000  Uiso   1.00
C177   C     0.86255   0.28171   0.05753   0.00000  Uiso   1.00
C178   C     0.79154   0.23004   0.44079   0.00000  Uiso   1.00
C179   C     0.83267   0.25043   0.02668   0.00000  Uiso   1.00
C180   C     0.83251   0.25029   0.47323   0.00000  Uiso   1.00
C181   C     0.73366   0.24979   0.23746   0.00000  Uiso   1.00
C182   C     0.93300   0.24988   0.26253   0.00000  Uiso   1.00
C183   C     0.67851   0.24951   0.23076   0.00000  Uiso   1.00
C184   C     0.98814   0.24963   0.26923   0.00000  Uiso   1.00
C185   C     0.78714   0.04921   0.26188   0.00000  Uiso   1.00
C186   C     0.82205   0.45434   0.20780   0.00000  Uiso   1.00
C187   C     0.78887   0.09487   0.26311   0.00000  Uiso   1.00
C188   C     0.82122   0.40864   0.20688   0.00000  Uiso   1.00
C189   C     0.83194   0.11680   0.24863   0.00000  Uiso   1.00
C190   C     0.82598   0.38512   0.25034   0.00000  Uiso   1.00
C191   C     0.87314   0.09326   0.23261   0.00000  Uiso   1.00
C192   C     0.82503   0.40920   0.29389   0.00000  Uiso   1.00
C193   C     0.87223   0.04682   0.23314   0.00000  Uiso   1.00
C194   C     0.82480   0.45572   0.29388   0.00000  Uiso   1.00
C195   C     0.82906   0.02537   0.24878   0.00000  Uiso   1.00
C196   C     0.82608   0.47756   0.25067   0.00000  Uiso   1.00
H197   H     0.99094   0.24937   0.19436   0.00000  Uiso   1.00
H198   H     0.67571   0.24970   0.30563   0.00000  Uiso   1.00
H199   H     0.75345   0.03194   0.27197   0.00000  Uiso   1.00
H200   H     0.81942   0.47237   0.17466   0.00000  Uiso   1.00
H201   H     0.78022   0.19354   0.02665   0.00000  Uiso   1.00
H202   H     0.90669   0.28603   0.47632   0.00000  Uiso   1.00
H203   H     0.88668   0.30420   0.13011   0.00000  Uiso   1.00
H204   H     0.76167   0.21366   0.36736   0.00000  Uiso   1.00
H205   H     0.88511   0.30771   0.04405   0.00000  Uiso   1.00
H206   H     0.75781   0.21487   0.45279   0.00000  Uiso   1.00
N207   N     0.83333   0.24999   0.12624   0.00000  Uiso   1.00
N208   N     0.83333   0.25001   0.37377   0.00000  Uiso   1.00
O209   O     0.83334   0.18454   0.28974   0.00000  Uiso   1.00
O210   O     0.83333   0.31547   0.21026   0.00000  Uiso   1.00
O211   O     0.83334   0.18453   0.21026   0.00000  Uiso   1.00
O212   O     0.83333   0.31547   0.28974   0.00000  Uiso   1.00
O213   O     0.75725   0.25000   0.28045   0.00000  Uiso   1.00
O214   O     0.90942   0.25000   0.21956   0.00000  Uiso   1.00
O215   O     0.75725   0.25000   0.20097   0.00000  Uiso   1.00
O216   O     0.90942   0.25001   0.29904   0.00000  Uiso   1.00
Zn217  Zn    0.83333   0.25001   0.30307   0.00000  Uiso   1.00
Zn218  Zn    0.83333   0.25000   0.19693   0.00000  Uiso   1.00
C219   C     0.74585   0.11852   0.27902   0.00000  Uiso   1.00
N220   N     0.71158   0.13746   0.29193   0.00000  Uiso   1.00
C221   C     0.81364   0.38790   0.16007   0.00000  Uiso   1.00
N222   N     0.80720   0.37179   0.12238   0.00000  Uiso   1.00
C223   C     0.91706   0.11678   0.21742   0.00000  Uiso   1.00
N224   N     0.95191   0.13556   0.20513   0.00000  Uiso   1.00
C225   C     0.82372   0.38750   0.33904   0.00000  Uiso   1.00
N226   N     0.82236   0.37065   0.37521   0.00000  Uiso   1.00
C227   C     0.91582   0.02116   0.21714   0.00000  Uiso   1.00
C228   C     0.95094   0.49684   0.24972   0.00000  Uiso   1.00
C229   C     0.99224   0.47351   0.23443   0.00000  Uiso   1.00
C230   C     0.99886   0.47433   0.18659   0.00000  Uiso   1.00
C231   C     0.96403   0.49833   0.15390   0.00000  Uiso   1.00
C232   C     0.92266   0.02166   0.16904   0.00000  Uiso   1.00
H233   H     0.94680   0.49618   0.28690   0.00000  Uiso   1.00
H234   H     0.68594   0.45493   0.25968   0.00000  Uiso   1.00
H235   H     0.69762   0.45638   0.17487   0.00000  Uiso   1.00
H236   H     0.96914   0.49891   0.11682   0.00000  Uiso   1.00
H237   H     0.89594   0.04013   0.14336   0.00000  Uiso   1.00
C238   C     0.82132   0.48143   0.33851   0.00000  Uiso   1.00
C239   C     0.86372   0.00788   0.36054   0.00000  Uiso   1.00
C240   C     0.85911   0.03309   0.40132   0.00000  Uiso   1.00
C241   C     0.81224   0.03203   0.42046   0.00000  Uiso   1.00
C242   C     0.76993   0.00566   0.39891   0.00000  Uiso   1.00
C243   C     0.77438   0.48042   0.35812   0.00000  Uiso   1.00
H244   H     0.90016   0.00918   0.34621   0.00000  Uiso   1.00
H245   H     0.89186   0.05353   0.41804   0.00000  Uiso   1.00
H246   H     0.80871   0.05163   0.45199   0.00000  Uiso   1.00
H247   H     0.73360   0.00489   0.41370   0.00000  Uiso   1.00
H248   H     0.74114   0.46044   0.34151   0.00000  Uiso   1.00
C249   C     0.77023   0.18857   0.11728   0.00000  Uiso   1.00
N250   N     0.74357   0.16339   0.13297   0.00000  Uiso   1.00
C251   C     0.91359   0.29540   0.38599   0.00000  Uiso   1.00
N252   N     0.94647   0.31536   0.37191   0.00000  Uiso   1.00
C253   C     0.16672   0.66430   0.24969   0.00000  Uiso   1.00
C254   C     0.16450   0.83643   0.25007   0.00000  Uiso   1.00
C255   C     0.13643   0.71902   0.04793   0.00000  Uiso   1.00
C256   C     0.20693   0.77057   0.45363   0.00000  Uiso   1.00
C257   C     0.13646   0.71981   0.09743   0.00000  Uiso   1.00
C258   C     0.20615   0.77101   0.40410   0.00000  Uiso   1.00
C259   C     0.19638   0.78036   0.10702   0.00000  Uiso   1.00
C260   C     0.12647   0.72973   0.39152   0.00000  Uiso   1.00
C261   C     0.19588   0.78171   0.05753   0.00000  Uiso   1.00
C262   C     0.12487   0.73004   0.44079   0.00000  Uiso   1.00
C263   C     0.16600   0.75043   0.02668   0.00000  Uiso   1.00
C264   C     0.16584   0.75029   0.47323   0.00000  Uiso   1.00
C265   C     0.06699   0.74979   0.23746   0.00000  Uiso   1.00
C266   C     0.26634   0.74988   0.26253   0.00000  Uiso   1.00
C267   C     0.01185   0.74951   0.23076   0.00000  Uiso   1.00
C268   C     0.32148   0.74963   0.26923   0.00000  Uiso   1.00
C269   C     0.12048   0.54921   0.26188   0.00000  Uiso   1.00
C270   C     0.15538   0.95434   0.20780   0.00000  Uiso   1.00
C271   C     0.12220   0.59487   0.26311   0.00000  Uiso   1.00
C272   C     0.15456   0.90864   0.20688   0.00000  Uiso   1.00
C273   C     0.16527   0.61680   0.24863   0.00000  Uiso   1.00
C274   C     0.15931   0.88512   0.25034   0.00000  Uiso   1.00
C275   C     0.20647   0.59326   0.23261   0.00000  Uiso   1.00
C276   C     0.15836   0.90920   0.29389   0.00000  Uiso   1.00
C277   C     0.20557   0.54682   0.23314   0.00000  Uiso   1.00
C278   C     0.15814   0.95572   0.29388   0.00000  Uiso   1.00
C279   C     0.16239   0.52537   0.24878   0.00000  Uiso   1.00
C280   C     0.15941   0.97756   0.25067   0.00000  Uiso   1.00
H281   H     0.32428   0.74937   0.19436   0.00000  Uiso   1.00
H282   H     0.00904   0.74970   0.30563   0.00000  Uiso   1.00
H283   H     0.08678   0.53194   0.27197   0.00000  Uiso   1.00
H284   H     0.15276   0.97237   0.17466   0.00000  Uiso   1.00
H285   H     0.11355   0.69354   0.02665   0.00000  Uiso   1.00
H286   H     0.24002   0.78603   0.47632   0.00000  Uiso   1.00
H287   H     0.22001   0.80420   0.13011   0.00000  Uiso   1.00
H288   H     0.09501   0.71366   0.36736   0.00000  Uiso   1.00
H289   H     0.21844   0.80771   0.04405   0.00000  Uiso   1.00
H290   H     0.09114   0.71487   0.45279   0.00000  Uiso   1.00
N291   N     0.16667   0.74999   0.12624   0.00000  Uiso   1.00
N292   N     0.16667   0.75001   0.37377   0.00000  Uiso   1.00
O293   O     0.16667   0.68454   0.28974   0.00000  Uiso   1.00
O294   O     0.16666   0.81547   0.21026   0.00000  Uiso   1.00
O295   O     0.16667   0.68453   0.21026   0.00000  Uiso   1.00
O296   O     0.16666   0.81547   0.28974   0.00000  Uiso   1.00
O297   O     0.09058   0.75000   0.28045   0.00000  Uiso   1.00
O298   O     0.24275   0.75000   0.21956   0.00000  Uiso   1.00
O299   O     0.09058   0.75000   0.20097   0.00000  Uiso   1.00
O300   O     0.24275   0.75001   0.29904   0.00000  Uiso   1.00
Zn301  Zn    0.16667   0.75001   0.30307   0.00000  Uiso   1.00
Zn302  Zn    0.16667   0.75000   0.19693   0.00000  Uiso   1.00
C303   C     0.07918   0.61852   0.27902   0.00000  Uiso   1.00
N304   N     0.04491   0.63746   0.29193   0.00000  Uiso   1.00
C305   C     0.14697   0.88790   0.16007   0.00000  Uiso   1.00
N306   N     0.14053   0.87179   0.12238   0.00000  Uiso   1.00
C307   C     0.25039   0.61678   0.21742   0.00000  Uiso   1.00
N308   N     0.28525   0.63556   0.20513   0.00000  Uiso   1.00
C309   C     0.15705   0.88750   0.33904   0.00000  Uiso   1.00
N310   N     0.15570   0.87065   0.37521   0.00000  Uiso   1.00
C311   C     0.24915   0.52116   0.21714   0.00000  Uiso   1.00
C312   C     0.28428   0.99684   0.24972   0.00000  Uiso   1.00
C313   C     0.32557   0.97351   0.23443   0.00000  Uiso   1.00
C314   C     0.33219   0.97433   0.18659   0.00000  Uiso   1.00
C315   C     0.29737   0.99833   0.15390   0.00000  Uiso   1.00
C316   C     0.25599   0.52166   0.16904   0.00000  Uiso   1.00
H317   H     0.28014   0.99618   0.28690   0.00000  Uiso   1.00
H318   H     0.01927   0.95493   0.25968   0.00000  Uiso   1.00
H319   H     0.03096   0.95638   0.17487   0.00000  Uiso   1.00
H320   H     0.30248   0.99891   0.11682   0.00000  Uiso   1.00
H321   H     0.22927   0.54013   0.14336   0.00000  Uiso   1.00
C322   C     0.15465   0.98143   0.33851   0.00000  Uiso   1.00
C323   C     0.19705   0.50788   0.36054   0.00000  Uiso   1.00
C324   C     0.19244   0.53309   0.40132   0.00000  Uiso   1.00
C325   C     0.14557   0.53203   0.42046   0.00000  Uiso   1.00
C326   C     0.10326   0.50566   0.39891   0.00000  Uiso   1.00
C327   C     0.10772   0.98042   0.35812   0.00000  Uiso   1.00
H328   H     0.23349   0.50918   0.34621   0.00000  Uiso   1.00
H329   H     0.22519   0.55353   0.41804   0.00000  Uiso   1.00
H330   H     0.14204   0.55163   0.45199   0.00000  Uiso   1.00
H331   H     0.06693   0.50489   0.41370   0.00000  Uiso   1.00
H332   H     0.07447   0.96044   0.34151   0.00000  Uiso   1.00
C333   C     0.10357   0.68857   0.11728   0.00000  Uiso   1.00
N334   N     0.07690   0.66339   0.13297   0.00000  Uiso   1.00
C335   C     0.24692   0.79540   0.38599   0.00000  Uiso   1.00
N336   N     0.27981   0.81536   0.37191   0.00000  Uiso   1.00
C337   C     0.50005   0.66430   0.24969   0.00000  Uiso   1.00
C338   C     0.49783   0.83643   0.25007   0.00000  Uiso   1.00
C339   C     0.46977   0.71902   0.04793   0.00000  Uiso   1.00
C340   C     0.54027   0.77057   0.45363   0.00000  Uiso   1.00
C341   C     0.46979   0.71981   0.09743   0.00000  Uiso   1.00
C342   C     0.53948   0.77101   0.40410   0.00000  Uiso   1.00
C343   C     0.52972   0.78036   0.10702   0.00000  Uiso   1.00
C344   C     0.45981   0.72973   0.39152   0.00000  Uiso   1.00
C345   C     0.52922   0.78171   0.05753   0.00000  Uiso   1.00
C346   C     0.45821   0.73004   0.44079   0.00000  Uiso   1.00
C347   C     0.49933   0.75043   0.02668   0.00000  Uiso   1.00
C348   C     0.49917   0.75029   0.47323   0.00000  Uiso   1.00
C349   C     0.40033   0.74979   0.23746   0.00000  Uiso   1.00
C350   C     0.59967   0.74988   0.26253   0.00000  Uiso   1.00
C351   C     0.34518   0.74951   0.23076   0.00000  Uiso   1.00
C352   C     0.65481   0.74963   0.26923   0.00000  Uiso   1.00
C353   C     0.45381   0.54921   0.26188   0.00000  Uiso   1.00
C354   C     0.48872   0.95434   0.20780   0.00000  Uiso   1.00
C355   C     0.45554   0.59487   0.26311   0.00000  Uiso   1.00
C356   C     0.48789   0.90864   0.20688   0.00000  Uiso   1.00
C357   C     0.49861   0.61680   0.24863   0.00000  Uiso   1.00
C358   C     0.49265   0.88512   0.25034   0.00000  Uiso   1.00
C359   C     0.53980   0.59326   0.23261   0.00000  Uiso   1.00
C360   C     0.49169   0.90920   0.29389   0.00000  Uiso   1.00
C361   C     0.53890   0.54682   0.23314   0.00000  Uiso   1.00
C362   C     0.49147   0.95572   0.29388   0.00000  Uiso   1.00
C363   C     0.49573   0.52537   0.24878   0.00000  Uiso   1.00
C364   C     0.49274   0.97756   0.25067   0.00000  Uiso   1.00
H365   H     0.65761   0.74937   0.19436   0.00000  Uiso   1.00
H366   H     0.34238   0.74970   0.30563   0.00000  Uiso   1.00
H367   H     0.42011   0.53194   0.27197   0.00000  Uiso   1.00
H368   H     0.48609   0.97237   0.17466   0.00000  Uiso   1.00
H369   H     0.44689   0.69354   0.02665   0.00000  Uiso   1.00
H370   H     0.57335   0.78603   0.47632   0.00000  Uiso   1.00
H371   H     0.55334   0.80420   0.13011   0.00000  Uiso   1.00
H372   H     0.42834   0.71366   0.36736   0.00000  Uiso   1.00
H373   H     0.55177   0.80771   0.04405   0.00000  Uiso   1.00
H374   H     0.42448   0.71487   0.45279   0.00000  Uiso   1.00
N375   N     0.50000   0.74999   0.12624   0.00000  Uiso   1.00
N376   N     0.50000   0.75001   0.37377   0.00000  Uiso   1.00
O377   O     0.50000   0.68454   0.28974   0.00000  Uiso   1.00
O378   O     0.50000   0.81547   0.21026   0.00000  Uiso   1.00
O379   O     0.50000   0.68453   0.21026   0.00000  Uiso   1.00
O380   O     0.50000   0.81547   0.28974   0.00000  Uiso   1.00
O381   O     0.42392   0.75000   0.28045   0.00000  Uiso   1.00
O382   O     0.57608   0.75000   0.21956   0.00000  Uiso   1.00
O383   O     0.42392   0.75000   0.20097   0.00000  Uiso   1.00
O384   O     0.57608   0.75001   0.29904   0.00000  Uiso   1.00
Zn385  Zn    0.50000   0.75001   0.30307   0.00000  Uiso   1.00
Zn386  Zn    0.50000   0.75000   0.19693   0.00000  Uiso   1.00
C387   C     0.41252   0.61852   0.27902   0.00000  Uiso   1.00
N388   N     0.37824   0.63746   0.29193   0.00000  Uiso   1.00
C389   C     0.48030   0.88790   0.16007   0.00000  Uiso   1.00
N390   N     0.47386   0.87179   0.12238   0.00000  Uiso   1.00
C391   C     0.58372   0.61678   0.21742   0.00000  Uiso   1.00
N392   N     0.61858   0.63556   0.20513   0.00000  Uiso   1.00
C393   C     0.49038   0.88750   0.33904   0.00000  Uiso   1.00
N394   N     0.48903   0.87065   0.37521   0.00000  Uiso   1.00
C395   C     0.58248   0.52116   0.21714   0.00000  Uiso   1.00
C396   C     0.61761   0.99684   0.24972   0.00000  Uiso   1.00
C397   C     0.65890   0.97351   0.23443   0.00000  Uiso   1.00
C398   C     0.66552   0.97433   0.18659   0.00000  Uiso   1.00
C399   C     0.63070   0.99833   0.15390   0.00000  Uiso   1.00
C400   C     0.58932   0.52166   0.16904   0.00000  Uiso   1.00
H401   H     0.61347   0.99618   0.28690   0.00000  Uiso   1.00
H402   H     0.35261   0.95493   0.25968   0.00000  Uiso   1.00
H403   H     0.36429   0.95638   0.17487   0.00000  Uiso   1.00
H404   H     0.63581   0.99891   0.11682   0.00000  Uiso   1.00
H405   H     0.56260   0.54013   0.14336   0.00000  Uiso   1.00
C406   C     0.48798   0.98143   0.33851   0.00000  Uiso   1.00
C407   C     0.53039   0.50788   0.36054   0.00000  Uiso   1.00
C408   C     0.52577   0.53309   0.40132   0.00000  Uiso   1.00
C409   C     0.47890   0.53203   0.42046   0.00000  Uiso   1.00
C410   C     0.43659   0.50566   0.39891   0.00000  Uiso   1.00
C411   C     0.44105   0.98042   0.35812   0.00000  Uiso   1.00
H412   H     0.56683   0.50918   0.34621   0.00000  Uiso   1.00
H413   H     0.55852   0.55353   0.41804   0.00000  Uiso   1.00
H414   H     0.47538   0.55163   0.45199   0.00000  Uiso   1.00
H415   H     0.40027   0.50489   0.41370   0.00000  Uiso   1.00
H416   H     0.40781   0.96044   0.34151   0.00000  Uiso   1.00
C417   C     0.43690   0.68857   0.11728   0.00000  Uiso   1.00
N418   N     0.41024   0.66339   0.13297   0.00000  Uiso   1.00
C419   C     0.58025   0.79540   0.38599   0.00000  Uiso   1.00
N420   N     0.61314   0.81536   0.37191   0.00000  Uiso   1.00
C421   C     0.83338   0.66430   0.24969   0.00000  Uiso   1.00
C422   C     0.83117   0.83643   0.25007   0.00000  Uiso   1.00
C423   C     0.80310   0.71902   0.04793   0.00000  Uiso   1.00
C424   C     0.87360   0.77057   0.45363   0.00000  Uiso   1.00
C425   C     0.80313   0.71981   0.09743   0.00000  Uiso   1.00
C426   C     0.87281   0.77101   0.40410   0.00000  Uiso   1.00
C427   C     0.86305   0.78036   0.10702   0.00000  Uiso   1.00
C428   C     0.79314   0.72973   0.39152   0.00000  Uiso   1.00
C429   C     0.86255   0.78171   0.05753   0.00000  Uiso   1.00
C430   C     0.79154   0.73004   0.44079   0.00000  Uiso   1.00
C431   C     0.83267   0.75043   0.02668   0.00000  Uiso   1.00
C432   C     0.83251   0.75029   0.47323   0.00000  Uiso   1.00
C433   C     0.73366   0.74979   0.23746   0.00000  Uiso   1.00
C434   C     0.93300   0.74988   0.26253   0.00000  Uiso   1.00
C435   C     0.67851   0.74951   0.23076   0.00000  Uiso   1.00
C436   C     0.98814   0.74963   0.26923   0.00000  Uiso   1.00
C437   C     0.78714   0.54921   0.26188   0.00000  Uiso   1.00
C438   C     0.82205   0.95434   0.20780   0.00000  Uiso   1.00
C439   C     0.78887   0.59487   0.26311   0.00000  Uiso   1.00
C440   C     0.82122   0.90864   0.20688   0.00000  Uiso   1.00
C441   C     0.83194   0.61680   0.24863   0.00000  Uiso   1.00
C442   C     0.82598   0.88512   0.25034   0.00000  Uiso   1.00
C443   C     0.87314   0.59326   0.23261   0.00000  Uiso   1.00
C444   C     0.82503   0.90920   0.29389   0.00000  Uiso   1.00
C445   C     0.87223   0.54682   0.23314   0.00000  Uiso   1.00
C446   C     0.82480   0.95572   0.29388   0.00000  Uiso   1.00
C447   C     0.82906   0.52537   0.24878   0.00000  Uiso   1.00
C448   C     0.82608   0.97756   0.25067   0.00000  Uiso   1.00
H449   H     0.99094   0.74937   0.19436   0.00000  Uiso   1.00
H450   H     0.67571   0.74970   0.30563   0.00000  Uiso   1.00
H451   H     0.75345   0.53194   0.27197   0.00000  Uiso   1.00
H452   H     0.81942   0.97237   0.17466   0.00000  Uiso   1.00
H453   H     0.78022   0.69354   0.02665   0.00000  Uiso   1.00
H454   H     0.90669   0.78603   0.47632   0.00000  Uiso   1.00
H455   H     0.88668   0.80420   0.13011   0.00000  Uiso   1.00
H456   H     0.76167   0.71366   0.36736   0.00000  Uiso   1.00
H457   H     0.88511   0.80771   0.04405   0.00000  Uiso   1.00
H458   H     0.75781   0.71487   0.45279   0.00000  Uiso   1.00
N459   N     0.83333   0.74999   0.12624   0.00000  Uiso   1.00
N460   N     0.83333   0.75001   0.37377   0.00000  Uiso   1.00
O461   O     0.83334   0.68454   0.28974   0.00000  Uiso   1.00
O462   O     0.83333   0.81547   0.21026   0.00000  Uiso   1.00
O463   O     0.83334   0.68453   0.21026   0.00000  Uiso   1.00
O464   O     0.83333   0.81547   0.28974   0.00000  Uiso   1.00
O465   O     0.75725   0.75000   0.28045   0.00000  Uiso   1.00
O466   O     0.90942   0.75000   0.21956   0.00000  Uiso   1.00
O467   O     0.75725   0.75000   0.20097   0.00000  Uiso   1.00
O468   O     0.90942   0.75001   0.29904   0.00000  Uiso   1.00
Zn469  Zn    0.83333   0.75001   0.30307   0.00000  Uiso   1.00
Zn470  Zn    0.83333   0.75000   0.19693   0.00000  Uiso   1.00
C471   C     0.74585   0.61852   0.27902   0.00000  Uiso   1.00
N472   N     0.71158   0.63746   0.29193   0.00000  Uiso   1.00
C473   C     0.81364   0.88790   0.16007   0.00000  Uiso   1.00
N474   N     0.80720   0.87179   0.12238   0.00000  Uiso   1.00
C475   C     0.91706   0.61678   0.21742   0.00000  Uiso   1.00
N476   N     0.95191   0.63556   0.20513   0.00000  Uiso   1.00
C477   C     0.82372   0.88750   0.33904   0.00000  Uiso   1.00
N478   N     0.82236   0.87065   0.37521   0.00000  Uiso   1.00
C479   C     0.91582   0.52116   0.21714   0.00000  Uiso   1.00
C480   C     0.95094   0.99684   0.24972   0.00000  Uiso   1.00
C481   C     0.99224   0.97351   0.23443   0.00000  Uiso   1.00
C482   C     0.99886   0.97433   0.18659   0.00000  Uiso   1.00
C483   C     0.96403   0.99833   0.15390   0.00000  Uiso   1.00
C484   C     0.92266   0.52166   0.16904   0.00000  Uiso   1.00
H485   H     0.94680   0.99618   0.28690   0.00000  Uiso   1.00
H486   H     0.68594   0.95493   0.25968   0.00000  Uiso   1.00
H487   H     0.69762   0.95638   0.17487   0.00000  Uiso   1.00
H488   H     0.96914   0.99891   0.11682   0.00000  Uiso   1.00
H489   H     0.89594   0.54013   0.14336   0.00000  Uiso   1.00
C490   C     0.82132   0.98143   0.33851   0.00000  Uiso   1.00
C491   C     0.86372   0.50788   0.36054   0.00000  Uiso   1.00
C492   C     0.85911   0.53309   0.40132   0.00000  Uiso   1.00
C493   C     0.81224   0.53203   0.42046   0.00000  Uiso   1.00
C494   C     0.76993   0.50566   0.39891   0.00000  Uiso   1.00
C495   C     0.77438   0.98042   0.35812   0.00000  Uiso   1.00
H496   H     0.90016   0.50918   0.34621   0.00000  Uiso   1.00
H497   H     0.89186   0.55353   0.41804   0.00000  Uiso   1.00
H498   H     0.80871   0.55163   0.45199   0.00000  Uiso   1.00
H499   H     0.73360   0.50489   0.41370   0.00000  Uiso   1.00
H500   H     0.74114   0.96044   0.34151   0.00000  Uiso   1.00
C501   C     0.77023   0.68857   0.11728   0.00000  Uiso   1.00
N502   N     0.74357   0.66339   0.13297   0.00000  Uiso   1.00
C503   C     0.91359   0.79540   0.38599   0.00000  Uiso   1.00
N504   N     0.94647   0.81536   0.37191   0.00000  Uiso   1.00
C505   C     0.16672   0.16430   0.74969   0.00000  Uiso   1.00
C506   C     0.16450   0.33643   0.75007   0.00000  Uiso   1.00
C507   C     0.13643   0.21902   0.54793   0.00000  Uiso   1.00
C508   C     0.20693   0.27057   0.95363   0.00000  Uiso   1.00
C509   C     0.13646   0.21981   0.59743   0.00000  Uiso   1.00
C510   C     0.20615   0.27101   0.90410   0.00000  Uiso   1.00
C511   C     0.19638   0.28036   0.60702   0.00000  Uiso   1.00
C512   C     0.12647   0.22973   0.89152   0.00000  Uiso   1.00
C513   C     0.19588   0.28171   0.55753   0.00000  Uiso   1.00
C514   C     0.12487   0.23004   0.94079   0.00000  Uiso   1.00
C515   C     0.16600   0.25043   0.52668   0.00000  Uiso   1.00
C516   C     0.16584   0.25029   0.97323   0.00000  Uiso   1.00
C517   C     0.06699   0.24979   0.73746   0.00000  Uiso   1.00
C518   C     0.26634   0.24988   0.76253   0.00000  Uiso   1.00
C519   C     0.01185   0.24951   0.73076   0.00000  Uiso   1.00
C520   C     0.32148   0.24963   0.76923   0.00000  Uiso   1.00
C521   C     0.12048   0.04921   0.76188   0.00000  Uiso   1.00
C522   C     0.15538   0.45434   0.70780   0.00000  Uiso   1.00
C523   C     0.12220   0.09487   0.76311   0.00000  Uiso   1.00
C524   C     0.15456   0.40864   0.70688   0.00000  Uiso   1.00
C525   C     0.16527   0.11680   0.74863   0.00000  Uiso   1.00
C526   C     0.15931   0.38512   0.75034   0.00000  Uiso   1.00
C527   C     0.20647   0.09326   0.73261   0.00000  Uiso   1.00
C528   C     0.15836   0.40920   0.79389   0.00000  Uiso   1.00
C529   C     0.20557   0.04682   0.73314   0.00000  Uiso   1.00
C530   C     0.15814   0.45572   0.79388   0.00000  Uiso   1.00
C531   C     0.16239   0.02537   0.74878   0.00000  Uiso   1.00
C532   C     0.15941   0.47756   0.75067   0.00000  Uiso   1.00
H533   H     0.32428   0.24937   0.69436   0.00000  Uiso   1.00
H534   H     0.00904   0.24970   0.80563   0.00000  Uiso   1.00
H535   H     0.08678   0.03194   0.77197   0.00000  Uiso   1.00
H536   H     0.15276   0.47237   0.67466   0.00000  Uiso   1.00
H537   H     0.11355   0.19354   0.52665   0.00000  Uiso   1.00
H538   H     0.24002   0.28603   0.97632   0.00000  Uiso   1.00
H539   H     0.22001   0.30420   0.63011   0.00000  Uiso   1.00
H540   H     0.09501   0.21366   0.86736   0.00000  Uiso   1.00
H541   H     0.21844   0.30771   0.54405   0.00000  Uiso   1.00
H542   H     0.09114   0.21487   0.95279   0.00000  Uiso   1.00
N543   N     0.16667   0.24999   0.62624   0.00000  Uiso   1.00
N544   N     0.16667   0.25001   0.87377   0.00000  Uiso   1.00
O545   O     0.16667   0.18454   0.78974   0.00000  Uiso   1.00
O546   O     0.16666   0.31547   0.71026   0.00000  Uiso   1.00
O547   O     0.16667   0.18453   0.71026   0.00000  Uiso   1.00
O548   O     0.16666   0.31547   0.78974   0.00000  Uiso   1.00
O549   O     0.09058   0.25000   0.78045   0.00000  Uiso   1.00
O550   O     0.24275   0.25000   0.71956   0.00000  Uiso   1.00
O551   O     0.09058   0.25000   0.70097   0.00000  Uiso   1.00
O552   O     0.24275   0.25001   0.79904   0.00000  Uiso   1.00
Zn553  Zn    0.16667   0.25001   0.80307   0.00000  Uiso   1.00
Zn554  Zn    0.16667   0.25000   0.69693   0.00000  Uiso   1.00
C555   C     0.07918   0.11852   0.77902   0.00000  Uiso   1.00
N556   N     0.04491   0.13746   0.79193   0.00000  Uiso   1.00
C557   C     0.14697   0.38790   0.66007   0.00000  Uiso   1.00
N558   N     0.14053   0.37179   0.62238   0.00000  Uiso   1.00
C559   C     0.25039   0.11678   0.71742   0.00000  Uiso   1.00
N560   N     0.28525   0.13556   0.70513   0.00000  Uiso   1.00
C561   C     0.15705   0.38750   0.83904   0.00000  Uiso   1.00
N562   N     0.15570   0.37065   0.87521   0.00000  Uiso   1.00
C563   C     0.24915   0.02116   0.71714   0.00000  Uiso   1.00
C564   C     0.28428   0.49684   0.74972   0.00000  Uiso   1.00
C565   C     0.32557   0.47351   0.73443   0.00000  Uiso   1.00
C566   C     0.33219   0.47433   0.68659   0.00000  Uiso   1.00
C567   C     0.29737   0.49833   0.65390   0.00000  Uiso   1.00
C568   C     0.25599   0.02166   0.66904   0.00000  Uiso   1.00
H569   H     0.28014   0.49618   0.78690   0.00000  Uiso   1.00
H570   H     0.01927   0.45493   0.75968   0.00000  Uiso   1.00
H571   H     0.03096   0.45638   0.67487   0.00000  Uiso   1.00
H572   H     0.30248   0.49891   0.61682   0.00000  Uiso   1.00
H573   H     0.22927   0.04013   0.64336   0.00000  Uiso   1.00
C574   C     0.15465   0.48143   0.83851   0.00000  Uiso   1.00
C575   C     0.19705   0.00788   0.86054   0.00000  Uiso   1.00
C576   C     0.19244   0.03309   0.90132   0.00000  Uiso   1.00
C577   C     0.14557   0.03203   0.92046   0.00000  Uiso   1.00
C578   C     0.10326   0.00566   0.89891   0.00000  Uiso   1.00
C579   C     0.10772   0.48042   0.85812   0.00000  Uiso   1.00
H580   H     0.23349   0.00918   0.84621   0.00000  Uiso   1.00
H581   H     0.22519   0.05353   0.91804   0.00000  Uiso   1.00
H582   H     0.14204   0.05163   0.95199   0.00000  Uiso   1.00
H583   H     0.06693   0.00489   0.91370   0.00000  Uiso   1.00
H584   H     0.07447   0.46044   0.84151   0.00000  Uiso   1.00
C585   C     0.10357   0.18857   0.61728   0.00000  Uiso   1.00
N586   N     0.07690   0.16339   0.63297   0.00000  Uiso   1.00
C587   C     0.24692   0.29540   0.88599   0.00000  Uiso   1.00
N588   N     0.27981   0.31536   0.87191   0.00000  Uiso   1.00
C589   C     0.50005   0.16430   0.74969   0.00000  Uiso   1.00
C590   C     0.49783   0.33643   0.75007   0.00000  Uiso   1.00
C591   C     0.46977   0.21902   0.54793   0.00000  Uiso   1.00
C592   C     0.54027   0.27057   0.95363   0.00000  Uiso   1.00
C593   C     0.46979   0.21981   0.59743   0.00000  Uiso   1.00
C594   C     0.53948   0.27101   0.90410   0.00000  Uiso   1.00
C595   C     0.52972   0.28036   0.60702   0.00000  Uiso   1.00
C596   C     0.45981   0.22973   0.89152   0.00000  Uiso   1.00
C597   C     0.52922   0.28171   0.55753   0.00000  Uiso   1.00
C598   C     0.45821   0.23004   0.94079   0.00000  Uiso   1.00
C599   C     0.49933   0.25043   0.52668   0.00000  Uiso   1.00
C600   C     0.49917   0.25029   0.97323   0.00000  Uiso   1.00
C601   C     0.40033   0.24979   0.73746   0.00000  Uiso   1.00
C602   C     0.59967   0.24988   0.76253   0.00000  Uiso   1.00
C603   C     0.34518   0.24951   0.73076   0.00000  Uiso   1.00
C604   C     0.65481   0.24963   0.76923   0.00000  Uiso   1.00
C605   C     0.45381   0.04921   0.76188   0.00000  Uiso   1.00
C606   C     0.48872   0.45434   0.70780   0.00000  Uiso   1.00
C607   C     0.45554   0.09487   0.76311   0.00000  Uiso   1.00
C608   C     0.48789   0.40864   0.70688   0.00000  Uiso   1.00
C609   C     0.49861   0.11680   0.74863   0.00000  Uiso   1.00
C610   C     0.49265   0.38512   0.75034   0.00000  Uiso   1.00
C611   C     0.53980   0.09326   0.73261   0.00000  Uiso   1.00
C612   C     0.49169   0.40920   0.79389   0.00000  Uiso   1.00
C613   C     0.53890   0.04682   0.73314   0.00000  Uiso   1.00
C614   C     0.49147   0.45572   0.79388   0.00000  Uiso   1.00
C615   C     0.49573   0.02537   0.74878   0.00000  Uiso   1.00
C616   C     0.49274   0.47756   0.75067   0.00000  Uiso   1.00
H617   H     0.65761   0.24937   0.69436   0.00000  Uiso   1.00
H618   H     0.34238   0.24970   0.80563   0.00000  Uiso   1.00
H619   H     0.42011   0.03194   0.77197   0.00000  Uiso   1.00
H620   H     0.48609   0.47237   0.67466   0.00000  Uiso   1.00
H621   H     0.44689   0.19354   0.52665   0.00000  Uiso   1.00
H622   H     0.57335   0.28603   0.97632   0.00000  Uiso   1.00
H623   H     0.55334   0.30420   0.63011   0.00000  Uiso   1.00
H624   H     0.42834   0.21366   0.86736   0.00000  Uiso   1.00
H625   H     0.55177   0.30771   0.54405   0.00000  Uiso   1.00
H626   H     0.42448   0.21487   0.95279   0.00000  Uiso   1.00
N627   N     0.50000   0.24999   0.62624   0.00000  Uiso   1.00
N628   N     0.50000   0.25001   0.87377   0.00000  Uiso   1.00
O629   O     0.50000   0.18454   0.78974   0.00000  Uiso   1.00
O630   O     0.50000   0.31547   0.71026   0.00000  Uiso   1.00
O631   O     0.50000   0.18453   0.71026   0.00000  Uiso   1.00
O632   O     0.50000   0.31547   0.78974   0.00000  Uiso   1.00
O633   O     0.42392   0.25000   0.78045   0.00000  Uiso   1.00
O634   O     0.57608   0.25000   0.71956   0.00000  Uiso   1.00
O635   O     0.42392   0.25000   0.70097   0.00000  Uiso   1.00
O636   O     0.57608   0.25001   0.79904   0.00000  Uiso   1.00
Zn637  Zn    0.50000   0.25001   0.80307   0.00000  Uiso   1.00
Zn638  Zn    0.50000   0.25000   0.69693   0.00000  Uiso   1.00
C639   C     0.41252   0.11852   0.77902   0.00000  Uiso   1.00
N640   N     0.37824   0.13746   0.79193   0.00000  Uiso   1.00
C641   C     0.48030   0.38790   0.66007   0.00000  Uiso   1.00
N642   N     0.47386   0.37179   0.62238   0.00000  Uiso   1.00
C643   C     0.58372   0.11678   0.71742   0.00000  Uiso   1.00
N644   N     0.61858   0.13556   0.70513   0.00000  Uiso   1.00
C645   C     0.49038   0.38750   0.83904   0.00000  Uiso   1.00
N646   N     0.48903   0.37065   0.87521   0.00000  Uiso   1.00
C647   C     0.58248   0.02116   0.71714   0.00000  Uiso   1.00
C648   C     0.61761   0.49684   0.74972   0.00000  Uiso   1.00
C649   C     0.65890   0.47351   0.73443   0.00000  Uiso   1.00
C650   C     0.66552   0.47433   0.68659   0.00000  Uiso   1.00
C651   C     0.63070   0.49833   0.65390   0.00000  Uiso   1.00
C652   C     0.58932   0.02166   0.66904   0.00000  Uiso   1.00
H653   H     0.61347   0.49618   0.78690   0.00000  Uiso   1.00
H654   H     0.35261   0.45493   0.75968   0.00000  Uiso   1.00
H655   H     0.36429   0.45638   0.67487   0.00000  Uiso   1.00
H656   H     0.63581   0.49891   0.61682   0.00000  Uiso   1.00
H657   H     0.56260   0.04013   0.64336   0.00000  Uiso   1.00
C658   C     0.48798   0.48143   0.83851   0.00000  Uiso   1.00
C659   C     0.53039   0.00788   0.86054   0.00000  Uiso   1.00
C660   C     0.52577   0.03309   0.90132   0.00000  Uiso   1.00
C661   C     0.47890   0.03203   0.92046   0.00000  Uiso   1.00
C662   C     0.43659   0.00566   0.89891   0.00000  Uiso   1.00
C663   C     0.44105   0.48042   0.85812   0.00000  Uiso   1.00
H664   H     0.56683   0.00918   0.84621   0.00000  Uiso   1.00
H665   H     0.55852   0.05353   0.91804   0.00000  Uiso   1.00
H666   H     0.47538   0.05163   0.95199   0.00000  Uiso   1.00
H667   H     0.40027   0.00489   0.91370   0.00000  Uiso   1.00
H668   H     0.40781   0.46044   0.84151   0.00000  Uiso   1.00
C669   C     0.43690   0.18857   0.61728   0.00000  Uiso   1.00
N670   N     0.41024   0.16339   0.63297   0.00000  Uiso   1.00
C671   C     0.58025   0.29540   0.88599   0.00000  Uiso   1.00
N672   N     0.61314   0.31536   0.87191   0.00000  Uiso   1.00
C673   C     0.83338   0.16430   0.74969   0.00000  Uiso   1.00
C674   C     0.83117   0.33643   0.75007   0.00000  Uiso   1.00
C675   C     0.80310   0.21902   0.54793   0.00000  Uiso   1.00
C676   C     0.87360   0.27057   0.95363   0.00000  Uiso   1.00
C677   C     0.80313   0.21981   0.59743   0.00000  Uiso   1.00
C678   C     0.87281   0.27101   0.90410   0.00000  Uiso   1.00
C679   C     0.86305   0.28036   0.60702   0.00000  Uiso   1.00
C680   C     0.79314   0.22973   0.89152   0.00000  Uiso   1.00
C681   C     0.86255   0.28171   0.55753   0.00000  Uiso   1.00
C682   C     0.79154   0.23004   0.94079   0.00000  Uiso   1.00
C683   C     0.83267   0.25043   0.52668   0.00000  Uiso   1.00
C684   C     0.83251   0.25029   0.97323   0.00000  Uiso   1.00
C685   C     0.73366   0.24979   0.73746   0.00000  Uiso   1.00
C686   C     0.93300   0.24988   0.76253   0.00000  Uiso   1.00
C687   C     0.67851   0.24951   0.73076   0.00000  Uiso   1.00
C688   C     0.98814   0.24963   0.76923   0.00000  Uiso   1.00
C689   C     0.78714   0.04921   0.76188   0.00000  Uiso   1.00
C690   C     0.82205   0.45434   0.70780   0.00000  Uiso   1.00
C691   C     0.78887   0.09487   0.76311   0.00000  Uiso   1.00
C692   C     0.82122   0.40864   0.70688   0.00000  Uiso   1.00
C693   C     0.83194   0.11680   0.74863   0.00000  Uiso   1.00
C694   C     0.82598   0.38512   0.75034   0.00000  Uiso   1.00
C695   C     0.87314   0.09326   0.73261   0.00000  Uiso   1.00
C696   C     0.82503   0.40920   0.79389   0.00000  Uiso   1.00
C697   C     0.87223   0.04682   0.73314   0.00000  Uiso   1.00
C698   C     0.82480   0.45572   0.79388   0.00000  Uiso   1.00
C699   C     0.82906   0.02537   0.74878   0.00000  Uiso   1.00
C700   C     0.82608   0.47756   0.75067   0.00000  Uiso   1.00
H701   H     0.99094   0.24937   0.69436   0.00000  Uiso   1.00
H702   H     0.67571   0.24970   0.80563   0.00000  Uiso   1.00
H703   H     0.75345   0.03194   0.77197   0.00000  Uiso   1.00
H704   H     0.81942   0.47237   0.67466   0.00000  Uiso   1.00
H705   H     0.78022   0.19354   0.52665   0.00000  Uiso   1.00
H706   H     0.90669   0.28603   0.97632   0.00000  Uiso   1.00
H707   H     0.88668   0.30420   0.63011   0.00000  Uiso   1.00
H708   H     0.76167   0.21366   0.86736   0.00000  Uiso   1.00
H709   H     0.88511   0.30771   0.54405   0.00000  Uiso   1.00
H710   H     0.75781   0.21487   0.95279   0.00000  Uiso   1.00
N711   N     0.83333   0.24999   0.62624   0.00000  Uiso   1.00
N712   N     0.83333   0.25001   0.87377   0.00000  Uiso   1.00
O713   O     0.83334   0.18454   0.78974   0.00000  Uiso   1.00
O714   O     0.83333   0.31547   0.71026   0.00000  Uiso   1.00
O715   O     0.83334   0.18453   0.71026   0.00000  Uiso   1.00
O716   O     0.83333   0.31547   0.78974   0.00000  Uiso   1.00
O717   O     0.75725   0.25000   0.78045   0.00000  Uiso   1.00
O718   O     0.90942   0.25000   0.71956   0.00000  Uiso   1.00
O719   O     0.75725   0.25000   0.70097   0.00000  Uiso   1.00
O720   O     0.90942   0.25001   0.79904   0.00000  Uiso   1.00
Zn721  Zn    0.83333   0.25001   0.80307   0.00000  Uiso   1.00
Zn722  Zn    0.83333   0.25000   0.69693   0.00000  Uiso   1.00
C723   C     0.74585   0.11852   0.77902   0.00000  Uiso   1.00
N724   N     0.71158   0.13746   0.79193   0.00000  Uiso   1.00
C725   C     0.81364   0.38790   0.66007   0.00000  Uiso   1.00
N726   N     0.80720   0.37179   0.62238   0.00000  Uiso   1.00
C727   C     0.91706   0.11678   0.71742   0.00000  Uiso   1.00
N728   N     0.95191   0.13556   0.70513   0.00000  Uiso   1.00
C729   C     0.82372   0.38750   0.83904   0.00000  Uiso   1.00
N730   N     0.82236   0.37065   0.87521   0.00000  Uiso   1.00
C731   C     0.91582   0.02116   0.71714   0.00000  Uiso   1.00
C732   C     0.95094   0.49684   0.74972   0.00000  Uiso   1.00
C733   C     0.99224   0.47351   0.73443   0.00000  Uiso   1.00
C734   C     0.99886   0.47433   0.68659   0.00000  Uiso   1.00
C735   C     0.96403   0.49833   0.65390   0.00000  Uiso   1.00
C736   C     0.92266   0.02166   0.66904   0.00000  Uiso   1.00
H737   H     0.94680   0.49618   0.78690   0.00000  Uiso   1.00
H738   H     0.68594   0.45493   0.75968   0.00000  Uiso   1.00
H739   H     0.69762   0.45638   0.67487   0.00000  Uiso   1.00
H740   H     0.96914   0.49891   0.61682   0.00000  Uiso   1.00
H741   H     0.89594   0.04013   0.64336   0.00000  Uiso   1.00
C742   C     0.82132   0.48143   0.83851   0.00000  Uiso   1.00
C743   C     0.86372   0.00788   0.86054   0.00000  Uiso   1.00
C744   C     0.85911   0.03309   0.90132   0.00000  Uiso   1.00
C745   C     0.81224   0.03203   0.92046   0.00000  Uiso   1.00
C746   C     0.76993   0.00566   0.89891   0.00000  Uiso   1.00
C747   C     0.77438   0.48042   0.85812   0.00000  Uiso   1.00
H748   H     0.90016   0.00918   0.84621   0.00000  Uiso   1.00
H749   H     0.89186   0.05353   0.91804   0.00000  Uiso   1.00
H750   H     0.80871   0.05163   0.95199   0.00000  Uiso   1.00
H751   H     0.73360   0.00489   0.91370   0.00000  Uiso   1.00
H752   H     0.74114   0.46044   0.84151   0.00000  Uiso   1.00
C753   C     0.77023   0.18857   0.61728   0.00000  Uiso   1.00
N754   N     0.74357   0.16339   0.63297   0.00000  Uiso   1.00
C755   C     0.91359   0.29540   0.88599   0.00000  Uiso   1.00
N756   N     0.94647   0.31536   0.87191   0.00000  Uiso   1.00
C757   C     0.16672   0.66430   0.74969   0.00000  Uiso   1.00
C758   C     0.16450   0.83643   0.75007   0.00000  Uiso   1.00
C759   C     0.13643   0.71902   0.54793   0.00000  Uiso   1.00
C760   C     0.20693   0.77057   0.95363   0.00000  Uiso   1.00
C761   C     0.13646   0.71981   0.59743   0.00000  Uiso   1.00
C762   C     0.20615   0.77101   0.90410   0.00000  Uiso   1.00
C763   C     0.19638   0.78036   0.60702   0.00000  Uiso   1.00
C764   C     0.12647   0.72973   0.89152   0.00000  Uiso   1.00
C765   C     0.19588   0.78171   0.55753   0.00000  Uiso   1.00
C766   C     0.12487   0.73004   0.94079   0.00000  Uiso   1.00
C767   C     0.16600   0.75043   0.52668   0.00000  Uiso   1.00
C768   C     0.16584   0.75029   0.97323   0.00000  Uiso   1.00
C769   C     0.06699   0.74979   0.73746   0.00000  Uiso   1.00
C770   C     0.26634   0.74988   0.76253   0.00000  Uiso   1.00
C771   C     0.01185   0.74951   0.73076   0.00000  Uiso   1.00
C772   C     0.32148   0.74963   0.76923   0.00000  Uiso   1.00
C773   C     0.12048   0.54921   0.76188   0.00000  Uiso   1.00
C774   C     0.15538   0.95434   0.70780   0.00000  Uiso   1.00
C775   C     0.12220   0.59487   0.76311   0.00000  Uiso   1.00
C776   C     0.15456   0.90864   0.70688   0.00000  Uiso   1.00
C777   C     0.16527   0.61680   0.74863   0.00000  Uiso   1.00
C778   C     0.15931   0.88512   0.75034   0.00000  Uiso   1.00
C779   C     0.20647   0.59326   0.73261   0.00000  Uiso   1.00
C780   C     0.15836   0.90920   0.79389   0.00000  Uiso   1.00
C781   C     0.20557   0.54682   0.73314   0.00000  Uiso   1.00
C782   C     0.15814   0.95572   0.79388   0.00000  Uiso   1.00
C783   C     0.16239   0.52537   0.74878   0.00000  Uiso   1.00
C784   C     0.15941   0.97756   0.75067   0.00000  Uiso   1.00
H785   H     0.32428   0.74937   0.69436   0.00000  Uiso   1.00
H786   H     0.00904   0.74970   0.80563   0.00000  Uiso   1.00
H787   H     0.08678   0.53194   0.77197   0.00000  Uiso   1.00
H788   H     0.15276   0.97237   0.67466   0.00000  Uiso   1.00
H789   H     0.11355   0.69354   0.52665   0.00000  Uiso   1.00
H790   H     0.24002   0.78603   0.97632   0.00000  Uiso   1.00
H791   H     0.22001   0.80420   0.63011   0.00000  Uiso   1.00
H792   H     0.09501   0.71366   0.86736   0.00000  Uiso   1.00
H793   H     0.21844   0.80771   0.54405   0.00000  Uiso   1.00
H794   H     0.09114   0.71487   0.95279   0.00000  Uiso   1.00
N795   N     0.16667   0.74999   0.62624   0.00000  Uiso   1.00
N796   N     0.16667   0.75001   0.87377   0.00000  Uiso   1.00
O797   O     0.16667   0.68454   0.78974   0.00000  Uiso   1.00
O798   O     0.16666   0.81547   0.71026   0.00000  Uiso   1.00
O799   O     0.16667   0.68453   0.71026   0.00000  Uiso   1.00
O800   O     0.16666   0.81547   0.78974   0.00000  Uiso   1.00
O801   O     0.09058   0.75000   0.78045   0.00000  Uiso   1.00
O802   O     0.24275   0.75000   0.71956   0.00000  Uiso   1.00
O803   O     0.09058   0.75000   0.70097   0.00000  Uiso   1.00
O804   O     0.24275   0.75001   0.79904   0.00000  Uiso   1.00
Zn805  Zn    0.16667   0.75001   0.80307   0.00000  Uiso   1.00
Zn806  Zn    0.16667   0.75000   0.69693   0.00000  Uiso   1.00
C807   C     0.07918   0.61852   0.77902   0.00000  Uiso   1.00
N808   N     0.04491   0.63746   0.79193   0.00000  Uiso   1.00
C809   C     0.14697   0.88790   0.66007   0.00000  Uiso   1.00
N810   N     0.14053   0.87179   0.62238   0.00000  Uiso   1.00
C811   C     0.25039   0.61678   0.71742   0.00000  Uiso   1.00
N812   N     0.28525   0.63556   0.70513   0.00000  Uiso   1.00
C813   C     0.15705   0.88750   0.83904   0.00000  Uiso   1.00
N814   N     0.15570   0.87065   0.87521   0.00000  Uiso   1.00
C815   C     0.24915   0.52116   0.71714   0.00000  Uiso   1.00
C816   C     0.28428   0.99684   0.74972   0.00000  Uiso   1.00
C817   C     0.32557   0.97351   0.73443   0.00000  Uiso   1.00
C818   C     0.33219   0.97433   0.68659   0.00000  Uiso   1.00
C819   C     0.29737   0.99833   0.65390   0.00000  Uiso   1.00
C820   C     0.25599   0.52166   0.66904   0.00000  Uiso   1.00
H821   H     0.28014   0.99618   0.78690   0.00000  Uiso   1.00
H822   H     0.01927   0.95493   0.75968   0.00000  Uiso   1.00
H823   H     0.03096   0.95638   0.67487   0.00000  Uiso   1.00
H824   H     0.30248   0.99891   0.61682   0.00000  Uiso   1.00
H825   H     0.22927   0.54013   0.64336   0.00000  Uiso   1.00
C826   C     0.15465   0.98143   0.83851   0.00000  Uiso   1.00
C827   C     0.19705   0.50788   0.86054   0.00000  Uiso   1.00
C828   C     0.19244   0.53309   0.90132   0.00000  Uiso   1.00
C829   C     0.14557   0.53203   0.92046   0.00000  Uiso   1.00
C830   C     0.10326   0.50566   0.89891   0.00000  Uiso   1.00
C831   C     0.10772   0.98042   0.85812   0.00000  Uiso   1.00
H832   H     0.23349   0.50918   0.84621   0.00000  Uiso   1.00
H833   H     0.22519   0.55353   0.91804   0.00000  Uiso   1.00
H834   H     0.14204   0.55163   0.95199   0.00000  Uiso   1.00
H835   H     0.06693   0.50489   0.91370   0.00000  Uiso   1.00
H836   H     0.07447   0.96044   0.84151   0.00000  Uiso   1.00
C837   C     0.10357   0.68857   0.61728   0.00000  Uiso   1.00
N838   N     0.07690   0.66339   0.63297   0.00000  Uiso   1.00
C839   C     0.24692   0.79540   0.88599   0.00000  Uiso   1.00
N840   N     0.27981   0.81536   0.87191   0.00000  Uiso   1.00
C841   C     0.50005   0.66430   0.74969   0.00000  Uiso   1.00
C842   C     0.49783   0.83643   0.75007   0.00000  Uiso   1.00
C843   C     0.46977   0.71902   0.54793   0.00000  Uiso   1.00
C844   C     0.54027   0.77057   0.95363   0.00000  Uiso   1.00
C845   C     0.46979   0.71981   0.59743   0.00000  Uiso   1.00
C846   C     0.53948   0.77101   0.90410   0.00000  Uiso   1.00
C847   C     0.52972   0.78036   0.60702   0.00000  Uiso   1.00
C848   C     0.45981   0.72973   0.89152   0.00000  Uiso   1.00
C849   C     0.52922   0.78171   0.55753   0.00000  Uiso   1.00
C850   C     0.45821   0.73004   0.94079   0.00000  Uiso   1.00
C851   C     0.49933   0.75043   0.52668   0.00000  Uiso   1.00
C852   C     0.49917   0.75029   0.97323   0.00000  Uiso   1.00
C853   C     0.40033   0.74979   0.73746   0.00000  Uiso   1.00
C854   C     0.59967   0.74988   0.76253   0.00000  Uiso   1.00
C855   C     0.34518   0.74951   0.73076   0.00000  Uiso   1.00
C856   C     0.65481   0.74963   0.76923   0.00000  Uiso   1.00
C857   C     0.45381   0.54921   0.76188   0.00000  Uiso   1.00
C858   C     0.48872   0.95434   0.70780   0.00000  Uiso   1.00
C859   C     0.45554   0.59487   0.76311   0.00000  Uiso   1.00
C860   C     0.48789   0.90864   0.70688   0.00000  Uiso   1.00
C861   C     0.49861   0.61680   0.74863   0.00000  Uiso   1.00
C862   C     0.49265   0.88512   0.75034   0.00000  Uiso   1.00
C863   C     0.53980   0.59326   0.73261   0.00000  Uiso   1.00
C864   C     0.49169   0.90920   0.79389   0.00000  Uiso   1.00
C865   C     0.53890   0.54682   0.73314   0.00000  Uiso   1.00
C866   C     0.49147   0.95572   0.79388   0.00000  Uiso   1.00
C867   C     0.49573   0.52537   0.74878   0.00000  Uiso   1.00
C868   C     0.49274   0.97756   0.75067   0.00000  Uiso   1.00
H869   H     0.65761   0.74937   0.69436   0.00000  Uiso   1.00
H870   H     0.34238   0.74970   0.80563   0.00000  Uiso   1.00
H871   H     0.42011   0.53194   0.77197   0.00000  Uiso   1.00
H872   H     0.48609   0.97237   0.67466   0.00000  Uiso   1.00
H873   H     0.44689   0.69354   0.52665   0.00000  Uiso   1.00
H874   H     0.57335   0.78603   0.97632   0.00000  Uiso   1.00
H875   H     0.55334   0.80420   0.63011   0.00000  Uiso   1.00
H876   H     0.42834   0.71366   0.86736   0.00000  Uiso   1.00
H877   H     0.55177   0.80771   0.54405   0.00000  Uiso   1.00
H878   H     0.42448   0.71487   0.95279   0.00000  Uiso   1.00
N879   N     0.50000   0.74999   0.62624   0.00000  Uiso   1.00
N880   N     0.50000   0.75001   0.87377   0.00000  Uiso   1.00
O881   O     0.50000   0.68454   0.78974   0.00000  Uiso   1.00
O882   O     0.50000   0.81547   0.71026   0.00000  Uiso   1.00
O883   O     0.50000   0.68453   0.71026   0.00000  Uiso   1.00
O884   O     0.50000   0.81547   0.78974   0.00000  Uiso   1.00
O885   O     0.42392   0.75000   0.78045   0.00000  Uiso   1.00
O886   O     0.57608   0.75000   0.71956   0.00000  Uiso   1.00
O887   O     0.42392   0.75000   0.70097   0.00000  Uiso   1.00
O888   O     0.57608   0.75001   0.79904   0.00000  Uiso   1.00
Zn889  Zn    0.50000   0.75001   0.80307   0.00000  Uiso   1.00
Zn890  Zn    0.50000   0.75000   0.69693   0.00000  Uiso   1.00
C891   C     0.41252   0.61852   0.77902   0.00000  Uiso   1.00
N892   N     0.37824   0.63746   0.79193   0.00000  Uiso   1.00
C893   C     0.48030   0.88790   0.66007   0.00000  Uiso   1.00
N894   N     0.47386   0.87179   0.62238   0.00000  Uiso   1.00
C895   C     0.58372   0.61678   0.71742   0.00000  Uiso   1.00
N896   N     0.61858   0.63556   0.70513   0.00000  Uiso   1.00
C897   C     0.49038   0.88750   0.83904   0.00000  Uiso   1.00
N898   N     0.48903   0.87065   0.87521   0.00000  Uiso   1.00
C899   C     0.58248   0.52116   0.71714   0.00000  Uiso   1.00
C900   C     0.61761   0.99684   0.74972   0.00000  Uiso   1.00
C901   C     0.65890   0.97351   0.73443   0.00000  Uiso   1.00
C902   C     0.66552   0.97433   0.68659   0.00000  Uiso   1.00
C903   C     0.63070   0.99833   0.65390   0.00000  Uiso   1.00
C904   C     0.58932   0.52166   0.66904   0.00000  Uiso   1.00
H905   H     0.61347   0.99618   0.78690   0.00000  Uiso   1.00
H906   H     0.35261   0.95493   0.75968   0.00000  Uiso   1.00
H907   H     0.36429   0.95638   0.67487   0.00000  Uiso   1.00
H908   H     0.63581   0.99891   0.61682   0.00000  Uiso   1.00
H909   H     0.56260   0.54013   0.64336   0.00000  Uiso   1.00
C910   C     0.48798   0.98143   0.83851   0.00000  Uiso   1.00
C911   C     0.53039   0.50788   0.86054   0.00000  Uiso   1.00
C912   C     0.52577   0.53309   0.90132   0.00000  Uiso   1.00
C913   C     0.47890   0.53203   0.92046   0.00000  Uiso   1.00
C914   C     0.43659   0.50566   0.89891   0.00000  Uiso   1.00
C915   C     0.44105   0.98042   0.85812   0.00000  Uiso   1.00
H916   H     0.56683   0.50918   0.84621   0.00000  Uiso   1.00
H917   H     0.55852   0.55353   0.91804   0.00000  Uiso   1.00
H918   H     0.47538   0.55163   0.95199   0.00000  Uiso   1.00
H919   H     0.40027   0.50489   0.91370   0.00000  Uiso   1.00
H920   H     0.40781   0.96044   0.84151   0.00000  Uiso   1.00
C921   C     0.43690   0.68857   0.61728   0.00000  Uiso   1.00
N922   N     0.41024   0.66339   0.63297   0.00000  Uiso   1.00
C923   C     0.58025   0.79540   0.88599   0.00000  Uiso   1.00
N924   N     0.61314   0.81536   0.87191   0.00000  Uiso   1.00
C925   C     0.83338   0.66430   0.74969   0.00000  Uiso   1.00
C926   C     0.83117   0.83643   0.75007   0.00000  Uiso   1.00
C927   C     0.80310   0.71902   0.54793   0.00000  Uiso   1.00
C928   C     0.87360   0.77057   0.95363   0.00000  Uiso   1.00
C929   C     0.80313   0.71981   0.59743   0.00000  Uiso   1.00
C930   C     0.87281   0.77101   0.90410   0.00000  Uiso   1.00
C931   C     0.86305   0.78036   0.60702   0.00000  Uiso   1.00
C932   C     0.79314   0.72973   0.89152   0.00000  Uiso   1.00
C933   C     0.86255   0.78171   0.55753   0.00000  Uiso   1.00
C934   C     0.79154   0.73004   0.94079   0.00000  Uiso   1.00
C935   C     0.83267   0.75043   0.52668   0.00000  Uiso   1.00
C936   C     0.83251   0.75029   0.97323   0.00000  Uiso   1.00
C937   C     0.73366   0.74979   0.73746   0.00000  Uiso   1.00
C938   C     0.93300   0.74988   0.76253   0.00000  Uiso   1.00
C939   C     0.67851   0.74951   0.73076   0.00000  Uiso   1.00
C940   C     0.98814   0.74963   0.76923   0.00000  Uiso   1.00
C941   C     0.78714   0.54921   0.76188   0.00000  Uiso   1.00
C942   C     0.82205   0.95434   0.70780   0.00000  Uiso   1.00
C943   C     0.78887   0.59487   0.76311   0.00000  Uiso   1.00
C944   C     0.82122   0.90864   0.70688   0.00000  Uiso   1.00
C945   C     0.83194   0.61680   0.74863   0.00000  Uiso   1.00
C946   C     0.82598   0.88512   0.75034   0.00000  Uiso   1.00
C947   C     0.87314   0.59326   0.73261   0.00000  Uiso   1.00
C948   C     0.82503   0.90920   0.79389   0.00000  Uiso   1.00
C949   C     0.87223   0.54682   0.73314   0.00000  Uiso   1.00
C950   C     0.82480   0.95572   0.79388   0.00000  Uiso   1.00
C951   C     0.82906   0.52537   0.74878   0.00000  Uiso   1.00
C952   C     0.82608   0.97756   0.75067   0.00000  Uiso   1.00
H953   H     0.99094   0.74937   0.69436   0.00000  Uiso   1.00
H954   H     0.67571   0.74970   0.80563   0.00000  Uiso   1.00
H955   H     0.75345   0.53194   0.77197   0.00000  Uiso   1.00
H956   H     0.81942   0.97237   0.67466   0.00000  Uiso   1.00
H957   H     0.78022   0.69354   0.52665   0.00000  Uiso   1.00
H958   H     0.90669   0.78603   0.97632   0.00000  Uiso   1.00
H959   H     0.88668   0.80420   0.63011   0.00000  Uiso   1.00
H960   H     0.76167   0.71366   0.86736   0.00000  Uiso   1.00
H961   H     0.88511   0.80771   0.54405   0.00000  Uiso   1.00
H962   H     0.75781   0.71487   0.95279   0.00000  Uiso   1.00
N963   N     0.83333   0.74999   0.62624   0.00000  Uiso   1.00
N964   N     0.83333   0.75001   0.87377   0.00000  Uiso   1.00
O965   O     0.83334   0.68454   0.78974   0.00000  Uiso   1.00
O966   O     0.83333   0.81547   0.71026   0.00000  Uiso   1.00
O967   O     0.83334   0.68453   0.71026   0.00000  Uiso   1.00
O968   O     0.83333   0.81547   0.78974   0.00000  Uiso   1.00
O969   O     0.75725   0.75000   0.78045   0.00000  Uiso   1.00
O970   O     0.90942   0.75000   0.71956   0.00000  Uiso   1.00
O971   O     0.75725   0.75000   0.70097   0.00000  Uiso   1.00
O972   O     0.90942   0.75001   0.79904   0.00000  Uiso   1.00
Zn973  Zn    0.83333   0.75001   0.80307   0.00000  Uiso   1.00
Zn974  Zn    0.83333   0.75000   0.69693   0.00000  Uiso   1.00
C975   C     0.74585   0.61852   0.77902   0.00000  Uiso   1.00
N976   N     0.71158   0.63746   0.79193   0.00000  Uiso   1.00
C977   C     0.81364   0.88790   0.66007   0.00000  Uiso   1.00
N978   N     0.80720   0.87179   0.62238   0.00000  Uiso   1.00
C979   C     0.91706   0.61678   0.71742   0.00000  Uiso   1.00
N980   N     0.95191   0.63556   0.70513   0.00000  Uiso   1.00
C981   C     0.82372   0.88750   0.83904   0.00000  Uiso   1.00
N982   N     0.82236   0.87065   0.87521   0.00000  Uiso   1.00
C983   C     0.91582   0.52116   0.71714   0.00000  Uiso   1.00
C984   C     0.95094   0.99684   0.74972   0.00000  Uiso   1.00
C985   C     0.99224   0.97351   0.73443   0.00000  Uiso   1.00
C986   C     0.99886   0.97433   0.68659   0.00000  Uiso   1.00
C987   C     0.96403   0.99833   0.65390   0.00000  Uiso   1.00
C988   C     0.92266   0.52166   0.66904   0.00000  Uiso   1.00
H989   H     0.94680   0.99618   0.78690   0.00000  Uiso   1.00
H990   H     0.68594   0.95493   0.75968   0.00000  Uiso   1.00
H991   H     0.69762   0.95638   0.67487   0.00000  Uiso   1.00
H992   H     0.96914   0.99891   0.61682   0.00000  Uiso   1.00
H993   H     0.89594   0.54013   0.64336   0.00000  Uiso   1.00
C994   C     0.82132   0.98143   0.83851   0.00000  Uiso   1.00
C995   C     0.86372   0.50788   0.86054   0.00000  Uiso   1.00
C996   C     0.85911   0.53309   0.90132   0.00000  Uiso   1.00
C997   C     0.81224   0.53203   0.92046   0.00000  Uiso   1.00
C998   C     0.76993   0.50566   0.89891   0.00000  Uiso   1.00
C999   C     0.77438   0.98042   0.85812   0.00000  Uiso   1.00
H1000  H     0.90016   0.50918   0.84621   0.00000  Uiso   1.00
H1001  H     0.89186   0.55353   0.91804   0.00000  Uiso   1.00
H1002  H     0.80871   0.55163   0.95199   0.00000  Uiso   1.00
H1003  H     0.73360   0.50489   0.91370   0.00000  Uiso   1.00
H1004  H     0.74114   0.96044   0.84151   0.00000  Uiso   1.00
C1005  C     0.77023   0.68857   0.61728   0.00000  Uiso   1.00
N1006  N     0.74357   0.66339   0.63297   0.00000  Uiso   1.00
C1007  C     0.91359   0.79540   0.88599   0.00000  Uiso   1.00
N1008  N     0.94647   0.81536   0.87191   0.00000  Uiso   1.00
loop_
_geom_bond_atom_site_label_1
_geom_bond_atom_site_label_2
_geom_bond_distance
_geom_bond_site_symmetry_2
_ccdc_geom_bond_type
C1     C21     1.431   .     S
C1     O43     1.282   .     A
C1     O41     1.284   .     A
C2     O44     1.293   .     A
C2     C22     1.474   .     S
C2     O42     1.297   .     A
C3     H33     1.081   .     S
C3     C5      1.406   .     A
C3     C11     1.409   .     A
C4     C12     1.408   .     A
C4     H34     1.081   .     S
C4     C6      1.405   .     A
C5     C81     1.439   .     S
C5     N39     1.367   .     A
C6     N40     1.369   .     A
C6     C83     1.438   .     S
C7     C9      1.405   .     A
C7     H35     1.082   .     S
C7     N39     1.360   .     A
C8     H36     1.082   .     S
C8     C10     1.407   .     A
C8     N40     1.362   .     A
C9     H37     1.080   .     S
C9     C11     1.415   .     A
C10    C12     1.414   .     A
C10    H38     1.080   .     S
C11    C516    1.518   1_554 S
C12    C515    1.518   .     S
C13    O47     1.281   .     A
C13    C15     1.400   .     S
C13    O45     1.275   .     A
C14    O46     1.275   .     A
C14    C16     1.400   .     S
C14    O48     1.281   .     A
C15    C184    1.332   1_455 S
C15    H197    1.088   1_455 S
C16    C99     1.332   .     S
C16    H114    1.088   .     S
C17    C27     1.395   .     A
C17    H31     1.085   .     S
C17    C19     1.376   .     A
C18    C28     1.386   .     A
C18    H32     1.086   .     S
C18    C20     1.376   .     A
C19    C21     1.403   .     A
C19    C51     1.447   .     S
C20    C22     1.421   .     A
C20    C53     1.446   .     S
C21    C23     1.409   .     A
C22    C24     1.430   .     A
C23    C55     1.453   .     S
C23    C25     1.399   .     A
C24    C26     1.401   .     A
C24    C57     1.452   .     S
C25    C27     1.413   .     A
C25    C59     1.491   .     S
C26    C70     1.492   .     S
C26    C28     1.405   .     A
C27    C280    1.444   1_545 S
C28    C279    1.444   .     S
H29    C99     1.088   .     S
H30    C184    1.088   1_455 S
N39    Zn50    2.009   .     S
N40    Zn49    2.009   .     S
O41    Zn49    2.003   .     S
O42    Zn50    2.003   .     S
O43    Zn50    2.013   .     S
O44    Zn49    2.013   .     S
O45    Zn49    1.960   .     S
O46    Zn50    1.960   .     S
O47    Zn50    1.976   .     S
O48    Zn49    1.976   .     S
C51    N52     1.157   .     T
C53    N54     1.157   .     T
C55    N56     1.157   .     T
C57    N58     1.157   .     T
C59    C64     1.405   .     A
C59    C312    1.405   1_545 S
C60    C61     1.399   .     A
C60    H65     1.079   .     S
C60    C311    1.405   .     S
C61    C62     1.397   .     A
C61    H150    1.082   .     S
C62    C63     1.397   .     A
C62    H151    1.083   .     S
C63    H68     1.082   .     S
C63    C316    1.399   .     S
C64    H69     1.083   .     S
C64    C315    1.399   1_545 S
H66    C229    1.082   1_455 S
H67    C230    1.083   1_455 S
C70    C75     1.406   .     A
C70    C323    1.404   .     S
C71    H76     1.079   .     S
C71    C72     1.398   .     A
C71    C322    1.404   1_545 S
C72    H77     1.082   .     S
C72    C73     1.397   .     A
C73    C74     1.397   .     A
C73    H78     1.082   .     S
C74    H79     1.082   .     S
C74    C327    1.398   1_545 S
C75    H80     1.083   .     S
C75    C326    1.398   .     S
C81    N82     1.158   .     T
C83    N84     1.158   .     T
C85    C105    1.431   .     S
C85    O127    1.282   .     A
C85    O125    1.284   .     A
C86    O128    1.293   .     A
C86    C106    1.474   .     S
C86    O126    1.297   .     A
C87    H117    1.081   .     S
C87    C89     1.406   .     A
C87    C95     1.409   .     A
C88    C96     1.408   .     A
C88    H118    1.081   .     S
C88    C90     1.405   .     A
C89    C165    1.439   .     S
C89    N123    1.367   .     A
C90    N124    1.369   .     A
C90    C167    1.438   .     S
C91    C93     1.405   .     A
C91    H119    1.082   .     S
C91    N123    1.360   .     A
C92    H120    1.082   .     S
C92    C94     1.407   .     A
C92    N124    1.362   .     A
C93    H121    1.080   .     S
C93    C95     1.415   .     A
C94    C96     1.414   .     A
C94    H122    1.080   .     S
C95    C600    1.518   1_554 S
C96    C599    1.518   .     S
C97    O131    1.281   .     A
C97    C99     1.400   .     S
C97    O129    1.275   .     A
C98    O130    1.275   .     A
C98    C100    1.400   .     S
C98    O132    1.281   .     A
C100   C183    1.332   .     S
C100   H198    1.088   .     S
C101   C111    1.395   .     A
C101   H115    1.085   .     S
C101   C103    1.376   .     A
C102   C112    1.386   .     A
C102   H116    1.086   .     S
C102   C104    1.376   .     A
C103   C105    1.403   .     A
C103   C135    1.447   .     S
C104   C106    1.421   .     A
C104   C137    1.446   .     S
C105   C107    1.409   .     A
C106   C108    1.430   .     A
C107   C139    1.453   .     S
C107   C109    1.399   .     A
C108   C110    1.401   .     A
C108   C141    1.452   .     S
C109   C111    1.413   .     A
C109   C143    1.491   .     S
C110   C154    1.492   .     S
C110   C112    1.405   .     A
C111   C364    1.444   1_545 S
C112   C363    1.444   .     S
H113   C183    1.088   .     S
N123   Zn134   2.009   .     S
N124   Zn133   2.009   .     S
O125   Zn133   2.003   .     S
O126   Zn134   2.003   .     S
O127   Zn134   2.013   .     S
O128   Zn133   2.013   .     S
O129   Zn133   1.960   .     S
O130   Zn134   1.960   .     S
O131   Zn134   1.976   .     S
O132   Zn133   1.976   .     S
C135   N136    1.157   .     T
C137   N138    1.157   .     T
C139   N140    1.157   .     T
C141   N142    1.157   .     T
C143   C148    1.405   .     A
C143   C396    1.405   1_545 S
C144   C145    1.399   .     A
C144   H149    1.079   .     S
C144   C395    1.405   .     S
C145   C146    1.397   .     A
C145   H234    1.082   .     S
C146   C147    1.397   .     A
C146   H235    1.083   .     S
C147   H152    1.082   .     S
C147   C400    1.399   .     S
C148   H153    1.083   .     S
C148   C399    1.399   1_545 S
C154   C159    1.406   .     A
C154   C407    1.404   .     S
C155   H160    1.079   .     S
C155   C156    1.398   .     A
C155   C406    1.404   1_545 S
C156   H161    1.082   .     S
C156   C157    1.397   .     A
C157   C158    1.397   .     A
C157   H162    1.082   .     S
C158   H163    1.082   .     S
C158   C411    1.398   1_545 S
C159   H164    1.083   .     S
C159   C410    1.398   .     S
C165   N166    1.158   .     T
C167   N168    1.158   .     T
C169   C189    1.431   .     S
C169   O211    1.282   .     A
C169   O209    1.284   .     A
C170   O212    1.293   .     A
C170   C190    1.474   .     S
C170   O210    1.297   .     A
C171   H201    1.081   .     S
C171   C173    1.406   .     A
C171   C179    1.409   .     A
C172   C180    1.408   .     A
C172   H202    1.081   .     S
C172   C174    1.405   .     A
C173   C249    1.439   .     S
C173   N207    1.367   .     A
C174   N208    1.369   .     A
C174   C251    1.438   .     S
C175   C177    1.405   .     A
C175   H203    1.082   .     S
C175   N207    1.360   .     A
C176   H204    1.082   .     S
C176   C178    1.407   .     A
C176   N208    1.362   .     A
C177   H205    1.080   .     S
C177   C179    1.415   .     A
C178   C180    1.414   .     A
C178   H206    1.080   .     S
C179   C684    1.518   1_554 S
C180   C683    1.518   .     S
C181   O215    1.281   .     A
C181   C183    1.400   .     S
C181   O213    1.275   .     A
C182   O214    1.275   .     A
C182   C184    1.400   .     S
C182   O216    1.281   .     A
C184   C15     1.332   1_655 S
C184   H30     1.088   1_655 S
C185   C195    1.395   .     A
C185   H199    1.085   .     S
C185   C187    1.376   .     A
C186   C196    1.386   .     A
C186   H200    1.086   .     S
C186   C188    1.376   .     A
C187   C189    1.403   .     A
C187   C219    1.447   .     S
C188   C190    1.421   .     A
C188   C221    1.446   .     S
C189   C191    1.409   .     A
C190   C192    1.430   .     A
C191   C223    1.453   .     S
C191   C193    1.399   .     A
C192   C194    1.401   .     A
C192   C225    1.452   .     S
C193   C195    1.413   .     A
C193   C227    1.491   .     S
C194   C238    1.492   .     S
C194   C196    1.405   .     A
C195   C448    1.444   1_545 S
C196   C447    1.444   .     S
H197   C15     1.088   1_655 S
N207   Zn218   2.009   .     S
N208   Zn217   2.009   .     S
O209   Zn217   2.003   .     S
O210   Zn218   2.003   .     S
O211   Zn218   2.013   .     S
O212   Zn217   2.013   .     S
O213   Zn217   1.960   .     S
O214   Zn218   1.960   .     S
O215   Zn218   1.976   .     S
O216   Zn217   1.976   .     S
C219   N220    1.157   .     T
C221   N222    1.157   .     T
C223   N224    1.157   .     T
C225   N226    1.157   .     T
C227   C232    1.405   .     A
C227   C480    1.405   1_545 S
C228   C229    1.399   .     A
C228   H233    1.079   .     S
C228   C479    1.405   .     S
C229   C230    1.397   .     A
C229   H66     1.082   1_655 S
C230   C231    1.397   .     A
C230   H67     1.083   1_655 S
C231   H236    1.082   .     S
C231   C484    1.399   .     S
C232   H237    1.083   .     S
C232   C483    1.399   1_545 S
C238   C243    1.406   .     A
C238   C491    1.404   .     S
C239   H244    1.079   .     S
C239   C240    1.398   .     A
C239   C490    1.404   1_545 S
C240   H245    1.082   .     S
C240   C241    1.397   .     A
C241   C242    1.397   .     A
C241   H246    1.082   .     S
C242   H247    1.082   .     S
C242   C495    1.398   1_545 S
C243   H248    1.083   .     S
C243   C494    1.398   .     S
C249   N250    1.158   .     T
C251   N252    1.158   .     T
C253   C273    1.431   .     S
C253   O295    1.282   .     A
C253   O293    1.284   .     A
C254   O296    1.293   .     A
C254   C274    1.474   .     S
C254   O294    1.297   .     A
C255   H285    1.081   .     S
C255   C257    1.406   .     A
C255   C263    1.409   .     A
C256   C264    1.408   .     A
C256   H286    1.081   .     S
C256   C258    1.405   .     A
C257   C333    1.439   .     S
C257   N291    1.367   .     A
C258   N292    1.369   .     A
C258   C335    1.438   .     S
C259   C261    1.405   .     A
C259   H287    1.082   .     S
C259   N291    1.360   .     A
C260   H288    1.082   .     S
C260   C262    1.407   .     A
C260   N292    1.362   .     A
C261   H289    1.080   .     S
C261   C263    1.415   .     A
C262   C264    1.414   .     A
C262   H290    1.080   .     S
C263   C768    1.518   1_554 S
C264   C767    1.518   .     S
C265   O299    1.281   .     A
C265   C267    1.400   .     S
C265   O297    1.275   .     A
C266   O298    1.275   .     A
C266   C268    1.400   .     S
C266   O300    1.281   .     A
C267   C436    1.332   1_455 S
C267   H449    1.088   1_455 S
C268   C351    1.332   .     S
C268   H366    1.088   .     S
C269   C279    1.395   .     A
C269   H283    1.085   .     S
C269   C271    1.376   .     A
C270   C280    1.386   .     A
C270   H284    1.086   .     S
C270   C272    1.376   .     A
C271   C273    1.403   .     A
C271   C303    1.447   .     S
C272   C274    1.421   .     A
C272   C305    1.446   .     S
C273   C275    1.409   .     A
C274   C276    1.430   .     A
C275   C307    1.453   .     S
C275   C277    1.399   .     A
C276   C278    1.401   .     A
C276   C309    1.452   .     S
C277   C279    1.413   .     A
C277   C311    1.491   .     S
C278   C322    1.492   .     S
C278   C280    1.405   .     A
C280   C27     1.444   1_565 S
H281   C351    1.088   .     S
H282   C436    1.088   1_455 S
N291   Zn302   2.009   .     S
N292   Zn301   2.009   .     S
O293   Zn301   2.003   .     S
O294   Zn302   2.003   .     S
O295   Zn302   2.013   .     S
O296   Zn301   2.013   .     S
O297   Zn301   1.960   .     S
O298   Zn302   1.960   .     S
O299   Zn302   1.976   .     S
O300   Zn301   1.976   .     S
C303   N304    1.157   .     T
C305   N306    1.157   .     T
C307   N308    1.157   .     T
C309   N310    1.157   .     T
C311   C316    1.405   .     A
C312   C313    1.399   .     A
C312   H317    1.079   .     S
C312   C59     1.405   1_565 S
C313   C314    1.397   .     A
C313   H402    1.082   .     S
C314   C315    1.397   .     A
C314   H403    1.083   .     S
C315   H320    1.082   .     S
C315   C64     1.399   1_565 S
C316   H321    1.083   .     S
H318   C481    1.082   1_455 S
H319   C482    1.083   1_455 S
C322   C327    1.406   .     A
C322   C71     1.404   1_565 S
C323   H328    1.079   .     S
C323   C324    1.398   .     A
C324   H329    1.082   .     S
C324   C325    1.397   .     A
C325   C326    1.397   .     A
C325   H330    1.082   .     S
C326   H331    1.082   .     S
C327   H332    1.083   .     S
C327   C74     1.398   1_565 S
C333   N334    1.158   .     T
C335   N336    1.158   .     T
C337   C357    1.431   .     S
C337   O379    1.282   .     A
C337   O377    1.284   .     A
C338   O380    1.293   .     A
C338   C358    1.474   .     S
C338   O378    1.297   .     A
C339   H369    1.081   .     S
C339   C341    1.406   .     A
C339   C347    1.409   .     A
C340   C348    1.408   .     A
C340   H370    1.081   .     S
C340   C342    1.405   .     A
C341   C417    1.439   .     S
C341   N375    1.367   .     A
C342   N376    1.369   .     A
C342   C419    1.438   .     S
C343   C345    1.405   .     A
C343   H371    1.082   .     S
C343   N375    1.360   .     A
C344   H372    1.082   .     S
C344   C346    1.407   .     A
C344   N376    1.362   .     A
C345   H373    1.080   .     S
C345   C347    1.415   .     A
C346   C348    1.414   .     A
C346   H374    1.080   .     S
C347   C852    1.518   1_554 S
C348   C851    1.518   .     S
C349   O383    1.281   .     A
C349   C351    1.400   .     S
C349   O381    1.275   .     A
C350   O382    1.275   .     A
C350   C352    1.400   .     S
C350   O384    1.281   .     A
C352   C435    1.332   .     S
C352   H450    1.088   .     S
C353   C363    1.395   .     A
C353   H367    1.085   .     S
C353   C355    1.376   .     A
C354   C364    1.386   .     A
C354   H368    1.086   .     S
C354   C356    1.376   .     A
C355   C357    1.403   .     A
C355   C387    1.447   .     S
C356   C358    1.421   .     A
C356   C389    1.446   .     S
C357   C359    1.409   .     A
C358   C360    1.430   .     A
C359   C391    1.453   .     S
C359   C361    1.399   .     A
C360   C362    1.401   .     A
C360   C393    1.452   .     S
C361   C363    1.413   .     A
C361   C395    1.491   .     S
C362   C406    1.492   .     S
C362   C364    1.405   .     A
C364   C111    1.444   1_565 S
H365   C435    1.088   .     S
N375   Zn386   2.009   .     S
N376   Zn385   2.009   .     S
O377   Zn385   2.003   .     S
O378   Zn386   2.003   .     S
O379   Zn386   2.013   .     S
O380   Zn385   2.013   .     S
O381   Zn385   1.960   .     S
O382   Zn386   1.960   .     S
O383   Zn386   1.976   .     S
O384   Zn385   1.976   .     S
C387   N388    1.157   .     T
C389   N390    1.157   .     T
C391   N392    1.157   .     T
C393   N394    1.157   .     T
C395   C400    1.405   .     A
C396   C397    1.399   .     A
C396   H401    1.079   .     S
C396   C143    1.405   1_565 S
C397   C398    1.397   .     A
C397   H486    1.082   .     S
C398   C399    1.397   .     A
C398   H487    1.083   .     S
C399   H404    1.082   .     S
C399   C148    1.399   1_565 S
C400   H405    1.083   .     S
C406   C411    1.406   .     A
C406   C155    1.404   1_565 S
C407   H412    1.079   .     S
C407   C408    1.398   .     A
C408   H413    1.082   .     S
C408   C409    1.397   .     A
C409   C410    1.397   .     A
C409   H414    1.082   .     S
C410   H415    1.082   .     S
C411   H416    1.083   .     S
C411   C158    1.398   1_565 S
C417   N418    1.158   .     T
C419   N420    1.158   .     T
C421   C441    1.431   .     S
C421   O463    1.282   .     A
C421   O461    1.284   .     A
C422   O464    1.293   .     A
C422   C442    1.474   .     S
C422   O462    1.297   .     A
C423   H453    1.081   .     S
C423   C425    1.406   .     A
C423   C431    1.409   .     A
C424   C432    1.408   .     A
C424   H454    1.081   .     S
C424   C426    1.405   .     A
C425   C501    1.439   .     S
C425   N459    1.367   .     A
C426   N460    1.369   .     A
C426   C503    1.438   .     S
C427   C429    1.405   .     A
C427   H455    1.082   .     S
C427   N459    1.360   .     A
C428   H456    1.082   .     S
C428   C430    1.407   .     A
C428   N460    1.362   .     A
C429   H457    1.080   .     S
C429   C431    1.415   .     A
C430   C432    1.414   .     A
C430   H458    1.080   .     S
C431   C936    1.518   1_554 S
C432   C935    1.518   .     S
C433   O467    1.281   .     A
C433   C435    1.400   .     S
C433   O465    1.275   .     A
C434   O466    1.275   .     A
C434   C436    1.400   .     S
C434   O468    1.281   .     A
C436   C267    1.332   1_655 S
C436   H282    1.088   1_655 S
C437   C447    1.395   .     A
C437   H451    1.085   .     S
C437   C439    1.376   .     A
C438   C448    1.386   .     A
C438   H452    1.086   .     S
C438   C440    1.376   .     A
C439   C441    1.403   .     A
C439   C471    1.447   .     S
C440   C442    1.421   .     A
C440   C473    1.446   .     S
C441   C443    1.409   .     A
C442   C444    1.430   .     A
C443   C475    1.453   .     S
C443   C445    1.399   .     A
C444   C446    1.401   .     A
C444   C477    1.452   .     S
C445   C447    1.413   .     A
C445   C479    1.491   .     S
C446   C490    1.492   .     S
C446   C448    1.405   .     A
C448   C195    1.444   1_565 S
H449   C267    1.088   1_655 S
N459   Zn470   2.009   .     S
N460   Zn469   2.009   .     S
O461   Zn469   2.003   .     S
O462   Zn470   2.003   .     S
O463   Zn470   2.013   .     S
O464   Zn469   2.013   .     S
O465   Zn469   1.960   .     S
O466   Zn470   1.960   .     S
O467   Zn470   1.976   .     S
O468   Zn469   1.976   .     S
C471   N472    1.157   .     T
C473   N474    1.157   .     T
C475   N476    1.157   .     T
C477   N478    1.157   .     T
C479   C484    1.405   .     A
C480   C481    1.399   .     A
C480   H485    1.079   .     S
C480   C227    1.405   1_565 S
C481   C482    1.397   .     A
C481   H318    1.082   1_655 S
C482   C483    1.397   .     A
C482   H319    1.083   1_655 S
C483   H488    1.082   .     S
C483   C232    1.399   1_565 S
C484   H489    1.083   .     S
C490   C495    1.406   .     A
C490   C239    1.404   1_565 S
C491   H496    1.079   .     S
C491   C492    1.398   .     A
C492   H497    1.082   .     S
C492   C493    1.397   .     A
C493   C494    1.397   .     A
C493   H498    1.082   .     S
C494   H499    1.082   .     S
C495   H500    1.083   .     S
C495   C242    1.398   1_565 S
C501   N502    1.158   .     T
C503   N504    1.158   .     T
C505   C525    1.431   .     S
C505   O547    1.282   .     A
C505   O545    1.284   .     A
C506   O548    1.293   .     A
C506   C526    1.474   .     S
C506   O546    1.297   .     A
C507   H537    1.081   .     S
C507   C509    1.406   .     A
C507   C515    1.409   .     A
C508   C516    1.408   .     A
C508   H538    1.081   .     S
C508   C510    1.405   .     A
C509   C585    1.439   .     S
C509   N543    1.367   .     A
C510   N544    1.369   .     A
C510   C587    1.438   .     S
C511   C513    1.405   .     A
C511   H539    1.082   .     S
C511   N543    1.360   .     A
C512   H540    1.082   .     S
C512   C514    1.407   .     A
C512   N544    1.362   .     A
C513   H541    1.080   .     S
C513   C515    1.415   .     A
C514   C516    1.414   .     A
C514   H542    1.080   .     S
C516   C11     1.518   1_556 S
C517   O551    1.281   .     A
C517   C519    1.400   .     S
C517   O549    1.275   .     A
C518   O550    1.275   .     A
C518   C520    1.400   .     S
C518   O552    1.281   .     A
C519   C688    1.332   1_455 S
C519   H701    1.088   1_455 S
C520   C603    1.332   .     S
C520   H618    1.088   .     S
C521   C531    1.395   .     A
C521   H535    1.085   .     S
C521   C523    1.376   .     A
C522   C532    1.386   .     A
C522   H536    1.086   .     S
C522   C524    1.376   .     A
C523   C525    1.403   .     A
C523   C555    1.447   .     S
C524   C526    1.421   .     A
C524   C557    1.446   .     S
C525   C527    1.409   .     A
C526   C528    1.430   .     A
C527   C559    1.453   .     S
C527   C529    1.399   .     A
C528   C530    1.401   .     A
C528   C561    1.452   .     S
C529   C531    1.413   .     A
C529   C563    1.491   .     S
C530   C574    1.492   .     S
C530   C532    1.405   .     A
C531   C784    1.444   1_545 S
C532   C783    1.444   .     S
H533   C603    1.088   .     S
H534   C688    1.088   1_455 S
N543   Zn554   2.009   .     S
N544   Zn553   2.009   .     S
O545   Zn553   2.003   .     S
O546   Zn554   2.003   .     S
O547   Zn554   2.013   .     S
O548   Zn553   2.013   .     S
O549   Zn553   1.960   .     S
O550   Zn554   1.960   .     S
O551   Zn554   1.976   .     S
O552   Zn553   1.976   .     S
C555   N556    1.157   .     T
C557   N558    1.157   .     T
C559   N560    1.157   .     T
C561   N562    1.157   .     T
C563   C568    1.405   .     A
C563   C816    1.405   1_545 S
C564   C565    1.399   .     A
C564   H569    1.079   .     S
C564   C815    1.405   .     S
C565   C566    1.397   .     A
C565   H654    1.082   .     S
C566   C567    1.397   .     A
C566   H655    1.083   .     S
C567   H572    1.082   .     S
C567   C820    1.399   .     S
C568   H573    1.083   .     S
C568   C819    1.399   1_545 S
H570   C733    1.082   1_455 S
H571   C734    1.083   1_455 S
C574   C579    1.406   .     A
C574   C827    1.404   .     S
C575   H580    1.079   .     S
C575   C576    1.398   .     A
C575   C826    1.404   1_545 S
C576   H581    1.082   .     S
C576   C577    1.397   .     A
C577   C578    1.397   .     A
C577   H582    1.082   .     S
C578   H583    1.082   .     S
C578   C831    1.398   1_545 S
C579   H584    1.083   .     S
C579   C830    1.398   .     S
C585   N586    1.158   .     T
C587   N588    1.158   .     T
C589   C609    1.431   .     S
C589   O631    1.282   .     A
C589   O629    1.284   .     A
C590   O632    1.293   .     A
C590   C610    1.474   .     S
C590   O630    1.297   .     A
C591   H621    1.081   .     S
C591   C593    1.406   .     A
C591   C599    1.409   .     A
C592   C600    1.408   .     A
C592   H622    1.081   .     S
C592   C594    1.405   .     A
C593   C669    1.439   .     S
C593   N627    1.367   .     A
C594   N628    1.369   .     A
C594   C671    1.438   .     S
C595   C597    1.405   .     A
C595   H623    1.082   .     S
C595   N627    1.360   .     A
C596   H624    1.082   .     S
C596   C598    1.407   .     A
C596   N628    1.362   .     A
C597   H625    1.080   .     S
C597   C599    1.415   .     A
C598   C600    1.414   .     A
C598   H626    1.080   .     S
C600   C95     1.518   1_556 S
C601   O635    1.281   .     A
C601   C603    1.400   .     S
C601   O633    1.275   .     A
C602   O634    1.275   .     A
C602   C604    1.400   .     S
C602   O636    1.281   .     A
C604   C687    1.332   .     S
C604   H702    1.088   .     S
C605   C615    1.395   .     A
C605   H619    1.085   .     S
C605   C607    1.376   .     A
C606   C616    1.386   .     A
C606   H620    1.086   .     S
C606   C608    1.376   .     A
C607   C609    1.403   .     A
C607   C639    1.447   .     S
C608   C610    1.421   .     A
C608   C641    1.446   .     S
C609   C611    1.409   .     A
C610   C612    1.430   .     A
C611   C643    1.453   .     S
C611   C613    1.399   .     A
C612   C614    1.401   .     A
C612   C645    1.452   .     S
C613   C615    1.413   .     A
C613   C647    1.491   .     S
C614   C658    1.492   .     S
C614   C616    1.405   .     A
C615   C868    1.444   1_545 S
C616   C867    1.444   .     S
H617   C687    1.088   .     S
N627   Zn638   2.009   .     S
N628   Zn637   2.009   .     S
O629   Zn637   2.003   .     S
O630   Zn638   2.003   .     S
O631   Zn638   2.013   .     S
O632   Zn637   2.013   .     S
O633   Zn637   1.960   .     S
O634   Zn638   1.960   .     S
O635   Zn638   1.976   .     S
O636   Zn637   1.976   .     S
C639   N640    1.157   .     T
C641   N642    1.157   .     T
C643   N644    1.157   .     T
C645   N646    1.157   .     T
C647   C652    1.405   .     A
C647   C900    1.405   1_545 S
C648   C649    1.399   .     A
C648   H653    1.079   .     S
C648   C899    1.405   .     S
C649   C650    1.397   .     A
C649   H738    1.082   .     S
C650   C651    1.397   .     A
C650   H739    1.083   .     S
C651   H656    1.082   .     S
C651   C904    1.399   .     S
C652   H657    1.083   .     S
C652   C903    1.399   1_545 S
C658   C663    1.406   .     A
C658   C911    1.404   .     S
C659   H664    1.079   .     S
C659   C660    1.398   .     A
C659   C910    1.404   1_545 S
C660   H665    1.082   .     S
C660   C661    1.397   .     A
C661   C662    1.397   .     A
C661   H666    1.082   .     S
C662   H667    1.082   .     S
C662   C915    1.398   1_545 S
C663   H668    1.083   .     S
C663   C914    1.398   .     S
C669   N670    1.158   .     T
C671   N672    1.158   .     T
C673   C693    1.431   .     S
C673   O715    1.282   .     A
C673   O713    1.284   .     A
C674   O716    1.293   .     A
C674   C694    1.474   .     S
C674   O714    1.297   .     A
C675   H705    1.081   .     S
C675   C677    1.406   .     A
C675   C683    1.409   .     A
C676   C684    1.408   .     A
C676   H706    1.081   .     S
C676   C678    1.405   .     A
C677   C753    1.439   .     S
C677   N711    1.367   .     A
C678   N712    1.369   .     A
C678   C755    1.438   .     S
C679   C681    1.405   .     A
C679   H707    1.082   .     S
C679   N711    1.360   .     A
C680   H708    1.082   .     S
C680   C682    1.407   .     A
C680   N712    1.362   .     A
C681   H709    1.080   .     S
C681   C683    1.415   .     A
C682   C684    1.414   .     A
C682   H710    1.080   .     S
C684   C179    1.518   1_556 S
C685   O719    1.281   .     A
C685   C687    1.400   .     S
C685   O717    1.275   .     A
C686   O718    1.275   .     A
C686   C688    1.400   .     S
C686   O720    1.281   .     A
C688   C519    1.332   1_655 S
C688   H534    1.088   1_655 S
C689   C699    1.395   .     A
C689   H703    1.085   .     S
C689   C691    1.376   .     A
C690   C700    1.386   .     A
C690   H704    1.086   .     S
C690   C692    1.376   .     A
C691   C693    1.403   .     A
C691   C723    1.447   .     S
C692   C694    1.421   .     A
C692   C725    1.446   .     S
C693   C695    1.409   .     A
C694   C696    1.430   .     A
C695   C727    1.453   .     S
C695   C697    1.399   .     A
C696   C698    1.401   .     A
C696   C729    1.452   .     S
C697   C699    1.413   .     A
C697   C731    1.491   .     S
C698   C742    1.492   .     S
C698   C700    1.405   .     A
C699   C952    1.444   1_545 S
C700   C951    1.444   .     S
H701   C519    1.088   1_655 S
N711   Zn722   2.009   .     S
N712   Zn721   2.009   .     S
O713   Zn721   2.003   .     S
O714   Zn722   2.003   .     S
O715   Zn722   2.013   .     S
O716   Zn721   2.013   .     S
O717   Zn721   1.960   .     S
O718   Zn722   1.960   .     S
O719   Zn722   1.976   .     S
O720   Zn721   1.976   .     S
C723   N724    1.157   .     T
C725   N726    1.157   .     T
C727   N728    1.157   .     T
C729   N730    1.157   .     T
C731   C736    1.405   .     A
C731   C984    1.405   1_545 S
C732   C733    1.399   .     A
C732   H737    1.079   .     S
C732   C983    1.405   .     S
C733   C734    1.397   .     A
C733   H570    1.082   1_655 S
C734   C735    1.397   .     A
C734   H571    1.083   1_655 S
C735   H740    1.082   .     S
C735   C988    1.399   .     S
C736   H741    1.083   .     S
C736   C987    1.399   1_545 S
C742   C747    1.406   .     A
C742   C995    1.404   .     S
C743   H748    1.079   .     S
C743   C744    1.398   .     A
C743   C994    1.404   1_545 S
C744   H749    1.082   .     S
C744   C745    1.397   .     A
C745   C746    1.397   .     A
C745   H750    1.082   .     S
C746   H751    1.082   .     S
C746   C999    1.398   1_545 S
C747   H752    1.083   .     S
C747   C998    1.398   .     S
C753   N754    1.158   .     T
C755   N756    1.158   .     T
C757   C777    1.431   .     S
C757   O799    1.282   .     A
C757   O797    1.284   .     A
C758   O800    1.293   .     A
C758   C778    1.474   .     S
C758   O798    1.297   .     A
C759   H789    1.081   .     S
C759   C761    1.406   .     A
C759   C767    1.409   .     A
C760   C768    1.408   .     A
C760   H790    1.081   .     S
C760   C762    1.405   .     A
C761   C837    1.439   .     S
C761   N795    1.367   .     A
C762   N796    1.369   .     A
C762   C839    1.438   .     S
C763   C765    1.405   .     A
C763   H791    1.082   .     S
C763   N795    1.360   .     A
C764   H792    1.082   .     S
C764   C766    1.407   .     A
C764   N796    1.362   .     A
C765   H793    1.080   .     S
C765   C767    1.415   .     A
C766   C768    1.414   .     A
C766   H794    1.080   .     S
C768   C263    1.518   1_556 S
C769   O803    1.281   .     A
C769   C771    1.400   .     S
C769   O801    1.275   .     A
C770   O802    1.275   .     A
C770   C772    1.400   .     S
C770   O804    1.281   .     A
C771   C940    1.332   1_455 S
C771   H953    1.088   1_455 S
C772   C855    1.332   .     S
C772   H870    1.088   .     S
C773   C783    1.395   .     A
C773   H787    1.085   .     S
C773   C775    1.376   .     A
C774   C784    1.386   .     A
C774   H788    1.086   .     S
C774   C776    1.376   .     A
C775   C777    1.403   .     A
C775   C807    1.447   .     S
C776   C778    1.421   .     A
C776   C809    1.446   .     S
C777   C779    1.409   .     A
C778   C780    1.430   .     A
C779   C811    1.453   .     S
C779   C781    1.399   .     A
C780   C782    1.401   .     A
C780   C813    1.452   .     S
C781   C783    1.413   .     A
C781   C815    1.491   .     S
C782   C826    1.492   .     S
C782   C784    1.405   .     A
C784   C531    1.444   1_565 S
H785   C855    1.088   .     S
H786   C940    1.088   1_455 S
N795   Zn806   2.009   .     S
N796   Zn805   2.009   .     S
O797   Zn805   2.003   .     S
O798   Zn806   2.003   .     S
O799   Zn806   2.013   .     S
O800   Zn805   2.013   .     S
O801   Zn805   1.960   .     S
O802   Zn806   1.960   .     S
O803   Zn806   1.976   .     S
O804   Zn805   1.976   .     S
C807   N808    1.157   .     T
C809   N810    1.157   .     T
C811   N812    1.157   .     T
C813   N814    1.157   .     T
C815   C820    1.405   .     A
C816   C817    1.399   .     A
C816   H821    1.079   .     S
C816   C563    1.405   1_565 S
C817   C818    1.397   .     A
C817   H906    1.082   .     S
C818   C819    1.397   .     A
C818   H907    1.083   .     S
C819   H824    1.082   .     S
C819   C568    1.399   1_565 S
C820   H825    1.083   .     S
H822   C985    1.082   1_455 S
H823   C986    1.083   1_455 S
C826   C831    1.406   .     A
C826   C575    1.404   1_565 S
C827   H832    1.079   .     S
C827   C828    1.398   .     A
C828   H833    1.082   .     S
C828   C829    1.397   .     A
C829   C830    1.397   .     A
C829   H834    1.082   .     S
C830   H835    1.082   .     S
C831   H836    1.083   .     S
C831   C578    1.398   1_565 S
C837   N838    1.158   .     T
C839   N840    1.158   .     T
C841   C861    1.431   .     S
C841   O883    1.282   .     A
C841   O881    1.284   .     A
C842   O884    1.293   .     A
C842   C862    1.474   .     S
C842   O882    1.297   .     A
C843   H873    1.081   .     S
C843   C845    1.406   .     A
C843   C851    1.409   .     A
C844   C852    1.408   .     A
C844   H874    1.081   .     S
C844   C846    1.405   .     A
C845   C921    1.439   .     S
C845   N879    1.367   .     A
C846   N880    1.369   .     A
C846   C923    1.438   .     S
C847   C849    1.405   .     A
C847   H875    1.082   .     S
C847   N879    1.360   .     A
C848   H876    1.082   .     S
C848   C850    1.407   .     A
C848   N880    1.362   .     A
C849   H877    1.080   .     S
C849   C851    1.415   .     A
C850   C852    1.414   .     A
C850   H878    1.080   .     S
C852   C347    1.518   1_556 S
C853   O887    1.281   .     A
C853   C855    1.400   .     S
C853   O885    1.275   .     A
C854   O886    1.275   .     A
C854   C856    1.400   .     S
C854   O888    1.281   .     A
C856   C939    1.332   .     S
C856   H954    1.088   .     S
C857   C867    1.395   .     A
C857   H871    1.085   .     S
C857   C859    1.376   .     A
C858   C868    1.386   .     A
C858   H872    1.086   .     S
C858   C860    1.376   .     A
C859   C861    1.403   .     A
C859   C891    1.447   .     S
C860   C862    1.421   .     A
C860   C893    1.446   .     S
C861   C863    1.409   .     A
C862   C864    1.430   .     A
C863   C895    1.453   .     S
C863   C865    1.399   .     A
C864   C866    1.401   .     A
C864   C897    1.452   .     S
C865   C867    1.413   .     A
C865   C899    1.491   .     S
C866   C910    1.492   .     S
C866   C868    1.405   .     A
C868   C615    1.444   1_565 S
H869   C939    1.088   .     S
N879   Zn890   2.009   .     S
N880   Zn889   2.009   .     S
O881   Zn889   2.003   .     S
O882   Zn890   2.003   .     S
O883   Zn890   2.013   .     S
O884   Zn889   2.013   .     S
O885   Zn889   1.960   .     S
O886   Zn890   1.960   .     S
O887   Zn890   1.976   .     S
O888   Zn889   1.976   .     S
C891   N892    1.157   .     T
C893   N894    1.157   .     T
C895   N896    1.157   .     T
C897   N898    1.157   .     T
C899   C904    1.405   .     A
C900   C901    1.399   .     A
C900   H905    1.079   .     S
C900   C647    1.405   1_565 S
C901   C902    1.397   .     A
C901   H990    1.082   .     S
C902   C903    1.397   .     A
C902   H991    1.083   .     S
C903   H908    1.082   .     S
C903   C652    1.399   1_565 S
C904   H909    1.083   .     S
C910   C915    1.406   .     A
C910   C659    1.404   1_565 S
C911   H916    1.079   .     S
C911   C912    1.398   .     A
C912   H917    1.082   .     S
C912   C913    1.397   .     A
C913   C914    1.397   .     A
C913   H918    1.082   .     S
C914   H919    1.082   .     S
C915   H920    1.083   .     S
C915   C662    1.398   1_565 S
C921   N922    1.158   .     T
C923   N924    1.158   .     T
C925   C945    1.431   .     S
C925   O967    1.282   .     A
C925   O965    1.284   .     A
C926   O968    1.293   .     A
C926   C946    1.474   .     S
C926   O966    1.297   .     A
C927   H957    1.081   .     S
C927   C929    1.406   .     A
C927   C935    1.409   .     A
C928   C936    1.408   .     A
C928   H958    1.081   .     S
C928   C930    1.405   .     A
C929   C1005   1.439   .     S
C929   N963    1.367   .     A
C930   N964    1.369   .     A
C930   C1007   1.438   .     S
C931   C933    1.405   .     A
C931   H959    1.082   .     S
C931   N963    1.360   .     A
C932   H960    1.082   .     S
C932   C934    1.407   .     A
C932   N964    1.362   .     A
C933   H961    1.080   .     S
C933   C935    1.415   .     A
C934   C936    1.414   .     A
C934   H962    1.080   .     S
C936   C431    1.518   1_556 S
C937   O971    1.281   .     A
C937   C939    1.400   .     S
C937   O969    1.275   .     A
C938   O970    1.275   .     A
C938   C940    1.400   .     S
C938   O972    1.281   .     A
C940   C771    1.332   1_655 S
C940   H786    1.088   1_655 S
C941   C951    1.395   .     A
C941   H955    1.085   .     S
C941   C943    1.376   .     A
C942   C952    1.386   .     A
C942   H956    1.086   .     S
C942   C944    1.376   .     A
C943   C945    1.403   .     A
C943   C975    1.447   .     S
C944   C946    1.421   .     A
C944   C977    1.446   .     S
C945   C947    1.409   .     A
C946   C948    1.430   .     A
C947   C979    1.453   .     S
C947   C949    1.399   .     A
C948   C950    1.401   .     A
C948   C981    1.452   .     S
C949   C951    1.413   .     A
C949   C983    1.491   .     S
C950   C994    1.492   .     S
C950   C952    1.405   .     A
C952   C699    1.444   1_565 S
H953   C771    1.088   1_655 S
N963   Zn974   2.009   .     S
N964   Zn973   2.009   .     S
O965   Zn973   2.003   .     S
O966   Zn974   2.003   .     S
O967   Zn974   2.013   .     S
O968   Zn973   2.013   .     S
O969   Zn973   1.960   .     S
O970   Zn974   1.960   .     S
O971   Zn974   1.976   .     S
O972   Zn973   1.976   .     S
C975   N976    1.157   .     T
C977   N978    1.157   .     T
C979   N980    1.157   .     T
C981   N982    1.157   .     T
C983   C988    1.405   .     A
C984   C985    1.399   .     A
C984   H989    1.079   .     S
C984   C731    1.405   1_565 S
C985   C986    1.397   .     A
C985   H822    1.082   1_655 S
C986   C987    1.397   .     A
C986   H823    1.083   1_655 S
C987   H992    1.082   .     S
C987   C736    1.399   1_565 S
C988   H993    1.083   .     S
C994   C999    1.406   .     A
C994   C743    1.404   1_565 S
C995   H1000   1.079   .     S
C995   C996    1.398   .     A
C996   H1001   1.082   .     S
C996   C997    1.397   .     A
C997   C998    1.397   .     A
C997   H1002   1.082   .     S
C998   H1003   1.082   .     S
C999   H1004   1.083   .     S
C999   C746    1.398   1_565 S
C1005  N1006   1.158   .     T
C1007  N1008   1.158   .     T
