data_str_m3_o10_o17_pcu_sym.113
_audit_creation_date              2020-01-03
_audit_creation_method            'Materials Studio'
_symmetry_space_group_name_H-M    'P1'
_symmetry_Int_Tables_number       1
_symmetry_cell_setting            triclinic
loop_
_symmetry_equiv_pos_as_xyz
  x,y,z
_cell_length_a                    23.1523
_cell_length_b                    26.2181
_cell_length_c                    29.8563
_cell_angle_alpha                 90.6967
_cell_angle_beta                  86.9788
_cell_angle_gamma                 93.5297
loop_
_atom_site_label
_atom_site_type_symbol
_atom_site_fract_x
_atom_site_fract_y
_atom_site_fract_z
_atom_site_U_iso_or_equiv
_atom_site_adp_type
_atom_site_occupancy
C1     C     0.18184   0.26490   0.24963   0.00000  Uiso   1.00
C2     C     0.18437   0.21366   0.40638   0.00000  Uiso   1.00
C3     C     0.16122   0.16734   0.11602   0.00000  Uiso   1.00
C4     C     0.17144   0.16761   0.38387   0.00000  Uiso   1.00
C5     C     0.16997   0.21380   0.09412   0.00000  Uiso   1.00
C6     C     0.16091   0.12160   0.40641   0.00000  Uiso   1.00
C7     C     0.17789   0.21430   0.04728   0.00000  Uiso   1.00
C8     C     0.15001   0.12251   0.45280   0.00000  Uiso   1.00
C9     C     0.16255   0.16865   0.02342   0.00000  Uiso   1.00
C10    C     0.16492   0.16839   0.47650   0.00000  Uiso   1.00
C11    C     0.14472   0.12308   0.04658   0.00000  Uiso   1.00
C12    C     0.15155   0.06843   0.25068   0.00000  Uiso   1.00
C13    C     0.18285   0.21379   0.45326   0.00000  Uiso   1.00
C14    C     0.20074   0.25842   0.02385   0.00000  Uiso   1.00
C15    C     0.12497   0.07954   0.47653   0.00000  Uiso   1.00
C16    C     0.07313   0.06716   0.13246   0.00000  Uiso   1.00
C17    C     0.26410   0.26582   0.37258   0.00000  Uiso   1.00
C18    C     0.25851   0.00921   0.02308   0.00000  Uiso   1.00
C19    C     0.04273   0.04947   0.43267   0.00000  Uiso   1.00
C20    C     0.19945   0.25826   0.47703   0.00000  Uiso   1.00
C21    C     0.12468   0.07973   0.02284   0.00000  Uiso   1.00
C22    C     0.18913   0.31859   0.24412   0.00000  Uiso   1.00
C23    C     0.14450   0.01479   0.25666   0.00000  Uiso   1.00
C24    C     0.16819   0.16725   0.33636   0.00000  Uiso   1.00
C25    C     0.16509   0.16616   0.16360   0.00000  Uiso   1.00
C26    C     0.14625   0.12235   0.09329   0.00000  Uiso   1.00
H27    H     0.21362   0.29236   0.45869   0.00000  Uiso   1.00
H28    H     0.27455   0.30271   0.35528   0.00000  Uiso   1.00
H29    H     0.27963   0.23456   0.35063   0.00000  Uiso   1.00
H30    H     0.28743   0.26635   0.40415   0.00000  Uiso   1.00
H31    H     0.25404   0.28795   0.07296   0.00000  Uiso   1.00
H32    H     0.27672   0.03759   0.04728   0.00000  Uiso   1.00
H33    H     0.22719   0.02864   0.00338   0.00000  Uiso   1.00
H34    H     0.29456   0.32927   0.00077   0.00000  Uiso   1.00
H35    H     0.11650   0.00747   0.44465   0.00000  Uiso   1.00
H36    H     0.01807   0.01331   0.42422   0.00000  Uiso   1.00
H37    H     0.05491   0.07025   0.40112   0.00000  Uiso   1.00
H38    H     0.10682   0.04569   0.03983   0.00000  Uiso   1.00
H39    H     0.01423   0.07298   0.45449   0.00000  Uiso   1.00
H40    H     0.00475   0.12748   0.21717   0.00000  Uiso   1.00
H41    H     0.32859   0.20587   0.28281   0.00000  Uiso   1.00
H42    H     0.15260   0.04592   0.10376   0.00000  Uiso   1.00
H43    H     0.04704   0.05483   0.10368   0.00000  Uiso   1.00
H44    H     0.05512   0.10191   0.14777   0.00000  Uiso   1.00
H45    H     0.06920   0.03659   0.15799   0.00000  Uiso   1.00
H46    H     0.17891   0.26439   0.35401   0.00000  Uiso   1.00
I47    I     0.14978   0.27968   0.13259   0.00000  Uiso   1.00
I48    I     0.18224   0.05342   0.37102   0.00000  Uiso   1.00
I49    I     0.26911   0.00807   0.20660   0.00000  Uiso   1.00
I50    I     0.06493   0.32528   0.29458   0.00000  Uiso   1.00
N51    N     0.31678   0.15265   0.23783   0.00000  Uiso   1.00
N52    N     0.01656   0.18068   0.26217   0.00000  Uiso   1.00
N53    N     0.13354   0.07683   0.11812   0.00000  Uiso   1.00
N54    N     0.20211   0.25886   0.38191   0.00000  Uiso   1.00
N55    N     0.22993   0.29976   0.04735   0.00000  Uiso   1.00
N56    N     0.09366   0.03801   0.45588   0.00000  Uiso   1.00
O57    O     0.12975   0.24619   0.25298   0.00000  Uiso   1.00
O58    O     0.20358   0.08714   0.24701   0.00000  Uiso   1.00
O59    O     0.22613   0.23721   0.24518   0.00000  Uiso   1.00
O60    O     0.10720   0.09613   0.25481   0.00000  Uiso   1.00
O61    O     0.11847   0.17117   0.31997   0.00000  Uiso   1.00
O62    O     0.21486   0.16216   0.18002   0.00000  Uiso   1.00
O63    O     0.21485   0.16219   0.31217   0.00000  Uiso   1.00
O64    O     0.11848   0.17115   0.18782   0.00000  Uiso   1.00
Zn65   Zn    0.10231   0.17266   0.25521   0.00000  Uiso   1.00
Zn66   Zn    0.23102   0.16067   0.24479   0.00000  Uiso   1.00
C67    C     0.51517   0.26490   0.24963   0.00000  Uiso   1.00
C68    C     0.51771   0.21366   0.40638   0.00000  Uiso   1.00
C69    C     0.49456   0.16734   0.11602   0.00000  Uiso   1.00
C70    C     0.50477   0.16761   0.38387   0.00000  Uiso   1.00
C71    C     0.50331   0.21380   0.09412   0.00000  Uiso   1.00
C72    C     0.49425   0.12160   0.40641   0.00000  Uiso   1.00
C73    C     0.51122   0.21430   0.04728   0.00000  Uiso   1.00
C74    C     0.48334   0.12251   0.45280   0.00000  Uiso   1.00
C75    C     0.49589   0.16865   0.02342   0.00000  Uiso   1.00
C76    C     0.49825   0.16839   0.47650   0.00000  Uiso   1.00
C77    C     0.47806   0.12308   0.04658   0.00000  Uiso   1.00
C78    C     0.48488   0.06843   0.25068   0.00000  Uiso   1.00
C79    C     0.51619   0.21379   0.45326   0.00000  Uiso   1.00
C80    C     0.53407   0.25842   0.02385   0.00000  Uiso   1.00
C81    C     0.45831   0.07954   0.47653   0.00000  Uiso   1.00
C82    C     0.40647   0.06716   0.13246   0.00000  Uiso   1.00
C83    C     0.59744   0.26582   0.37258   0.00000  Uiso   1.00
C84    C     0.59184   0.00921   0.02308   0.00000  Uiso   1.00
C85    C     0.37606   0.04947   0.43267   0.00000  Uiso   1.00
C86    C     0.53278   0.25826   0.47703   0.00000  Uiso   1.00
C87    C     0.45802   0.07973   0.02284   0.00000  Uiso   1.00
C88    C     0.52246   0.31859   0.24412   0.00000  Uiso   1.00
C89    C     0.47783   0.01479   0.25666   0.00000  Uiso   1.00
C90    C     0.50152   0.16725   0.33636   0.00000  Uiso   1.00
C91    C     0.49843   0.16616   0.16360   0.00000  Uiso   1.00
C92    C     0.47958   0.12235   0.09329   0.00000  Uiso   1.00
H93    H     0.54696   0.29236   0.45869   0.00000  Uiso   1.00
H94    H     0.60788   0.30271   0.35528   0.00000  Uiso   1.00
H95    H     0.61297   0.23456   0.35063   0.00000  Uiso   1.00
H96    H     0.62077   0.26635   0.40415   0.00000  Uiso   1.00
H97    H     0.58737   0.28795   0.07296   0.00000  Uiso   1.00
H98    H     0.61005   0.03759   0.04728   0.00000  Uiso   1.00
H99    H     0.56052   0.02864   0.00338   0.00000  Uiso   1.00
H100   H     0.62789   0.32927   0.00077   0.00000  Uiso   1.00
H101   H     0.44984   0.00747   0.44465   0.00000  Uiso   1.00
H102   H     0.35141   0.01331   0.42422   0.00000  Uiso   1.00
H103   H     0.38824   0.07025   0.40112   0.00000  Uiso   1.00
H104   H     0.44015   0.04569   0.03983   0.00000  Uiso   1.00
H105   H     0.34756   0.07298   0.45449   0.00000  Uiso   1.00
H106   H     0.33809   0.12748   0.21717   0.00000  Uiso   1.00
H107   H     0.66192   0.20587   0.28281   0.00000  Uiso   1.00
H108   H     0.48593   0.04592   0.10376   0.00000  Uiso   1.00
H109   H     0.38037   0.05483   0.10368   0.00000  Uiso   1.00
H110   H     0.38845   0.10191   0.14777   0.00000  Uiso   1.00
H111   H     0.40253   0.03659   0.15799   0.00000  Uiso   1.00
H112   H     0.51224   0.26439   0.35401   0.00000  Uiso   1.00
I113   I     0.48311   0.27968   0.13259   0.00000  Uiso   1.00
I114   I     0.51557   0.05342   0.37102   0.00000  Uiso   1.00
I115   I     0.60244   0.00807   0.20660   0.00000  Uiso   1.00
I116   I     0.39826   0.32528   0.29458   0.00000  Uiso   1.00
N117   N     0.65011   0.15265   0.23783   0.00000  Uiso   1.00
N118   N     0.34989   0.18068   0.26217   0.00000  Uiso   1.00
N119   N     0.46687   0.07683   0.11812   0.00000  Uiso   1.00
N120   N     0.53545   0.25886   0.38191   0.00000  Uiso   1.00
N121   N     0.56326   0.29976   0.04735   0.00000  Uiso   1.00
N122   N     0.42700   0.03801   0.45588   0.00000  Uiso   1.00
O123   O     0.46308   0.24619   0.25298   0.00000  Uiso   1.00
O124   O     0.53692   0.08714   0.24701   0.00000  Uiso   1.00
O125   O     0.55946   0.23721   0.24518   0.00000  Uiso   1.00
O126   O     0.44054   0.09613   0.25481   0.00000  Uiso   1.00
O127   O     0.45181   0.17117   0.31997   0.00000  Uiso   1.00
O128   O     0.54819   0.16216   0.18002   0.00000  Uiso   1.00
O129   O     0.54819   0.16219   0.31217   0.00000  Uiso   1.00
O130   O     0.45181   0.17115   0.18782   0.00000  Uiso   1.00
Zn131  Zn    0.43565   0.17266   0.25521   0.00000  Uiso   1.00
Zn132  Zn    0.56435   0.16067   0.24479   0.00000  Uiso   1.00
C133   C     0.84851   0.26490   0.24963   0.00000  Uiso   1.00
C134   C     0.85104   0.21366   0.40638   0.00000  Uiso   1.00
C135   C     0.82789   0.16734   0.11602   0.00000  Uiso   1.00
C136   C     0.83811   0.16761   0.38387   0.00000  Uiso   1.00
C137   C     0.83664   0.21380   0.09412   0.00000  Uiso   1.00
C138   C     0.82758   0.12160   0.40641   0.00000  Uiso   1.00
C139   C     0.84455   0.21430   0.04728   0.00000  Uiso   1.00
C140   C     0.81667   0.12251   0.45280   0.00000  Uiso   1.00
C141   C     0.82922   0.16865   0.02342   0.00000  Uiso   1.00
C142   C     0.83158   0.16839   0.47650   0.00000  Uiso   1.00
C143   C     0.81139   0.12308   0.04658   0.00000  Uiso   1.00
C144   C     0.81822   0.06843   0.25068   0.00000  Uiso   1.00
C145   C     0.84952   0.21379   0.45326   0.00000  Uiso   1.00
C146   C     0.86740   0.25842   0.02385   0.00000  Uiso   1.00
C147   C     0.79164   0.07954   0.47653   0.00000  Uiso   1.00
C148   C     0.73980   0.06716   0.13246   0.00000  Uiso   1.00
C149   C     0.93077   0.26582   0.37258   0.00000  Uiso   1.00
C150   C     0.92518   0.00921   0.02308   0.00000  Uiso   1.00
C151   C     0.70940   0.04947   0.43267   0.00000  Uiso   1.00
C152   C     0.86611   0.25826   0.47703   0.00000  Uiso   1.00
C153   C     0.79135   0.07973   0.02284   0.00000  Uiso   1.00
C154   C     0.85580   0.31859   0.24412   0.00000  Uiso   1.00
C155   C     0.81116   0.01479   0.25666   0.00000  Uiso   1.00
C156   C     0.83485   0.16725   0.33636   0.00000  Uiso   1.00
C157   C     0.83176   0.16616   0.16360   0.00000  Uiso   1.00
C158   C     0.81292   0.12235   0.09329   0.00000  Uiso   1.00
H159   H     0.88029   0.29236   0.45869   0.00000  Uiso   1.00
H160   H     0.94122   0.30271   0.35528   0.00000  Uiso   1.00
H161   H     0.94630   0.23456   0.35063   0.00000  Uiso   1.00
H162   H     0.95410   0.26635   0.40415   0.00000  Uiso   1.00
H163   H     0.92071   0.28795   0.07296   0.00000  Uiso   1.00
H164   H     0.94339   0.03759   0.04728   0.00000  Uiso   1.00
H165   H     0.89386   0.02864   0.00338   0.00000  Uiso   1.00
H166   H     0.96122   0.32927   0.00077   0.00000  Uiso   1.00
H167   H     0.78317   0.00747   0.44465   0.00000  Uiso   1.00
H168   H     0.68474   0.01331   0.42422   0.00000  Uiso   1.00
H169   H     0.72157   0.07025   0.40112   0.00000  Uiso   1.00
H170   H     0.77349   0.04569   0.03983   0.00000  Uiso   1.00
H171   H     0.68090   0.07298   0.45449   0.00000  Uiso   1.00
H172   H     0.67142   0.12748   0.21717   0.00000  Uiso   1.00
H173   H     0.99525   0.20587   0.28281   0.00000  Uiso   1.00
H174   H     0.81927   0.04592   0.10376   0.00000  Uiso   1.00
H175   H     0.71371   0.05483   0.10368   0.00000  Uiso   1.00
H176   H     0.72179   0.10191   0.14777   0.00000  Uiso   1.00
H177   H     0.73586   0.03659   0.15799   0.00000  Uiso   1.00
H178   H     0.84557   0.26439   0.35401   0.00000  Uiso   1.00
I179   I     0.81644   0.27968   0.13259   0.00000  Uiso   1.00
I180   I     0.84890   0.05342   0.37102   0.00000  Uiso   1.00
I181   I     0.93578   0.00807   0.20660   0.00000  Uiso   1.00
I182   I     0.73159   0.32528   0.29458   0.00000  Uiso   1.00
N183   N     0.98344   0.15265   0.23783   0.00000  Uiso   1.00
N184   N     0.68322   0.18068   0.26217   0.00000  Uiso   1.00
N185   N     0.80021   0.07683   0.11812   0.00000  Uiso   1.00
N186   N     0.86878   0.25886   0.38191   0.00000  Uiso   1.00
N187   N     0.89660   0.29976   0.04735   0.00000  Uiso   1.00
N188   N     0.76033   0.03801   0.45588   0.00000  Uiso   1.00
O189   O     0.79642   0.24619   0.25298   0.00000  Uiso   1.00
O190   O     0.87025   0.08714   0.24701   0.00000  Uiso   1.00
O191   O     0.89280   0.23721   0.24518   0.00000  Uiso   1.00
O192   O     0.77387   0.09613   0.25481   0.00000  Uiso   1.00
O193   O     0.78514   0.17117   0.31997   0.00000  Uiso   1.00
O194   O     0.88153   0.16216   0.18002   0.00000  Uiso   1.00
O195   O     0.88152   0.16219   0.31217   0.00000  Uiso   1.00
O196   O     0.78515   0.17115   0.18782   0.00000  Uiso   1.00
Zn197  Zn    0.76898   0.17266   0.25521   0.00000  Uiso   1.00
Zn198  Zn    0.89769   0.16067   0.24479   0.00000  Uiso   1.00
C199   C     0.18184   0.59823   0.24963   0.00000  Uiso   1.00
C200   C     0.18437   0.54699   0.40638   0.00000  Uiso   1.00
C201   C     0.16122   0.50067   0.11602   0.00000  Uiso   1.00
C202   C     0.17144   0.50094   0.38387   0.00000  Uiso   1.00
C203   C     0.16997   0.54713   0.09412   0.00000  Uiso   1.00
C204   C     0.16091   0.45493   0.40641   0.00000  Uiso   1.00
C205   C     0.17789   0.54763   0.04728   0.00000  Uiso   1.00
C206   C     0.15001   0.45584   0.45280   0.00000  Uiso   1.00
C207   C     0.16255   0.50199   0.02342   0.00000  Uiso   1.00
C208   C     0.16492   0.50172   0.47650   0.00000  Uiso   1.00
C209   C     0.14472   0.45641   0.04658   0.00000  Uiso   1.00
C210   C     0.15155   0.40176   0.25068   0.00000  Uiso   1.00
C211   C     0.18285   0.54713   0.45326   0.00000  Uiso   1.00
C212   C     0.20074   0.59176   0.02385   0.00000  Uiso   1.00
C213   C     0.12497   0.41288   0.47653   0.00000  Uiso   1.00
C214   C     0.07313   0.40049   0.13246   0.00000  Uiso   1.00
C215   C     0.26410   0.59915   0.37258   0.00000  Uiso   1.00
C216   C     0.25851   0.34254   0.02308   0.00000  Uiso   1.00
C217   C     0.04273   0.38280   0.43267   0.00000  Uiso   1.00
C218   C     0.19945   0.59159   0.47703   0.00000  Uiso   1.00
C219   C     0.12468   0.41307   0.02284   0.00000  Uiso   1.00
C220   C     0.18913   0.65192   0.24412   0.00000  Uiso   1.00
C221   C     0.14450   0.34812   0.25666   0.00000  Uiso   1.00
C222   C     0.16819   0.50059   0.33636   0.00000  Uiso   1.00
C223   C     0.16509   0.49950   0.16360   0.00000  Uiso   1.00
C224   C     0.14625   0.45569   0.09329   0.00000  Uiso   1.00
H225   H     0.21362   0.62569   0.45869   0.00000  Uiso   1.00
H226   H     0.27455   0.63604   0.35528   0.00000  Uiso   1.00
H227   H     0.27963   0.56789   0.35063   0.00000  Uiso   1.00
H228   H     0.28743   0.59968   0.40415   0.00000  Uiso   1.00
H229   H     0.25404   0.62129   0.07296   0.00000  Uiso   1.00
H230   H     0.27672   0.37092   0.04728   0.00000  Uiso   1.00
H231   H     0.22719   0.36197   0.00338   0.00000  Uiso   1.00
H232   H     0.29456   0.66260   0.00077   0.00000  Uiso   1.00
H233   H     0.11650   0.34080   0.44465   0.00000  Uiso   1.00
H234   H     0.01807   0.34664   0.42422   0.00000  Uiso   1.00
H235   H     0.05491   0.40358   0.40112   0.00000  Uiso   1.00
H236   H     0.10682   0.37902   0.03983   0.00000  Uiso   1.00
H237   H     0.01423   0.40631   0.45449   0.00000  Uiso   1.00
H238   H     0.00475   0.46082   0.21717   0.00000  Uiso   1.00
H239   H     0.32859   0.53920   0.28281   0.00000  Uiso   1.00
H240   H     0.15260   0.37926   0.10376   0.00000  Uiso   1.00
H241   H     0.04704   0.38817   0.10368   0.00000  Uiso   1.00
H242   H     0.05512   0.43524   0.14777   0.00000  Uiso   1.00
H243   H     0.06920   0.36992   0.15799   0.00000  Uiso   1.00
H244   H     0.17891   0.59772   0.35401   0.00000  Uiso   1.00
I245   I     0.14978   0.61302   0.13259   0.00000  Uiso   1.00
I246   I     0.18224   0.38675   0.37102   0.00000  Uiso   1.00
I247   I     0.26911   0.34141   0.20660   0.00000  Uiso   1.00
I248   I     0.06493   0.65862   0.29458   0.00000  Uiso   1.00
N249   N     0.31678   0.48598   0.23783   0.00000  Uiso   1.00
N250   N     0.01656   0.51402   0.26217   0.00000  Uiso   1.00
N251   N     0.13354   0.41016   0.11812   0.00000  Uiso   1.00
N252   N     0.20211   0.59220   0.38191   0.00000  Uiso   1.00
N253   N     0.22993   0.63310   0.04735   0.00000  Uiso   1.00
N254   N     0.09366   0.37134   0.45588   0.00000  Uiso   1.00
O255   O     0.12975   0.57952   0.25298   0.00000  Uiso   1.00
O256   O     0.20358   0.42048   0.24701   0.00000  Uiso   1.00
O257   O     0.22613   0.57054   0.24518   0.00000  Uiso   1.00
O258   O     0.10720   0.42946   0.25481   0.00000  Uiso   1.00
O259   O     0.11847   0.50450   0.31997   0.00000  Uiso   1.00
O260   O     0.21486   0.49550   0.18002   0.00000  Uiso   1.00
O261   O     0.21485   0.49552   0.31217   0.00000  Uiso   1.00
O262   O     0.11848   0.50448   0.18782   0.00000  Uiso   1.00
Zn263  Zn    0.10231   0.50600   0.25521   0.00000  Uiso   1.00
Zn264  Zn    0.23102   0.49400   0.24479   0.00000  Uiso   1.00
C265   C     0.51517   0.59823   0.24963   0.00000  Uiso   1.00
C266   C     0.51771   0.54699   0.40638   0.00000  Uiso   1.00
C267   C     0.49456   0.50067   0.11602   0.00000  Uiso   1.00
C268   C     0.50477   0.50094   0.38387   0.00000  Uiso   1.00
C269   C     0.50331   0.54713   0.09412   0.00000  Uiso   1.00
C270   C     0.49425   0.45493   0.40641   0.00000  Uiso   1.00
C271   C     0.51122   0.54763   0.04728   0.00000  Uiso   1.00
C272   C     0.48334   0.45584   0.45280   0.00000  Uiso   1.00
C273   C     0.49589   0.50199   0.02342   0.00000  Uiso   1.00
C274   C     0.49825   0.50172   0.47650   0.00000  Uiso   1.00
C275   C     0.47806   0.45641   0.04658   0.00000  Uiso   1.00
C276   C     0.48488   0.40176   0.25068   0.00000  Uiso   1.00
C277   C     0.51619   0.54713   0.45326   0.00000  Uiso   1.00
C278   C     0.53407   0.59176   0.02385   0.00000  Uiso   1.00
C279   C     0.45831   0.41288   0.47653   0.00000  Uiso   1.00
C280   C     0.40647   0.40049   0.13246   0.00000  Uiso   1.00
C281   C     0.59744   0.59915   0.37258   0.00000  Uiso   1.00
C282   C     0.59184   0.34254   0.02308   0.00000  Uiso   1.00
C283   C     0.37606   0.38280   0.43267   0.00000  Uiso   1.00
C284   C     0.53278   0.59159   0.47703   0.00000  Uiso   1.00
C285   C     0.45802   0.41307   0.02284   0.00000  Uiso   1.00
C286   C     0.52246   0.65192   0.24412   0.00000  Uiso   1.00
C287   C     0.47783   0.34812   0.25666   0.00000  Uiso   1.00
C288   C     0.50152   0.50059   0.33636   0.00000  Uiso   1.00
C289   C     0.49843   0.49950   0.16360   0.00000  Uiso   1.00
C290   C     0.47958   0.45569   0.09329   0.00000  Uiso   1.00
H291   H     0.54696   0.62569   0.45869   0.00000  Uiso   1.00
H292   H     0.60788   0.63604   0.35528   0.00000  Uiso   1.00
H293   H     0.61297   0.56789   0.35063   0.00000  Uiso   1.00
H294   H     0.62077   0.59968   0.40415   0.00000  Uiso   1.00
H295   H     0.58737   0.62129   0.07296   0.00000  Uiso   1.00
H296   H     0.61005   0.37092   0.04728   0.00000  Uiso   1.00
H297   H     0.56052   0.36197   0.00338   0.00000  Uiso   1.00
H298   H     0.62789   0.66260   0.00077   0.00000  Uiso   1.00
H299   H     0.44984   0.34080   0.44465   0.00000  Uiso   1.00
H300   H     0.35141   0.34664   0.42422   0.00000  Uiso   1.00
H301   H     0.38824   0.40358   0.40112   0.00000  Uiso   1.00
H302   H     0.44015   0.37902   0.03983   0.00000  Uiso   1.00
H303   H     0.34756   0.40631   0.45449   0.00000  Uiso   1.00
H304   H     0.33809   0.46082   0.21717   0.00000  Uiso   1.00
H305   H     0.66192   0.53920   0.28281   0.00000  Uiso   1.00
H306   H     0.48593   0.37926   0.10376   0.00000  Uiso   1.00
H307   H     0.38037   0.38817   0.10368   0.00000  Uiso   1.00
H308   H     0.38845   0.43524   0.14777   0.00000  Uiso   1.00
H309   H     0.40253   0.36992   0.15799   0.00000  Uiso   1.00
H310   H     0.51224   0.59772   0.35401   0.00000  Uiso   1.00
I311   I     0.48311   0.61302   0.13259   0.00000  Uiso   1.00
I312   I     0.51557   0.38675   0.37102   0.00000  Uiso   1.00
I313   I     0.60244   0.34141   0.20660   0.00000  Uiso   1.00
I314   I     0.39826   0.65862   0.29458   0.00000  Uiso   1.00
N315   N     0.65011   0.48598   0.23783   0.00000  Uiso   1.00
N316   N     0.34989   0.51402   0.26217   0.00000  Uiso   1.00
N317   N     0.46687   0.41016   0.11812   0.00000  Uiso   1.00
N318   N     0.53545   0.59220   0.38191   0.00000  Uiso   1.00
N319   N     0.56326   0.63310   0.04735   0.00000  Uiso   1.00
N320   N     0.42700   0.37134   0.45588   0.00000  Uiso   1.00
O321   O     0.46308   0.57952   0.25298   0.00000  Uiso   1.00
O322   O     0.53692   0.42048   0.24701   0.00000  Uiso   1.00
O323   O     0.55946   0.57054   0.24518   0.00000  Uiso   1.00
O324   O     0.44054   0.42946   0.25481   0.00000  Uiso   1.00
O325   O     0.45181   0.50450   0.31997   0.00000  Uiso   1.00
O326   O     0.54819   0.49550   0.18002   0.00000  Uiso   1.00
O327   O     0.54819   0.49552   0.31217   0.00000  Uiso   1.00
O328   O     0.45181   0.50448   0.18782   0.00000  Uiso   1.00
Zn329  Zn    0.43565   0.50600   0.25521   0.00000  Uiso   1.00
Zn330  Zn    0.56435   0.49400   0.24479   0.00000  Uiso   1.00
C331   C     0.84851   0.59823   0.24963   0.00000  Uiso   1.00
C332   C     0.85104   0.54699   0.40638   0.00000  Uiso   1.00
C333   C     0.82789   0.50067   0.11602   0.00000  Uiso   1.00
C334   C     0.83811   0.50094   0.38387   0.00000  Uiso   1.00
C335   C     0.83664   0.54713   0.09412   0.00000  Uiso   1.00
C336   C     0.82758   0.45493   0.40641   0.00000  Uiso   1.00
C337   C     0.84455   0.54763   0.04728   0.00000  Uiso   1.00
C338   C     0.81667   0.45584   0.45280   0.00000  Uiso   1.00
C339   C     0.82922   0.50199   0.02342   0.00000  Uiso   1.00
C340   C     0.83158   0.50172   0.47650   0.00000  Uiso   1.00
C341   C     0.81139   0.45641   0.04658   0.00000  Uiso   1.00
C342   C     0.81822   0.40176   0.25068   0.00000  Uiso   1.00
C343   C     0.84952   0.54713   0.45326   0.00000  Uiso   1.00
C344   C     0.86740   0.59176   0.02385   0.00000  Uiso   1.00
C345   C     0.79164   0.41288   0.47653   0.00000  Uiso   1.00
C346   C     0.73980   0.40049   0.13246   0.00000  Uiso   1.00
C347   C     0.93077   0.59915   0.37258   0.00000  Uiso   1.00
C348   C     0.92518   0.34254   0.02308   0.00000  Uiso   1.00
C349   C     0.70940   0.38280   0.43267   0.00000  Uiso   1.00
C350   C     0.86611   0.59159   0.47703   0.00000  Uiso   1.00
C351   C     0.79135   0.41307   0.02284   0.00000  Uiso   1.00
C352   C     0.85580   0.65192   0.24412   0.00000  Uiso   1.00
C353   C     0.81116   0.34812   0.25666   0.00000  Uiso   1.00
C354   C     0.83485   0.50059   0.33636   0.00000  Uiso   1.00
C355   C     0.83176   0.49950   0.16360   0.00000  Uiso   1.00
C356   C     0.81292   0.45569   0.09329   0.00000  Uiso   1.00
H357   H     0.88029   0.62569   0.45869   0.00000  Uiso   1.00
H358   H     0.94122   0.63604   0.35528   0.00000  Uiso   1.00
H359   H     0.94630   0.56789   0.35063   0.00000  Uiso   1.00
H360   H     0.95410   0.59968   0.40415   0.00000  Uiso   1.00
H361   H     0.92071   0.62129   0.07296   0.00000  Uiso   1.00
H362   H     0.94339   0.37092   0.04728   0.00000  Uiso   1.00
H363   H     0.89386   0.36197   0.00338   0.00000  Uiso   1.00
H364   H     0.96122   0.66260   0.00077   0.00000  Uiso   1.00
H365   H     0.78317   0.34080   0.44465   0.00000  Uiso   1.00
H366   H     0.68474   0.34664   0.42422   0.00000  Uiso   1.00
H367   H     0.72157   0.40358   0.40112   0.00000  Uiso   1.00
H368   H     0.77349   0.37902   0.03983   0.00000  Uiso   1.00
H369   H     0.68090   0.40631   0.45449   0.00000  Uiso   1.00
H370   H     0.67142   0.46082   0.21717   0.00000  Uiso   1.00
H371   H     0.99525   0.53920   0.28281   0.00000  Uiso   1.00
H372   H     0.81927   0.37926   0.10376   0.00000  Uiso   1.00
H373   H     0.71371   0.38817   0.10368   0.00000  Uiso   1.00
H374   H     0.72179   0.43524   0.14777   0.00000  Uiso   1.00
H375   H     0.73586   0.36992   0.15799   0.00000  Uiso   1.00
H376   H     0.84557   0.59772   0.35401   0.00000  Uiso   1.00
I377   I     0.81644   0.61302   0.13259   0.00000  Uiso   1.00
I378   I     0.84890   0.38675   0.37102   0.00000  Uiso   1.00
I379   I     0.93578   0.34141   0.20660   0.00000  Uiso   1.00
I380   I     0.73159   0.65862   0.29458   0.00000  Uiso   1.00
N381   N     0.98344   0.48598   0.23783   0.00000  Uiso   1.00
N382   N     0.68322   0.51402   0.26217   0.00000  Uiso   1.00
N383   N     0.80021   0.41016   0.11812   0.00000  Uiso   1.00
N384   N     0.86878   0.59220   0.38191   0.00000  Uiso   1.00
N385   N     0.89660   0.63310   0.04735   0.00000  Uiso   1.00
N386   N     0.76033   0.37134   0.45588   0.00000  Uiso   1.00
O387   O     0.79642   0.57952   0.25298   0.00000  Uiso   1.00
O388   O     0.87025   0.42048   0.24701   0.00000  Uiso   1.00
O389   O     0.89280   0.57054   0.24518   0.00000  Uiso   1.00
O390   O     0.77387   0.42946   0.25481   0.00000  Uiso   1.00
O391   O     0.78514   0.50450   0.31997   0.00000  Uiso   1.00
O392   O     0.88153   0.49550   0.18002   0.00000  Uiso   1.00
O393   O     0.88152   0.49552   0.31217   0.00000  Uiso   1.00
O394   O     0.78515   0.50448   0.18782   0.00000  Uiso   1.00
Zn395  Zn    0.76898   0.50600   0.25521   0.00000  Uiso   1.00
Zn396  Zn    0.89769   0.49400   0.24479   0.00000  Uiso   1.00
C397   C     0.18184   0.93157   0.24963   0.00000  Uiso   1.00
C398   C     0.18437   0.88033   0.40638   0.00000  Uiso   1.00
C399   C     0.16122   0.83400   0.11602   0.00000  Uiso   1.00
C400   C     0.17144   0.83428   0.38387   0.00000  Uiso   1.00
C401   C     0.16997   0.88046   0.09412   0.00000  Uiso   1.00
C402   C     0.16091   0.78826   0.40641   0.00000  Uiso   1.00
C403   C     0.17789   0.88097   0.04728   0.00000  Uiso   1.00
C404   C     0.15001   0.78918   0.45280   0.00000  Uiso   1.00
C405   C     0.16255   0.83532   0.02342   0.00000  Uiso   1.00
C406   C     0.16492   0.83505   0.47650   0.00000  Uiso   1.00
C407   C     0.14472   0.78974   0.04658   0.00000  Uiso   1.00
C408   C     0.15155   0.73510   0.25068   0.00000  Uiso   1.00
C409   C     0.18285   0.88046   0.45326   0.00000  Uiso   1.00
C410   C     0.20074   0.92509   0.02385   0.00000  Uiso   1.00
C411   C     0.12497   0.74621   0.47653   0.00000  Uiso   1.00
C412   C     0.07313   0.73383   0.13246   0.00000  Uiso   1.00
C413   C     0.26410   0.93249   0.37258   0.00000  Uiso   1.00
C414   C     0.25851   0.67588   0.02308   0.00000  Uiso   1.00
C415   C     0.04273   0.71614   0.43267   0.00000  Uiso   1.00
C416   C     0.19945   0.92493   0.47703   0.00000  Uiso   1.00
C417   C     0.12468   0.74640   0.02284   0.00000  Uiso   1.00
C418   C     0.18913   0.98526   0.24412   0.00000  Uiso   1.00
C419   C     0.14450   0.68146   0.25666   0.00000  Uiso   1.00
C420   C     0.16819   0.83392   0.33636   0.00000  Uiso   1.00
C421   C     0.16509   0.83283   0.16360   0.00000  Uiso   1.00
C422   C     0.14625   0.78902   0.09329   0.00000  Uiso   1.00
H423   H     0.21362   0.95903   0.45869   0.00000  Uiso   1.00
H424   H     0.27455   0.96938   0.35528   0.00000  Uiso   1.00
H425   H     0.27963   0.90123   0.35063   0.00000  Uiso   1.00
H426   H     0.28743   0.93302   0.40415   0.00000  Uiso   1.00
H427   H     0.25404   0.95462   0.07296   0.00000  Uiso   1.00
H428   H     0.27672   0.70425   0.04728   0.00000  Uiso   1.00
H429   H     0.22719   0.69530   0.00338   0.00000  Uiso   1.00
H430   H     0.29456   0.99594   0.00077   0.00000  Uiso   1.00
H431   H     0.11650   0.67413   0.44465   0.00000  Uiso   1.00
H432   H     0.01807   0.67998   0.42422   0.00000  Uiso   1.00
H433   H     0.05491   0.73692   0.40112   0.00000  Uiso   1.00
H434   H     0.10682   0.71235   0.03983   0.00000  Uiso   1.00
H435   H     0.01423   0.73965   0.45449   0.00000  Uiso   1.00
H436   H     0.00475   0.79415   0.21717   0.00000  Uiso   1.00
H437   H     0.32859   0.87254   0.28281   0.00000  Uiso   1.00
H438   H     0.15260   0.71259   0.10376   0.00000  Uiso   1.00
H439   H     0.04704   0.72150   0.10368   0.00000  Uiso   1.00
H440   H     0.05512   0.76857   0.14777   0.00000  Uiso   1.00
H441   H     0.06920   0.70326   0.15799   0.00000  Uiso   1.00
H442   H     0.17891   0.93106   0.35401   0.00000  Uiso   1.00
I443   I     0.14978   0.94635   0.13259   0.00000  Uiso   1.00
I444   I     0.18224   0.72009   0.37102   0.00000  Uiso   1.00
I445   I     0.26911   0.67474   0.20660   0.00000  Uiso   1.00
I446   I     0.06493   0.99195   0.29458   0.00000  Uiso   1.00
N447   N     0.31678   0.81932   0.23783   0.00000  Uiso   1.00
N448   N     0.01656   0.84735   0.26217   0.00000  Uiso   1.00
N449   N     0.13354   0.74349   0.11812   0.00000  Uiso   1.00
N450   N     0.20211   0.92553   0.38191   0.00000  Uiso   1.00
N451   N     0.22993   0.96643   0.04735   0.00000  Uiso   1.00
N452   N     0.09366   0.70467   0.45588   0.00000  Uiso   1.00
O453   O     0.12975   0.91286   0.25298   0.00000  Uiso   1.00
O454   O     0.20358   0.75381   0.24701   0.00000  Uiso   1.00
O455   O     0.22613   0.90387   0.24518   0.00000  Uiso   1.00
O456   O     0.10720   0.76279   0.25481   0.00000  Uiso   1.00
O457   O     0.11847   0.83784   0.31997   0.00000  Uiso   1.00
O458   O     0.21486   0.82883   0.18002   0.00000  Uiso   1.00
O459   O     0.21485   0.82885   0.31217   0.00000  Uiso   1.00
O460   O     0.11848   0.83781   0.18782   0.00000  Uiso   1.00
Zn461  Zn    0.10231   0.83933   0.25521   0.00000  Uiso   1.00
Zn462  Zn    0.23102   0.82734   0.24479   0.00000  Uiso   1.00
C463   C     0.51517   0.93157   0.24963   0.00000  Uiso   1.00
C464   C     0.51771   0.88033   0.40638   0.00000  Uiso   1.00
C465   C     0.49456   0.83400   0.11602   0.00000  Uiso   1.00
C466   C     0.50477   0.83428   0.38387   0.00000  Uiso   1.00
C467   C     0.50331   0.88046   0.09412   0.00000  Uiso   1.00
C468   C     0.49425   0.78826   0.40641   0.00000  Uiso   1.00
C469   C     0.51122   0.88097   0.04728   0.00000  Uiso   1.00
C470   C     0.48334   0.78918   0.45280   0.00000  Uiso   1.00
C471   C     0.49589   0.83532   0.02342   0.00000  Uiso   1.00
C472   C     0.49825   0.83505   0.47650   0.00000  Uiso   1.00
C473   C     0.47806   0.78974   0.04658   0.00000  Uiso   1.00
C474   C     0.48488   0.73510   0.25068   0.00000  Uiso   1.00
C475   C     0.51619   0.88046   0.45326   0.00000  Uiso   1.00
C476   C     0.53407   0.92509   0.02385   0.00000  Uiso   1.00
C477   C     0.45831   0.74621   0.47653   0.00000  Uiso   1.00
C478   C     0.40647   0.73383   0.13246   0.00000  Uiso   1.00
C479   C     0.59744   0.93249   0.37258   0.00000  Uiso   1.00
C480   C     0.59184   0.67588   0.02308   0.00000  Uiso   1.00
C481   C     0.37606   0.71614   0.43267   0.00000  Uiso   1.00
C482   C     0.53278   0.92493   0.47703   0.00000  Uiso   1.00
C483   C     0.45802   0.74640   0.02284   0.00000  Uiso   1.00
C484   C     0.52246   0.98526   0.24412   0.00000  Uiso   1.00
C485   C     0.47783   0.68146   0.25666   0.00000  Uiso   1.00
C486   C     0.50152   0.83392   0.33636   0.00000  Uiso   1.00
C487   C     0.49843   0.83283   0.16360   0.00000  Uiso   1.00
C488   C     0.47958   0.78902   0.09329   0.00000  Uiso   1.00
H489   H     0.54696   0.95903   0.45869   0.00000  Uiso   1.00
H490   H     0.60788   0.96938   0.35528   0.00000  Uiso   1.00
H491   H     0.61297   0.90123   0.35063   0.00000  Uiso   1.00
H492   H     0.62077   0.93302   0.40415   0.00000  Uiso   1.00
H493   H     0.58737   0.95462   0.07296   0.00000  Uiso   1.00
H494   H     0.61005   0.70425   0.04728   0.00000  Uiso   1.00
H495   H     0.56052   0.69530   0.00338   0.00000  Uiso   1.00
H496   H     0.62789   0.99594   0.00077   0.00000  Uiso   1.00
H497   H     0.44984   0.67413   0.44465   0.00000  Uiso   1.00
H498   H     0.35141   0.67998   0.42422   0.00000  Uiso   1.00
H499   H     0.38824   0.73692   0.40112   0.00000  Uiso   1.00
H500   H     0.44015   0.71235   0.03983   0.00000  Uiso   1.00
H501   H     0.34756   0.73965   0.45449   0.00000  Uiso   1.00
H502   H     0.33809   0.79415   0.21717   0.00000  Uiso   1.00
H503   H     0.66192   0.87254   0.28281   0.00000  Uiso   1.00
H504   H     0.48593   0.71259   0.10376   0.00000  Uiso   1.00
H505   H     0.38037   0.72150   0.10368   0.00000  Uiso   1.00
H506   H     0.38845   0.76857   0.14777   0.00000  Uiso   1.00
H507   H     0.40253   0.70326   0.15799   0.00000  Uiso   1.00
H508   H     0.51224   0.93106   0.35401   0.00000  Uiso   1.00
I509   I     0.48311   0.94635   0.13259   0.00000  Uiso   1.00
I510   I     0.51557   0.72009   0.37102   0.00000  Uiso   1.00
I511   I     0.60244   0.67474   0.20660   0.00000  Uiso   1.00
I512   I     0.39826   0.99195   0.29458   0.00000  Uiso   1.00
N513   N     0.65011   0.81932   0.23783   0.00000  Uiso   1.00
N514   N     0.34989   0.84735   0.26217   0.00000  Uiso   1.00
N515   N     0.46687   0.74349   0.11812   0.00000  Uiso   1.00
N516   N     0.53545   0.92553   0.38191   0.00000  Uiso   1.00
N517   N     0.56326   0.96643   0.04735   0.00000  Uiso   1.00
N518   N     0.42700   0.70467   0.45588   0.00000  Uiso   1.00
O519   O     0.46308   0.91286   0.25298   0.00000  Uiso   1.00
O520   O     0.53692   0.75381   0.24701   0.00000  Uiso   1.00
O521   O     0.55946   0.90387   0.24518   0.00000  Uiso   1.00
O522   O     0.44054   0.76279   0.25481   0.00000  Uiso   1.00
O523   O     0.45181   0.83784   0.31997   0.00000  Uiso   1.00
O524   O     0.54819   0.82883   0.18002   0.00000  Uiso   1.00
O525   O     0.54819   0.82885   0.31217   0.00000  Uiso   1.00
O526   O     0.45181   0.83781   0.18782   0.00000  Uiso   1.00
Zn527  Zn    0.43565   0.83933   0.25521   0.00000  Uiso   1.00
Zn528  Zn    0.56435   0.82734   0.24479   0.00000  Uiso   1.00
C529   C     0.84851   0.93157   0.24963   0.00000  Uiso   1.00
C530   C     0.85104   0.88033   0.40638   0.00000  Uiso   1.00
C531   C     0.82789   0.83400   0.11602   0.00000  Uiso   1.00
C532   C     0.83811   0.83428   0.38387   0.00000  Uiso   1.00
C533   C     0.83664   0.88046   0.09412   0.00000  Uiso   1.00
C534   C     0.82758   0.78826   0.40641   0.00000  Uiso   1.00
C535   C     0.84455   0.88097   0.04728   0.00000  Uiso   1.00
C536   C     0.81667   0.78918   0.45280   0.00000  Uiso   1.00
C537   C     0.82922   0.83532   0.02342   0.00000  Uiso   1.00
C538   C     0.83158   0.83505   0.47650   0.00000  Uiso   1.00
C539   C     0.81139   0.78974   0.04658   0.00000  Uiso   1.00
C540   C     0.81822   0.73510   0.25068   0.00000  Uiso   1.00
C541   C     0.84952   0.88046   0.45326   0.00000  Uiso   1.00
C542   C     0.86740   0.92509   0.02385   0.00000  Uiso   1.00
C543   C     0.79164   0.74621   0.47653   0.00000  Uiso   1.00
C544   C     0.73980   0.73383   0.13246   0.00000  Uiso   1.00
C545   C     0.93077   0.93249   0.37258   0.00000  Uiso   1.00
C546   C     0.92518   0.67588   0.02308   0.00000  Uiso   1.00
C547   C     0.70940   0.71614   0.43267   0.00000  Uiso   1.00
C548   C     0.86611   0.92493   0.47703   0.00000  Uiso   1.00
C549   C     0.79135   0.74640   0.02284   0.00000  Uiso   1.00
C550   C     0.85580   0.98526   0.24412   0.00000  Uiso   1.00
C551   C     0.81116   0.68146   0.25666   0.00000  Uiso   1.00
C552   C     0.83485   0.83392   0.33636   0.00000  Uiso   1.00
C553   C     0.83176   0.83283   0.16360   0.00000  Uiso   1.00
C554   C     0.81292   0.78902   0.09329   0.00000  Uiso   1.00
H555   H     0.88029   0.95903   0.45869   0.00000  Uiso   1.00
H556   H     0.94122   0.96938   0.35528   0.00000  Uiso   1.00
H557   H     0.94630   0.90123   0.35063   0.00000  Uiso   1.00
H558   H     0.95410   0.93302   0.40415   0.00000  Uiso   1.00
H559   H     0.92071   0.95462   0.07296   0.00000  Uiso   1.00
H560   H     0.94339   0.70425   0.04728   0.00000  Uiso   1.00
H561   H     0.89386   0.69530   0.00338   0.00000  Uiso   1.00
H562   H     0.96122   0.99594   0.00077   0.00000  Uiso   1.00
H563   H     0.78317   0.67413   0.44465   0.00000  Uiso   1.00
H564   H     0.68474   0.67998   0.42422   0.00000  Uiso   1.00
H565   H     0.72157   0.73692   0.40112   0.00000  Uiso   1.00
H566   H     0.77349   0.71235   0.03983   0.00000  Uiso   1.00
H567   H     0.68090   0.73965   0.45449   0.00000  Uiso   1.00
H568   H     0.67142   0.79415   0.21717   0.00000  Uiso   1.00
H569   H     0.99525   0.87254   0.28281   0.00000  Uiso   1.00
H570   H     0.81927   0.71259   0.10376   0.00000  Uiso   1.00
H571   H     0.71371   0.72150   0.10368   0.00000  Uiso   1.00
H572   H     0.72179   0.76857   0.14777   0.00000  Uiso   1.00
H573   H     0.73586   0.70326   0.15799   0.00000  Uiso   1.00
H574   H     0.84557   0.93106   0.35401   0.00000  Uiso   1.00
I575   I     0.81644   0.94635   0.13259   0.00000  Uiso   1.00
I576   I     0.84890   0.72009   0.37102   0.00000  Uiso   1.00
I577   I     0.93578   0.67474   0.20660   0.00000  Uiso   1.00
I578   I     0.73159   0.99195   0.29458   0.00000  Uiso   1.00
N579   N     0.98344   0.81932   0.23783   0.00000  Uiso   1.00
N580   N     0.68322   0.84735   0.26217   0.00000  Uiso   1.00
N581   N     0.80021   0.74349   0.11812   0.00000  Uiso   1.00
N582   N     0.86878   0.92553   0.38191   0.00000  Uiso   1.00
N583   N     0.89660   0.96643   0.04735   0.00000  Uiso   1.00
N584   N     0.76033   0.70467   0.45588   0.00000  Uiso   1.00
O585   O     0.79642   0.91286   0.25298   0.00000  Uiso   1.00
O586   O     0.87025   0.75381   0.24701   0.00000  Uiso   1.00
O587   O     0.89280   0.90387   0.24518   0.00000  Uiso   1.00
O588   O     0.77387   0.76279   0.25481   0.00000  Uiso   1.00
O589   O     0.78514   0.83784   0.31997   0.00000  Uiso   1.00
O590   O     0.88153   0.82883   0.18002   0.00000  Uiso   1.00
O591   O     0.88152   0.82885   0.31217   0.00000  Uiso   1.00
O592   O     0.78515   0.83781   0.18782   0.00000  Uiso   1.00
Zn593  Zn    0.76898   0.83933   0.25521   0.00000  Uiso   1.00
Zn594  Zn    0.89769   0.82734   0.24479   0.00000  Uiso   1.00
C595   C     0.18184   0.26490   0.74963   0.00000  Uiso   1.00
C596   C     0.18437   0.21366   0.90638   0.00000  Uiso   1.00
C597   C     0.16122   0.16734   0.61602   0.00000  Uiso   1.00
C598   C     0.17144   0.16761   0.88387   0.00000  Uiso   1.00
C599   C     0.16997   0.21380   0.59412   0.00000  Uiso   1.00
C600   C     0.16091   0.12160   0.90641   0.00000  Uiso   1.00
C601   C     0.17789   0.21430   0.54728   0.00000  Uiso   1.00
C602   C     0.15001   0.12251   0.95280   0.00000  Uiso   1.00
C603   C     0.16255   0.16865   0.52342   0.00000  Uiso   1.00
C604   C     0.16492   0.16839   0.97650   0.00000  Uiso   1.00
C605   C     0.14472   0.12308   0.54658   0.00000  Uiso   1.00
C606   C     0.15155   0.06843   0.75068   0.00000  Uiso   1.00
C607   C     0.18285   0.21379   0.95326   0.00000  Uiso   1.00
C608   C     0.20074   0.25842   0.52385   0.00000  Uiso   1.00
C609   C     0.12497   0.07954   0.97653   0.00000  Uiso   1.00
C610   C     0.07313   0.06716   0.63246   0.00000  Uiso   1.00
C611   C     0.26410   0.26582   0.87258   0.00000  Uiso   1.00
C612   C     0.25851   0.00921   0.52308   0.00000  Uiso   1.00
C613   C     0.04273   0.04947   0.93267   0.00000  Uiso   1.00
C614   C     0.19945   0.25826   0.97703   0.00000  Uiso   1.00
C615   C     0.12468   0.07973   0.52284   0.00000  Uiso   1.00
C616   C     0.18913   0.31859   0.74412   0.00000  Uiso   1.00
C617   C     0.14450   0.01479   0.75666   0.00000  Uiso   1.00
C618   C     0.16819   0.16725   0.83636   0.00000  Uiso   1.00
C619   C     0.16509   0.16616   0.66360   0.00000  Uiso   1.00
C620   C     0.14625   0.12235   0.59329   0.00000  Uiso   1.00
H621   H     0.21362   0.29236   0.95869   0.00000  Uiso   1.00
H622   H     0.27455   0.30271   0.85528   0.00000  Uiso   1.00
H623   H     0.27963   0.23456   0.85063   0.00000  Uiso   1.00
H624   H     0.28743   0.26635   0.90415   0.00000  Uiso   1.00
H625   H     0.25404   0.28795   0.57296   0.00000  Uiso   1.00
H626   H     0.27672   0.03759   0.54728   0.00000  Uiso   1.00
H627   H     0.22719   0.02864   0.50338   0.00000  Uiso   1.00
H628   H     0.29456   0.32927   0.50077   0.00000  Uiso   1.00
H629   H     0.11650   0.00747   0.94465   0.00000  Uiso   1.00
H630   H     0.01807   0.01331   0.92422   0.00000  Uiso   1.00
H631   H     0.05491   0.07025   0.90112   0.00000  Uiso   1.00
H632   H     0.10682   0.04569   0.53983   0.00000  Uiso   1.00
H633   H     0.01423   0.07298   0.95449   0.00000  Uiso   1.00
H634   H     0.00475   0.12748   0.71717   0.00000  Uiso   1.00
H635   H     0.32859   0.20587   0.78281   0.00000  Uiso   1.00
H636   H     0.15260   0.04592   0.60376   0.00000  Uiso   1.00
H637   H     0.04704   0.05483   0.60368   0.00000  Uiso   1.00
H638   H     0.05512   0.10191   0.64777   0.00000  Uiso   1.00
H639   H     0.06920   0.03659   0.65799   0.00000  Uiso   1.00
H640   H     0.17891   0.26439   0.85401   0.00000  Uiso   1.00
I641   I     0.14978   0.27968   0.63259   0.00000  Uiso   1.00
I642   I     0.18224   0.05342   0.87102   0.00000  Uiso   1.00
I643   I     0.26911   0.00807   0.70660   0.00000  Uiso   1.00
I644   I     0.06493   0.32528   0.79458   0.00000  Uiso   1.00
N645   N     0.31678   0.15265   0.73783   0.00000  Uiso   1.00
N646   N     0.01656   0.18068   0.76217   0.00000  Uiso   1.00
N647   N     0.13354   0.07683   0.61812   0.00000  Uiso   1.00
N648   N     0.20211   0.25886   0.88191   0.00000  Uiso   1.00
N649   N     0.22993   0.29976   0.54735   0.00000  Uiso   1.00
N650   N     0.09366   0.03801   0.95588   0.00000  Uiso   1.00
O651   O     0.12975   0.24619   0.75298   0.00000  Uiso   1.00
O652   O     0.20358   0.08714   0.74701   0.00000  Uiso   1.00
O653   O     0.22613   0.23721   0.74518   0.00000  Uiso   1.00
O654   O     0.10720   0.09613   0.75481   0.00000  Uiso   1.00
O655   O     0.11847   0.17117   0.81997   0.00000  Uiso   1.00
O656   O     0.21486   0.16216   0.68002   0.00000  Uiso   1.00
O657   O     0.21485   0.16219   0.81217   0.00000  Uiso   1.00
O658   O     0.11848   0.17115   0.68782   0.00000  Uiso   1.00
Zn659  Zn    0.10231   0.17266   0.75521   0.00000  Uiso   1.00
Zn660  Zn    0.23102   0.16067   0.74479   0.00000  Uiso   1.00
C661   C     0.51517   0.26490   0.74963   0.00000  Uiso   1.00
C662   C     0.51771   0.21366   0.90638   0.00000  Uiso   1.00
C663   C     0.49456   0.16734   0.61602   0.00000  Uiso   1.00
C664   C     0.50477   0.16761   0.88387   0.00000  Uiso   1.00
C665   C     0.50331   0.21380   0.59412   0.00000  Uiso   1.00
C666   C     0.49425   0.12160   0.90641   0.00000  Uiso   1.00
C667   C     0.51122   0.21430   0.54728   0.00000  Uiso   1.00
C668   C     0.48334   0.12251   0.95280   0.00000  Uiso   1.00
C669   C     0.49589   0.16865   0.52342   0.00000  Uiso   1.00
C670   C     0.49825   0.16839   0.97650   0.00000  Uiso   1.00
C671   C     0.47806   0.12308   0.54658   0.00000  Uiso   1.00
C672   C     0.48488   0.06843   0.75068   0.00000  Uiso   1.00
C673   C     0.51619   0.21379   0.95326   0.00000  Uiso   1.00
C674   C     0.53407   0.25842   0.52385   0.00000  Uiso   1.00
C675   C     0.45831   0.07954   0.97653   0.00000  Uiso   1.00
C676   C     0.40647   0.06716   0.63246   0.00000  Uiso   1.00
C677   C     0.59744   0.26582   0.87258   0.00000  Uiso   1.00
C678   C     0.59184   0.00921   0.52308   0.00000  Uiso   1.00
C679   C     0.37606   0.04947   0.93267   0.00000  Uiso   1.00
C680   C     0.53278   0.25826   0.97703   0.00000  Uiso   1.00
C681   C     0.45802   0.07973   0.52284   0.00000  Uiso   1.00
C682   C     0.52246   0.31859   0.74412   0.00000  Uiso   1.00
C683   C     0.47783   0.01479   0.75666   0.00000  Uiso   1.00
C684   C     0.50152   0.16725   0.83636   0.00000  Uiso   1.00
C685   C     0.49843   0.16616   0.66360   0.00000  Uiso   1.00
C686   C     0.47958   0.12235   0.59329   0.00000  Uiso   1.00
H687   H     0.54696   0.29236   0.95869   0.00000  Uiso   1.00
H688   H     0.60788   0.30271   0.85528   0.00000  Uiso   1.00
H689   H     0.61297   0.23456   0.85063   0.00000  Uiso   1.00
H690   H     0.62077   0.26635   0.90415   0.00000  Uiso   1.00
H691   H     0.58737   0.28795   0.57296   0.00000  Uiso   1.00
H692   H     0.61005   0.03759   0.54728   0.00000  Uiso   1.00
H693   H     0.56052   0.02864   0.50338   0.00000  Uiso   1.00
H694   H     0.62789   0.32927   0.50077   0.00000  Uiso   1.00
H695   H     0.44984   0.00747   0.94465   0.00000  Uiso   1.00
H696   H     0.35141   0.01331   0.92422   0.00000  Uiso   1.00
H697   H     0.38824   0.07025   0.90112   0.00000  Uiso   1.00
H698   H     0.44015   0.04569   0.53983   0.00000  Uiso   1.00
H699   H     0.34756   0.07298   0.95449   0.00000  Uiso   1.00
H700   H     0.33809   0.12748   0.71717   0.00000  Uiso   1.00
H701   H     0.66192   0.20587   0.78281   0.00000  Uiso   1.00
H702   H     0.48593   0.04592   0.60376   0.00000  Uiso   1.00
H703   H     0.38037   0.05483   0.60368   0.00000  Uiso   1.00
H704   H     0.38845   0.10191   0.64777   0.00000  Uiso   1.00
H705   H     0.40253   0.03659   0.65799   0.00000  Uiso   1.00
H706   H     0.51224   0.26439   0.85401   0.00000  Uiso   1.00
I707   I     0.48311   0.27968   0.63259   0.00000  Uiso   1.00
I708   I     0.51557   0.05342   0.87102   0.00000  Uiso   1.00
I709   I     0.60244   0.00807   0.70660   0.00000  Uiso   1.00
I710   I     0.39826   0.32528   0.79458   0.00000  Uiso   1.00
N711   N     0.65011   0.15265   0.73783   0.00000  Uiso   1.00
N712   N     0.34989   0.18068   0.76217   0.00000  Uiso   1.00
N713   N     0.46687   0.07683   0.61812   0.00000  Uiso   1.00
N714   N     0.53545   0.25886   0.88191   0.00000  Uiso   1.00
N715   N     0.56326   0.29976   0.54735   0.00000  Uiso   1.00
N716   N     0.42700   0.03801   0.95588   0.00000  Uiso   1.00
O717   O     0.46308   0.24619   0.75298   0.00000  Uiso   1.00
O718   O     0.53692   0.08714   0.74701   0.00000  Uiso   1.00
O719   O     0.55946   0.23721   0.74518   0.00000  Uiso   1.00
O720   O     0.44054   0.09613   0.75481   0.00000  Uiso   1.00
O721   O     0.45181   0.17117   0.81997   0.00000  Uiso   1.00
O722   O     0.54819   0.16216   0.68002   0.00000  Uiso   1.00
O723   O     0.54819   0.16219   0.81217   0.00000  Uiso   1.00
O724   O     0.45181   0.17115   0.68782   0.00000  Uiso   1.00
Zn725  Zn    0.43565   0.17266   0.75521   0.00000  Uiso   1.00
Zn726  Zn    0.56435   0.16067   0.74479   0.00000  Uiso   1.00
C727   C     0.84851   0.26490   0.74963   0.00000  Uiso   1.00
C728   C     0.85104   0.21366   0.90638   0.00000  Uiso   1.00
C729   C     0.82789   0.16734   0.61602   0.00000  Uiso   1.00
C730   C     0.83811   0.16761   0.88387   0.00000  Uiso   1.00
C731   C     0.83664   0.21380   0.59412   0.00000  Uiso   1.00
C732   C     0.82758   0.12160   0.90641   0.00000  Uiso   1.00
C733   C     0.84455   0.21430   0.54728   0.00000  Uiso   1.00
C734   C     0.81667   0.12251   0.95280   0.00000  Uiso   1.00
C735   C     0.82922   0.16865   0.52342   0.00000  Uiso   1.00
C736   C     0.83158   0.16839   0.97650   0.00000  Uiso   1.00
C737   C     0.81139   0.12308   0.54658   0.00000  Uiso   1.00
C738   C     0.81822   0.06843   0.75068   0.00000  Uiso   1.00
C739   C     0.84952   0.21379   0.95326   0.00000  Uiso   1.00
C740   C     0.86740   0.25842   0.52385   0.00000  Uiso   1.00
C741   C     0.79164   0.07954   0.97653   0.00000  Uiso   1.00
C742   C     0.73980   0.06716   0.63246   0.00000  Uiso   1.00
C743   C     0.93077   0.26582   0.87258   0.00000  Uiso   1.00
C744   C     0.92518   0.00921   0.52308   0.00000  Uiso   1.00
C745   C     0.70940   0.04947   0.93267   0.00000  Uiso   1.00
C746   C     0.86611   0.25826   0.97703   0.00000  Uiso   1.00
C747   C     0.79135   0.07973   0.52284   0.00000  Uiso   1.00
C748   C     0.85580   0.31859   0.74412   0.00000  Uiso   1.00
C749   C     0.81116   0.01479   0.75666   0.00000  Uiso   1.00
C750   C     0.83485   0.16725   0.83636   0.00000  Uiso   1.00
C751   C     0.83176   0.16616   0.66360   0.00000  Uiso   1.00
C752   C     0.81292   0.12235   0.59329   0.00000  Uiso   1.00
H753   H     0.88029   0.29236   0.95869   0.00000  Uiso   1.00
H754   H     0.94122   0.30271   0.85528   0.00000  Uiso   1.00
H755   H     0.94630   0.23456   0.85063   0.00000  Uiso   1.00
H756   H     0.95410   0.26635   0.90415   0.00000  Uiso   1.00
H757   H     0.92071   0.28795   0.57296   0.00000  Uiso   1.00
H758   H     0.94339   0.03759   0.54728   0.00000  Uiso   1.00
H759   H     0.89386   0.02864   0.50338   0.00000  Uiso   1.00
H760   H     0.96122   0.32927   0.50077   0.00000  Uiso   1.00
H761   H     0.78317   0.00747   0.94465   0.00000  Uiso   1.00
H762   H     0.68474   0.01331   0.92422   0.00000  Uiso   1.00
H763   H     0.72157   0.07025   0.90112   0.00000  Uiso   1.00
H764   H     0.77349   0.04569   0.53983   0.00000  Uiso   1.00
H765   H     0.68090   0.07298   0.95449   0.00000  Uiso   1.00
H766   H     0.67142   0.12748   0.71717   0.00000  Uiso   1.00
H767   H     0.99525   0.20587   0.78281   0.00000  Uiso   1.00
H768   H     0.81927   0.04592   0.60376   0.00000  Uiso   1.00
H769   H     0.71371   0.05483   0.60368   0.00000  Uiso   1.00
H770   H     0.72179   0.10191   0.64777   0.00000  Uiso   1.00
H771   H     0.73586   0.03659   0.65799   0.00000  Uiso   1.00
H772   H     0.84557   0.26439   0.85401   0.00000  Uiso   1.00
I773   I     0.81644   0.27968   0.63259   0.00000  Uiso   1.00
I774   I     0.84890   0.05342   0.87102   0.00000  Uiso   1.00
I775   I     0.93578   0.00807   0.70660   0.00000  Uiso   1.00
I776   I     0.73159   0.32528   0.79458   0.00000  Uiso   1.00
N777   N     0.98344   0.15265   0.73783   0.00000  Uiso   1.00
N778   N     0.68322   0.18068   0.76217   0.00000  Uiso   1.00
N779   N     0.80021   0.07683   0.61812   0.00000  Uiso   1.00
N780   N     0.86878   0.25886   0.88191   0.00000  Uiso   1.00
N781   N     0.89660   0.29976   0.54735   0.00000  Uiso   1.00
N782   N     0.76033   0.03801   0.95588   0.00000  Uiso   1.00
O783   O     0.79642   0.24619   0.75298   0.00000  Uiso   1.00
O784   O     0.87025   0.08714   0.74701   0.00000  Uiso   1.00
O785   O     0.89280   0.23721   0.74518   0.00000  Uiso   1.00
O786   O     0.77387   0.09613   0.75481   0.00000  Uiso   1.00
O787   O     0.78514   0.17117   0.81997   0.00000  Uiso   1.00
O788   O     0.88153   0.16216   0.68002   0.00000  Uiso   1.00
O789   O     0.88152   0.16219   0.81217   0.00000  Uiso   1.00
O790   O     0.78515   0.17115   0.68782   0.00000  Uiso   1.00
Zn791  Zn    0.76898   0.17266   0.75521   0.00000  Uiso   1.00
Zn792  Zn    0.89769   0.16067   0.74479   0.00000  Uiso   1.00
C793   C     0.18184   0.59823   0.74963   0.00000  Uiso   1.00
C794   C     0.18437   0.54699   0.90638   0.00000  Uiso   1.00
C795   C     0.16122   0.50067   0.61602   0.00000  Uiso   1.00
C796   C     0.17144   0.50094   0.88387   0.00000  Uiso   1.00
C797   C     0.16997   0.54713   0.59412   0.00000  Uiso   1.00
C798   C     0.16091   0.45493   0.90641   0.00000  Uiso   1.00
C799   C     0.17789   0.54763   0.54728   0.00000  Uiso   1.00
C800   C     0.15001   0.45584   0.95280   0.00000  Uiso   1.00
C801   C     0.16255   0.50199   0.52342   0.00000  Uiso   1.00
C802   C     0.16492   0.50172   0.97650   0.00000  Uiso   1.00
C803   C     0.14472   0.45641   0.54658   0.00000  Uiso   1.00
C804   C     0.15155   0.40176   0.75068   0.00000  Uiso   1.00
C805   C     0.18285   0.54713   0.95326   0.00000  Uiso   1.00
C806   C     0.20074   0.59176   0.52385   0.00000  Uiso   1.00
C807   C     0.12497   0.41288   0.97653   0.00000  Uiso   1.00
C808   C     0.07313   0.40049   0.63246   0.00000  Uiso   1.00
C809   C     0.26410   0.59915   0.87258   0.00000  Uiso   1.00
C810   C     0.25851   0.34254   0.52308   0.00000  Uiso   1.00
C811   C     0.04273   0.38280   0.93267   0.00000  Uiso   1.00
C812   C     0.19945   0.59159   0.97703   0.00000  Uiso   1.00
C813   C     0.12468   0.41307   0.52284   0.00000  Uiso   1.00
C814   C     0.18913   0.65192   0.74412   0.00000  Uiso   1.00
C815   C     0.14450   0.34812   0.75666   0.00000  Uiso   1.00
C816   C     0.16819   0.50059   0.83636   0.00000  Uiso   1.00
C817   C     0.16509   0.49950   0.66360   0.00000  Uiso   1.00
C818   C     0.14625   0.45569   0.59329   0.00000  Uiso   1.00
H819   H     0.21362   0.62569   0.95869   0.00000  Uiso   1.00
H820   H     0.27455   0.63604   0.85528   0.00000  Uiso   1.00
H821   H     0.27963   0.56789   0.85063   0.00000  Uiso   1.00
H822   H     0.28743   0.59968   0.90415   0.00000  Uiso   1.00
H823   H     0.25404   0.62129   0.57296   0.00000  Uiso   1.00
H824   H     0.27672   0.37092   0.54728   0.00000  Uiso   1.00
H825   H     0.22719   0.36197   0.50338   0.00000  Uiso   1.00
H826   H     0.29456   0.66260   0.50077   0.00000  Uiso   1.00
H827   H     0.11650   0.34080   0.94465   0.00000  Uiso   1.00
H828   H     0.01807   0.34664   0.92422   0.00000  Uiso   1.00
H829   H     0.05491   0.40358   0.90112   0.00000  Uiso   1.00
H830   H     0.10682   0.37902   0.53983   0.00000  Uiso   1.00
H831   H     0.01423   0.40631   0.95449   0.00000  Uiso   1.00
H832   H     0.00475   0.46082   0.71717   0.00000  Uiso   1.00
H833   H     0.32859   0.53920   0.78281   0.00000  Uiso   1.00
H834   H     0.15260   0.37926   0.60376   0.00000  Uiso   1.00
H835   H     0.04704   0.38817   0.60368   0.00000  Uiso   1.00
H836   H     0.05512   0.43524   0.64777   0.00000  Uiso   1.00
H837   H     0.06920   0.36992   0.65799   0.00000  Uiso   1.00
H838   H     0.17891   0.59772   0.85401   0.00000  Uiso   1.00
I839   I     0.14978   0.61302   0.63259   0.00000  Uiso   1.00
I840   I     0.18224   0.38675   0.87102   0.00000  Uiso   1.00
I841   I     0.26911   0.34141   0.70660   0.00000  Uiso   1.00
I842   I     0.06493   0.65862   0.79458   0.00000  Uiso   1.00
N843   N     0.31678   0.48598   0.73783   0.00000  Uiso   1.00
N844   N     0.01656   0.51402   0.76217   0.00000  Uiso   1.00
N845   N     0.13354   0.41016   0.61812   0.00000  Uiso   1.00
N846   N     0.20211   0.59220   0.88191   0.00000  Uiso   1.00
N847   N     0.22993   0.63310   0.54735   0.00000  Uiso   1.00
N848   N     0.09366   0.37134   0.95588   0.00000  Uiso   1.00
O849   O     0.12975   0.57952   0.75298   0.00000  Uiso   1.00
O850   O     0.20358   0.42048   0.74701   0.00000  Uiso   1.00
O851   O     0.22613   0.57054   0.74518   0.00000  Uiso   1.00
O852   O     0.10720   0.42946   0.75481   0.00000  Uiso   1.00
O853   O     0.11847   0.50450   0.81997   0.00000  Uiso   1.00
O854   O     0.21486   0.49550   0.68002   0.00000  Uiso   1.00
O855   O     0.21485   0.49552   0.81217   0.00000  Uiso   1.00
O856   O     0.11848   0.50448   0.68782   0.00000  Uiso   1.00
Zn857  Zn    0.10231   0.50600   0.75521   0.00000  Uiso   1.00
Zn858  Zn    0.23102   0.49400   0.74479   0.00000  Uiso   1.00
C859   C     0.51517   0.59823   0.74963   0.00000  Uiso   1.00
C860   C     0.51771   0.54699   0.90638   0.00000  Uiso   1.00
C861   C     0.49456   0.50067   0.61602   0.00000  Uiso   1.00
C862   C     0.50477   0.50094   0.88387   0.00000  Uiso   1.00
C863   C     0.50331   0.54713   0.59412   0.00000  Uiso   1.00
C864   C     0.49425   0.45493   0.90641   0.00000  Uiso   1.00
C865   C     0.51122   0.54763   0.54728   0.00000  Uiso   1.00
C866   C     0.48334   0.45584   0.95280   0.00000  Uiso   1.00
C867   C     0.49589   0.50199   0.52342   0.00000  Uiso   1.00
C868   C     0.49825   0.50172   0.97650   0.00000  Uiso   1.00
C869   C     0.47806   0.45641   0.54658   0.00000  Uiso   1.00
C870   C     0.48488   0.40176   0.75068   0.00000  Uiso   1.00
C871   C     0.51619   0.54713   0.95326   0.00000  Uiso   1.00
C872   C     0.53407   0.59176   0.52385   0.00000  Uiso   1.00
C873   C     0.45831   0.41288   0.97653   0.00000  Uiso   1.00
C874   C     0.40647   0.40049   0.63246   0.00000  Uiso   1.00
C875   C     0.59744   0.59915   0.87258   0.00000  Uiso   1.00
C876   C     0.59184   0.34254   0.52308   0.00000  Uiso   1.00
C877   C     0.37606   0.38280   0.93267   0.00000  Uiso   1.00
C878   C     0.53278   0.59159   0.97703   0.00000  Uiso   1.00
C879   C     0.45802   0.41307   0.52284   0.00000  Uiso   1.00
C880   C     0.52246   0.65192   0.74412   0.00000  Uiso   1.00
C881   C     0.47783   0.34812   0.75666   0.00000  Uiso   1.00
C882   C     0.50152   0.50059   0.83636   0.00000  Uiso   1.00
C883   C     0.49843   0.49950   0.66360   0.00000  Uiso   1.00
C884   C     0.47958   0.45569   0.59329   0.00000  Uiso   1.00
H885   H     0.54696   0.62569   0.95869   0.00000  Uiso   1.00
H886   H     0.60788   0.63604   0.85528   0.00000  Uiso   1.00
H887   H     0.61297   0.56789   0.85063   0.00000  Uiso   1.00
H888   H     0.62077   0.59968   0.90415   0.00000  Uiso   1.00
H889   H     0.58737   0.62129   0.57296   0.00000  Uiso   1.00
H890   H     0.61005   0.37092   0.54728   0.00000  Uiso   1.00
H891   H     0.56052   0.36197   0.50338   0.00000  Uiso   1.00
H892   H     0.62789   0.66260   0.50077   0.00000  Uiso   1.00
H893   H     0.44984   0.34080   0.94465   0.00000  Uiso   1.00
H894   H     0.35141   0.34664   0.92422   0.00000  Uiso   1.00
H895   H     0.38824   0.40358   0.90112   0.00000  Uiso   1.00
H896   H     0.44015   0.37902   0.53983   0.00000  Uiso   1.00
H897   H     0.34756   0.40631   0.95449   0.00000  Uiso   1.00
H898   H     0.33809   0.46082   0.71717   0.00000  Uiso   1.00
H899   H     0.66192   0.53920   0.78281   0.00000  Uiso   1.00
H900   H     0.48593   0.37926   0.60376   0.00000  Uiso   1.00
H901   H     0.38037   0.38817   0.60368   0.00000  Uiso   1.00
H902   H     0.38845   0.43524   0.64777   0.00000  Uiso   1.00
H903   H     0.40253   0.36992   0.65799   0.00000  Uiso   1.00
H904   H     0.51224   0.59772   0.85401   0.00000  Uiso   1.00
I905   I     0.48311   0.61302   0.63259   0.00000  Uiso   1.00
I906   I     0.51557   0.38675   0.87102   0.00000  Uiso   1.00
I907   I     0.60244   0.34141   0.70660   0.00000  Uiso   1.00
I908   I     0.39826   0.65862   0.79458   0.00000  Uiso   1.00
N909   N     0.65011   0.48598   0.73783   0.00000  Uiso   1.00
N910   N     0.34989   0.51402   0.76217   0.00000  Uiso   1.00
N911   N     0.46687   0.41016   0.61812   0.00000  Uiso   1.00
N912   N     0.53545   0.59220   0.88191   0.00000  Uiso   1.00
N913   N     0.56326   0.63310   0.54735   0.00000  Uiso   1.00
N914   N     0.42700   0.37134   0.95588   0.00000  Uiso   1.00
O915   O     0.46308   0.57952   0.75298   0.00000  Uiso   1.00
O916   O     0.53692   0.42048   0.74701   0.00000  Uiso   1.00
O917   O     0.55946   0.57054   0.74518   0.00000  Uiso   1.00
O918   O     0.44054   0.42946   0.75481   0.00000  Uiso   1.00
O919   O     0.45181   0.50450   0.81997   0.00000  Uiso   1.00
O920   O     0.54819   0.49550   0.68002   0.00000  Uiso   1.00
O921   O     0.54819   0.49552   0.81217   0.00000  Uiso   1.00
O922   O     0.45181   0.50448   0.68782   0.00000  Uiso   1.00
Zn923  Zn    0.43565   0.50600   0.75521   0.00000  Uiso   1.00
Zn924  Zn    0.56435   0.49400   0.74479   0.00000  Uiso   1.00
C925   C     0.84851   0.59823   0.74963   0.00000  Uiso   1.00
C926   C     0.85104   0.54699   0.90638   0.00000  Uiso   1.00
C927   C     0.82789   0.50067   0.61602   0.00000  Uiso   1.00
C928   C     0.83811   0.50094   0.88387   0.00000  Uiso   1.00
C929   C     0.83664   0.54713   0.59412   0.00000  Uiso   1.00
C930   C     0.82758   0.45493   0.90641   0.00000  Uiso   1.00
C931   C     0.84455   0.54763   0.54728   0.00000  Uiso   1.00
C932   C     0.81667   0.45584   0.95280   0.00000  Uiso   1.00
C933   C     0.82922   0.50199   0.52342   0.00000  Uiso   1.00
C934   C     0.83158   0.50172   0.97650   0.00000  Uiso   1.00
C935   C     0.81139   0.45641   0.54658   0.00000  Uiso   1.00
C936   C     0.81822   0.40176   0.75068   0.00000  Uiso   1.00
C937   C     0.84952   0.54713   0.95326   0.00000  Uiso   1.00
C938   C     0.86740   0.59176   0.52385   0.00000  Uiso   1.00
C939   C     0.79164   0.41288   0.97653   0.00000  Uiso   1.00
C940   C     0.73980   0.40049   0.63246   0.00000  Uiso   1.00
C941   C     0.93077   0.59915   0.87258   0.00000  Uiso   1.00
C942   C     0.92518   0.34254   0.52308   0.00000  Uiso   1.00
C943   C     0.70940   0.38280   0.93267   0.00000  Uiso   1.00
C944   C     0.86611   0.59159   0.97703   0.00000  Uiso   1.00
C945   C     0.79135   0.41307   0.52284   0.00000  Uiso   1.00
C946   C     0.85580   0.65192   0.74412   0.00000  Uiso   1.00
C947   C     0.81116   0.34812   0.75666   0.00000  Uiso   1.00
C948   C     0.83485   0.50059   0.83636   0.00000  Uiso   1.00
C949   C     0.83176   0.49950   0.66360   0.00000  Uiso   1.00
C950   C     0.81292   0.45569   0.59329   0.00000  Uiso   1.00
H951   H     0.88029   0.62569   0.95869   0.00000  Uiso   1.00
H952   H     0.94122   0.63604   0.85528   0.00000  Uiso   1.00
H953   H     0.94630   0.56789   0.85063   0.00000  Uiso   1.00
H954   H     0.95410   0.59968   0.90415   0.00000  Uiso   1.00
H955   H     0.92071   0.62129   0.57296   0.00000  Uiso   1.00
H956   H     0.94339   0.37092   0.54728   0.00000  Uiso   1.00
H957   H     0.89386   0.36197   0.50338   0.00000  Uiso   1.00
H958   H     0.96122   0.66260   0.50077   0.00000  Uiso   1.00
H959   H     0.78317   0.34080   0.94465   0.00000  Uiso   1.00
H960   H     0.68474   0.34664   0.92422   0.00000  Uiso   1.00
H961   H     0.72157   0.40358   0.90112   0.00000  Uiso   1.00
H962   H     0.77349   0.37902   0.53983   0.00000  Uiso   1.00
H963   H     0.68090   0.40631   0.95449   0.00000  Uiso   1.00
H964   H     0.67142   0.46082   0.71717   0.00000  Uiso   1.00
H965   H     0.99525   0.53920   0.78281   0.00000  Uiso   1.00
H966   H     0.81927   0.37926   0.60376   0.00000  Uiso   1.00
H967   H     0.71371   0.38817   0.60368   0.00000  Uiso   1.00
H968   H     0.72179   0.43524   0.64777   0.00000  Uiso   1.00
H969   H     0.73586   0.36992   0.65799   0.00000  Uiso   1.00
H970   H     0.84557   0.59772   0.85401   0.00000  Uiso   1.00
I971   I     0.81644   0.61302   0.63259   0.00000  Uiso   1.00
I972   I     0.84890   0.38675   0.87102   0.00000  Uiso   1.00
I973   I     0.93578   0.34141   0.70660   0.00000  Uiso   1.00
I974   I     0.73159   0.65862   0.79458   0.00000  Uiso   1.00
N975   N     0.98344   0.48598   0.73783   0.00000  Uiso   1.00
N976   N     0.68322   0.51402   0.76217   0.00000  Uiso   1.00
N977   N     0.80021   0.41016   0.61812   0.00000  Uiso   1.00
N978   N     0.86878   0.59220   0.88191   0.00000  Uiso   1.00
N979   N     0.89660   0.63310   0.54735   0.00000  Uiso   1.00
N980   N     0.76033   0.37134   0.95588   0.00000  Uiso   1.00
O981   O     0.79642   0.57952   0.75298   0.00000  Uiso   1.00
O982   O     0.87025   0.42048   0.74701   0.00000  Uiso   1.00
O983   O     0.89280   0.57054   0.74518   0.00000  Uiso   1.00
O984   O     0.77387   0.42946   0.75481   0.00000  Uiso   1.00
O985   O     0.78514   0.50450   0.81997   0.00000  Uiso   1.00
O986   O     0.88153   0.49550   0.68002   0.00000  Uiso   1.00
O987   O     0.88152   0.49552   0.81217   0.00000  Uiso   1.00
O988   O     0.78515   0.50448   0.68782   0.00000  Uiso   1.00
Zn989  Zn    0.76898   0.50600   0.75521   0.00000  Uiso   1.00
Zn990  Zn    0.89769   0.49400   0.74479   0.00000  Uiso   1.00
C991   C     0.18184   0.93157   0.74963   0.00000  Uiso   1.00
C992   C     0.18437   0.88033   0.90638   0.00000  Uiso   1.00
C993   C     0.16122   0.83400   0.61602   0.00000  Uiso   1.00
C994   C     0.17144   0.83428   0.88387   0.00000  Uiso   1.00
C995   C     0.16997   0.88046   0.59412   0.00000  Uiso   1.00
C996   C     0.16091   0.78826   0.90641   0.00000  Uiso   1.00
C997   C     0.17789   0.88097   0.54728   0.00000  Uiso   1.00
C998   C     0.15001   0.78918   0.95280   0.00000  Uiso   1.00
C999   C     0.16255   0.83532   0.52342   0.00000  Uiso   1.00
C1000  C     0.16492   0.83505   0.97650   0.00000  Uiso   1.00
C1001  C     0.14472   0.78974   0.54658   0.00000  Uiso   1.00
C1002  C     0.15155   0.73510   0.75068   0.00000  Uiso   1.00
C1003  C     0.18285   0.88046   0.95326   0.00000  Uiso   1.00
C1004  C     0.20074   0.92509   0.52385   0.00000  Uiso   1.00
C1005  C     0.12497   0.74621   0.97653   0.00000  Uiso   1.00
C1006  C     0.07313   0.73383   0.63246   0.00000  Uiso   1.00
C1007  C     0.26410   0.93249   0.87258   0.00000  Uiso   1.00
C1008  C     0.25851   0.67588   0.52308   0.00000  Uiso   1.00
C1009  C     0.04273   0.71614   0.93267   0.00000  Uiso   1.00
C1010  C     0.19945   0.92493   0.97703   0.00000  Uiso   1.00
C1011  C     0.12468   0.74640   0.52284   0.00000  Uiso   1.00
C1012  C     0.18913   0.98526   0.74412   0.00000  Uiso   1.00
C1013  C     0.14450   0.68146   0.75666   0.00000  Uiso   1.00
C1014  C     0.16819   0.83392   0.83636   0.00000  Uiso   1.00
C1015  C     0.16509   0.83283   0.66360   0.00000  Uiso   1.00
C1016  C     0.14625   0.78902   0.59329   0.00000  Uiso   1.00
H1017  H     0.21362   0.95903   0.95869   0.00000  Uiso   1.00
H1018  H     0.27455   0.96938   0.85528   0.00000  Uiso   1.00
H1019  H     0.27963   0.90123   0.85063   0.00000  Uiso   1.00
H1020  H     0.28743   0.93302   0.90415   0.00000  Uiso   1.00
H1021  H     0.25404   0.95462   0.57296   0.00000  Uiso   1.00
H1022  H     0.27672   0.70425   0.54728   0.00000  Uiso   1.00
H1023  H     0.22719   0.69530   0.50338   0.00000  Uiso   1.00
H1024  H     0.29456   0.99594   0.50077   0.00000  Uiso   1.00
H1025  H     0.11650   0.67413   0.94465   0.00000  Uiso   1.00
H1026  H     0.01807   0.67998   0.92422   0.00000  Uiso   1.00
H1027  H     0.05491   0.73692   0.90112   0.00000  Uiso   1.00
H1028  H     0.10682   0.71235   0.53983   0.00000  Uiso   1.00
H1029  H     0.01423   0.73965   0.95449   0.00000  Uiso   1.00
H1030  H     0.00475   0.79415   0.71717   0.00000  Uiso   1.00
H1031  H     0.32859   0.87254   0.78281   0.00000  Uiso   1.00
H1032  H     0.15260   0.71259   0.60376   0.00000  Uiso   1.00
H1033  H     0.04704   0.72150   0.60368   0.00000  Uiso   1.00
H1034  H     0.05512   0.76857   0.64777   0.00000  Uiso   1.00
H1035  H     0.06920   0.70326   0.65799   0.00000  Uiso   1.00
H1036  H     0.17891   0.93106   0.85401   0.00000  Uiso   1.00
I1037  I     0.14978   0.94635   0.63259   0.00000  Uiso   1.00
I1038  I     0.18224   0.72009   0.87102   0.00000  Uiso   1.00
I1039  I     0.26911   0.67474   0.70660   0.00000  Uiso   1.00
I1040  I     0.06493   0.99195   0.79458   0.00000  Uiso   1.00
N1041  N     0.31678   0.81932   0.73783   0.00000  Uiso   1.00
N1042  N     0.01656   0.84735   0.76217   0.00000  Uiso   1.00
N1043  N     0.13354   0.74349   0.61812   0.00000  Uiso   1.00
N1044  N     0.20211   0.92553   0.88191   0.00000  Uiso   1.00
N1045  N     0.22993   0.96643   0.54735   0.00000  Uiso   1.00
N1046  N     0.09366   0.70467   0.95588   0.00000  Uiso   1.00
O1047  O     0.12975   0.91286   0.75298   0.00000  Uiso   1.00
O1048  O     0.20358   0.75381   0.74701   0.00000  Uiso   1.00
O1049  O     0.22613   0.90387   0.74518   0.00000  Uiso   1.00
O1050  O     0.10720   0.76279   0.75481   0.00000  Uiso   1.00
O1051  O     0.11847   0.83784   0.81997   0.00000  Uiso   1.00
O1052  O     0.21486   0.82883   0.68002   0.00000  Uiso   1.00
O1053  O     0.21485   0.82885   0.81217   0.00000  Uiso   1.00
O1054  O     0.11848   0.83781   0.68782   0.00000  Uiso   1.00
Zn1055 Zn    0.10231   0.83933   0.75521   0.00000  Uiso   1.00
Zn1056 Zn    0.23102   0.82734   0.74479   0.00000  Uiso   1.00
C1057  C     0.51517   0.93157   0.74963   0.00000  Uiso   1.00
C1058  C     0.51771   0.88033   0.90638   0.00000  Uiso   1.00
C1059  C     0.49456   0.83400   0.61602   0.00000  Uiso   1.00
C1060  C     0.50477   0.83428   0.88387   0.00000  Uiso   1.00
C1061  C     0.50331   0.88046   0.59412   0.00000  Uiso   1.00
C1062  C     0.49425   0.78826   0.90641   0.00000  Uiso   1.00
C1063  C     0.51122   0.88097   0.54728   0.00000  Uiso   1.00
C1064  C     0.48334   0.78918   0.95280   0.00000  Uiso   1.00
C1065  C     0.49589   0.83532   0.52342   0.00000  Uiso   1.00
C1066  C     0.49825   0.83505   0.97650   0.00000  Uiso   1.00
C1067  C     0.47806   0.78974   0.54658   0.00000  Uiso   1.00
C1068  C     0.48488   0.73510   0.75068   0.00000  Uiso   1.00
C1069  C     0.51619   0.88046   0.95326   0.00000  Uiso   1.00
C1070  C     0.53407   0.92509   0.52385   0.00000  Uiso   1.00
C1071  C     0.45831   0.74621   0.97653   0.00000  Uiso   1.00
C1072  C     0.40647   0.73383   0.63246   0.00000  Uiso   1.00
C1073  C     0.59744   0.93249   0.87258   0.00000  Uiso   1.00
C1074  C     0.59184   0.67588   0.52308   0.00000  Uiso   1.00
C1075  C     0.37606   0.71614   0.93267   0.00000  Uiso   1.00
C1076  C     0.53278   0.92493   0.97703   0.00000  Uiso   1.00
C1077  C     0.45802   0.74640   0.52284   0.00000  Uiso   1.00
C1078  C     0.52246   0.98526   0.74412   0.00000  Uiso   1.00
C1079  C     0.47783   0.68146   0.75666   0.00000  Uiso   1.00
C1080  C     0.50152   0.83392   0.83636   0.00000  Uiso   1.00
C1081  C     0.49843   0.83283   0.66360   0.00000  Uiso   1.00
C1082  C     0.47958   0.78902   0.59329   0.00000  Uiso   1.00
H1083  H     0.54696   0.95903   0.95869   0.00000  Uiso   1.00
H1084  H     0.60788   0.96938   0.85528   0.00000  Uiso   1.00
H1085  H     0.61297   0.90123   0.85063   0.00000  Uiso   1.00
H1086  H     0.62077   0.93302   0.90415   0.00000  Uiso   1.00
H1087  H     0.58737   0.95462   0.57296   0.00000  Uiso   1.00
H1088  H     0.61005   0.70425   0.54728   0.00000  Uiso   1.00
H1089  H     0.56052   0.69530   0.50338   0.00000  Uiso   1.00
H1090  H     0.62789   0.99594   0.50077   0.00000  Uiso   1.00
H1091  H     0.44984   0.67413   0.94465   0.00000  Uiso   1.00
H1092  H     0.35141   0.67998   0.92422   0.00000  Uiso   1.00
H1093  H     0.38824   0.73692   0.90112   0.00000  Uiso   1.00
H1094  H     0.44015   0.71235   0.53983   0.00000  Uiso   1.00
H1095  H     0.34756   0.73965   0.95449   0.00000  Uiso   1.00
H1096  H     0.33809   0.79415   0.71717   0.00000  Uiso   1.00
H1097  H     0.66192   0.87254   0.78281   0.00000  Uiso   1.00
H1098  H     0.48593   0.71259   0.60376   0.00000  Uiso   1.00
H1099  H     0.38037   0.72150   0.60368   0.00000  Uiso   1.00
H1100  H     0.38845   0.76857   0.64777   0.00000  Uiso   1.00
H1101  H     0.40253   0.70326   0.65799   0.00000  Uiso   1.00
H1102  H     0.51224   0.93106   0.85401   0.00000  Uiso   1.00
I1103  I     0.48311   0.94635   0.63259   0.00000  Uiso   1.00
I1104  I     0.51557   0.72009   0.87102   0.00000  Uiso   1.00
I1105  I     0.60244   0.67474   0.70660   0.00000  Uiso   1.00
I1106  I     0.39826   0.99195   0.79458   0.00000  Uiso   1.00
N1107  N     0.65011   0.81932   0.73783   0.00000  Uiso   1.00
N1108  N     0.34989   0.84735   0.76217   0.00000  Uiso   1.00
N1109  N     0.46687   0.74349   0.61812   0.00000  Uiso   1.00
N1110  N     0.53545   0.92553   0.88191   0.00000  Uiso   1.00
N1111  N     0.56326   0.96643   0.54735   0.00000  Uiso   1.00
N1112  N     0.42700   0.70467   0.95588   0.00000  Uiso   1.00
O1113  O     0.46308   0.91286   0.75298   0.00000  Uiso   1.00
O1114  O     0.53692   0.75381   0.74701   0.00000  Uiso   1.00
O1115  O     0.55946   0.90387   0.74518   0.00000  Uiso   1.00
O1116  O     0.44054   0.76279   0.75481   0.00000  Uiso   1.00
O1117  O     0.45181   0.83784   0.81997   0.00000  Uiso   1.00
O1118  O     0.54819   0.82883   0.68002   0.00000  Uiso   1.00
O1119  O     0.54819   0.82885   0.81217   0.00000  Uiso   1.00
O1120  O     0.45181   0.83781   0.68782   0.00000  Uiso   1.00
Zn1121 Zn    0.43565   0.83933   0.75521   0.00000  Uiso   1.00
Zn1122 Zn    0.56435   0.82734   0.74479   0.00000  Uiso   1.00
C1123  C     0.84851   0.93157   0.74963   0.00000  Uiso   1.00
C1124  C     0.85104   0.88033   0.90638   0.00000  Uiso   1.00
C1125  C     0.82789   0.83400   0.61602   0.00000  Uiso   1.00
C1126  C     0.83811   0.83428   0.88387   0.00000  Uiso   1.00
C1127  C     0.83664   0.88046   0.59412   0.00000  Uiso   1.00
C1128  C     0.82758   0.78826   0.90641   0.00000  Uiso   1.00
C1129  C     0.84455   0.88097   0.54728   0.00000  Uiso   1.00
C1130  C     0.81667   0.78918   0.95280   0.00000  Uiso   1.00
C1131  C     0.82922   0.83532   0.52342   0.00000  Uiso   1.00
C1132  C     0.83158   0.83505   0.97650   0.00000  Uiso   1.00
C1133  C     0.81139   0.78974   0.54658   0.00000  Uiso   1.00
C1134  C     0.81822   0.73510   0.75068   0.00000  Uiso   1.00
C1135  C     0.84952   0.88046   0.95326   0.00000  Uiso   1.00
C1136  C     0.86740   0.92509   0.52385   0.00000  Uiso   1.00
C1137  C     0.79164   0.74621   0.97653   0.00000  Uiso   1.00
C1138  C     0.73980   0.73383   0.63246   0.00000  Uiso   1.00
C1139  C     0.93077   0.93249   0.87258   0.00000  Uiso   1.00
C1140  C     0.92518   0.67588   0.52308   0.00000  Uiso   1.00
C1141  C     0.70940   0.71614   0.93267   0.00000  Uiso   1.00
C1142  C     0.86611   0.92493   0.97703   0.00000  Uiso   1.00
C1143  C     0.79135   0.74640   0.52284   0.00000  Uiso   1.00
C1144  C     0.85580   0.98526   0.74412   0.00000  Uiso   1.00
C1145  C     0.81116   0.68146   0.75666   0.00000  Uiso   1.00
C1146  C     0.83485   0.83392   0.83636   0.00000  Uiso   1.00
C1147  C     0.83176   0.83283   0.66360   0.00000  Uiso   1.00
C1148  C     0.81292   0.78902   0.59329   0.00000  Uiso   1.00
H1149  H     0.88029   0.95903   0.95869   0.00000  Uiso   1.00
H1150  H     0.94122   0.96938   0.85528   0.00000  Uiso   1.00
H1151  H     0.94630   0.90123   0.85063   0.00000  Uiso   1.00
H1152  H     0.95410   0.93302   0.90415   0.00000  Uiso   1.00
H1153  H     0.92071   0.95462   0.57296   0.00000  Uiso   1.00
H1154  H     0.94339   0.70425   0.54728   0.00000  Uiso   1.00
H1155  H     0.89386   0.69530   0.50338   0.00000  Uiso   1.00
H1156  H     0.96122   0.99594   0.50077   0.00000  Uiso   1.00
H1157  H     0.78317   0.67413   0.94465   0.00000  Uiso   1.00
H1158  H     0.68474   0.67998   0.92422   0.00000  Uiso   1.00
H1159  H     0.72157   0.73692   0.90112   0.00000  Uiso   1.00
H1160  H     0.77349   0.71235   0.53983   0.00000  Uiso   1.00
H1161  H     0.68090   0.73965   0.95449   0.00000  Uiso   1.00
H1162  H     0.67142   0.79415   0.71717   0.00000  Uiso   1.00
H1163  H     0.99525   0.87254   0.78281   0.00000  Uiso   1.00
H1164  H     0.81927   0.71259   0.60376   0.00000  Uiso   1.00
H1165  H     0.71371   0.72150   0.60368   0.00000  Uiso   1.00
H1166  H     0.72179   0.76857   0.64777   0.00000  Uiso   1.00
H1167  H     0.73586   0.70326   0.65799   0.00000  Uiso   1.00
H1168  H     0.84557   0.93106   0.85401   0.00000  Uiso   1.00
I1169  I     0.81644   0.94635   0.63259   0.00000  Uiso   1.00
I1170  I     0.84890   0.72009   0.87102   0.00000  Uiso   1.00
I1171  I     0.93578   0.67474   0.70660   0.00000  Uiso   1.00
I1172  I     0.73159   0.99195   0.79458   0.00000  Uiso   1.00
N1173  N     0.98344   0.81932   0.73783   0.00000  Uiso   1.00
N1174  N     0.68322   0.84735   0.76217   0.00000  Uiso   1.00
N1175  N     0.80021   0.74349   0.61812   0.00000  Uiso   1.00
N1176  N     0.86878   0.92553   0.88191   0.00000  Uiso   1.00
N1177  N     0.89660   0.96643   0.54735   0.00000  Uiso   1.00
N1178  N     0.76033   0.70467   0.95588   0.00000  Uiso   1.00
O1179  O     0.79642   0.91286   0.75298   0.00000  Uiso   1.00
O1180  O     0.87025   0.75381   0.74701   0.00000  Uiso   1.00
O1181  O     0.89280   0.90387   0.74518   0.00000  Uiso   1.00
O1182  O     0.77387   0.76279   0.75481   0.00000  Uiso   1.00
O1183  O     0.78514   0.83784   0.81997   0.00000  Uiso   1.00
O1184  O     0.88153   0.82883   0.68002   0.00000  Uiso   1.00
O1185  O     0.88152   0.82885   0.81217   0.00000  Uiso   1.00
O1186  O     0.78515   0.83781   0.68782   0.00000  Uiso   1.00
Zn1187 Zn    0.76898   0.83933   0.75521   0.00000  Uiso   1.00
Zn1188 Zn    0.89769   0.82734   0.74479   0.00000  Uiso   1.00
loop_
_geom_bond_atom_site_label_1
_geom_bond_atom_site_label_2
_geom_bond_distance
_geom_bond_site_symmetry_2
_ccdc_geom_bond_type
C1     O59     1.293   .     A
C1     C22     1.418   .     S
C1     O57     1.273   .     A
C2     C4      1.399   .     A
C2     N54     1.427   .     S
C2     C13     1.398   .     A
C3     C26     1.388   .     A
C3     C25     1.429   .     S
C3     C5      1.388   .     A
C4     C6      1.391   .     A
C4     C24     1.424   .     S
C5     C7      1.401   .     A
C5     I47     2.125   .     S
C6     I48     2.136   .     S
C6     C8      1.395   .     A
C7     C9      1.421   .     A
C7     C14     1.419   .     A
C8     C15     1.415   .     A
C8     C10     1.421   .     A
C9     C11     1.416   .     A
C9     C604    1.399   1_554 S
C10    C13     1.414   .     A
C10    C603    1.399   .     S
C11    C26     1.397   .     A
C11    C21     1.400   .     A
C12    C23     1.418   .     S
C12    O58     1.272   .     A
C12    O60     1.293   .     A
C13    C20     1.401   .     A
C14    N55     1.437   .     S
C14    C614    1.400   1_554 S
C15    N56     1.423   .     S
C15    C615    1.382   .     S
C16    H45     1.109   .     S
C16    H44     1.109   .     S
C16    H43     1.110   .     S
C16    N53     1.449   .     S
C17    H29     1.109   .     S
C17    H30     1.110   .     S
C17    H28     1.109   .     S
C17    N54     1.448   .     S
C18    H33     1.108   .     S
C18    H32     1.111   .     S
C18    H430    1.110   1_545 S
C18    N451    1.449   1_545 S
C19    N56     1.448   .     S
C19    H36     1.110   .     S
C19    H39     1.111   .     S
C19    H37     1.109   .     S
C20    H27     1.079   .     S
C20    C608    1.400   .     S
C21    H38     1.081   .     S
C21    C609    1.382   1_554 S
C22    C221    1.363   .     S
C22    I247    2.169   .     S
C23    C418    1.363   1_545 S
C23    I446    2.167   1_545 S
C24    O61     1.284   .     A
C24    O63     1.280   .     A
C25    O64     1.280   .     A
C25    O62     1.286   .     A
C26    N53     1.420   .     S
H31    N55     1.032   .     S
H34    C216    1.110   .     S
H35    N56     1.030   .     S
H40    N183    1.028   1_455 S
H41    N118    1.028   .     S
H42    N53     1.025   .     S
H46    N54     1.031   .     S
I49    C418    2.169   1_545 S
I50    C221    2.167   .     S
N51    Zn66    2.009   .     S
N51    H106    1.028   .     S
N51    N118    1.278   .     S
N52    Zn65    2.009   .     S
N52    H173    1.028   1_455 S
N52    N183    1.278   1_455 S
N55    C216    1.449   .     S
O57    Zn65    1.993   .     S
O58    Zn66    1.993   .     S
O59    Zn66    2.017   .     S
O60    Zn65    2.017   .     S
O61    Zn65    1.990   .     S
O62    Zn66    1.990   .     S
O63    Zn66    2.027   .     S
O64    Zn65    2.027   .     S
C67    O125    1.293   .     A
C67    C88     1.418   .     S
C67    O123    1.273   .     A
C68    C70     1.399   .     A
C68    N120    1.427   .     S
C68    C79     1.398   .     A
C69    C92     1.388   .     A
C69    C91     1.429   .     S
C69    C71     1.388   .     A
C70    C72     1.391   .     A
C70    C90     1.424   .     S
C71    C73     1.401   .     A
C71    I113    2.125   .     S
C72    I114    2.136   .     S
C72    C74     1.395   .     A
C73    C75     1.421   .     A
C73    C80     1.419   .     A
C74    C81     1.415   .     A
C74    C76     1.421   .     A
C75    C77     1.416   .     A
C75    C670    1.399   1_554 S
C76    C79     1.414   .     A
C76    C669    1.399   .     S
C77    C92     1.397   .     A
C77    C87     1.400   .     A
C78    C89     1.418   .     S
C78    O124    1.272   .     A
C78    O126    1.293   .     A
C79    C86     1.401   .     A
C80    N121    1.437   .     S
C80    C680    1.400   1_554 S
C81    N122    1.423   .     S
C81    C681    1.382   .     S
C82    H111    1.109   .     S
C82    H110    1.109   .     S
C82    H109    1.110   .     S
C82    N119    1.449   .     S
C83    H95     1.109   .     S
C83    H96     1.110   .     S
C83    H94     1.109   .     S
C83    N120    1.448   .     S
C84    H99     1.108   .     S
C84    H98     1.111   .     S
C84    H496    1.110   1_545 S
C84    N517    1.449   1_545 S
C85    N122    1.448   .     S
C85    H102    1.110   .     S
C85    H105    1.111   .     S
C85    H103    1.109   .     S
C86    H93     1.079   .     S
C86    C674    1.400   .     S
C87    H104    1.081   .     S
C87    C675    1.382   1_554 S
C88    C287    1.363   .     S
C88    I313    2.169   .     S
C89    C484    1.363   1_545 S
C89    I512    2.167   1_545 S
C90    O127    1.284   .     A
C90    O129    1.280   .     A
C91    O130    1.280   .     A
C91    O128    1.286   .     A
C92    N119    1.420   .     S
H97    N121    1.032   .     S
H100   C282    1.110   .     S
H101   N122    1.030   .     S
H107   N184    1.028   .     S
H108   N119    1.025   .     S
H112   N120    1.031   .     S
I115   C484    2.169   1_545 S
I116   C287    2.167   .     S
N117   Zn132   2.009   .     S
N117   H172    1.028   .     S
N117   N184    1.278   .     S
N118   Zn131   2.009   .     S
N121   C282    1.449   .     S
O123   Zn131   1.993   .     S
O124   Zn132   1.993   .     S
O125   Zn132   2.017   .     S
O126   Zn131   2.017   .     S
O127   Zn131   1.990   .     S
O128   Zn132   1.990   .     S
O129   Zn132   2.027   .     S
O130   Zn131   2.027   .     S
C133   O191    1.293   .     A
C133   C154    1.418   .     S
C133   O189    1.273   .     A
C134   C136    1.399   .     A
C134   N186    1.427   .     S
C134   C145    1.398   .     A
C135   C158    1.388   .     A
C135   C157    1.429   .     S
C135   C137    1.388   .     A
C136   C138    1.391   .     A
C136   C156    1.424   .     S
C137   C139    1.401   .     A
C137   I179    2.125   .     S
C138   I180    2.136   .     S
C138   C140    1.395   .     A
C139   C141    1.421   .     A
C139   C146    1.419   .     A
C140   C147    1.415   .     A
C140   C142    1.421   .     A
C141   C143    1.416   .     A
C141   C736    1.399   1_554 S
C142   C145    1.414   .     A
C142   C735    1.399   .     S
C143   C158    1.397   .     A
C143   C153    1.400   .     A
C144   C155    1.418   .     S
C144   O190    1.272   .     A
C144   O192    1.293   .     A
C145   C152    1.401   .     A
C146   N187    1.437   .     S
C146   C746    1.400   1_554 S
C147   N188    1.423   .     S
C147   C747    1.382   .     S
C148   H177    1.109   .     S
C148   H176    1.109   .     S
C148   H175    1.110   .     S
C148   N185    1.449   .     S
C149   H161    1.109   .     S
C149   H162    1.110   .     S
C149   H160    1.109   .     S
C149   N186    1.448   .     S
C150   H165    1.108   .     S
C150   H164    1.111   .     S
C150   H562    1.110   1_545 S
C150   N583    1.449   1_545 S
C151   N188    1.448   .     S
C151   H168    1.110   .     S
C151   H171    1.111   .     S
C151   H169    1.109   .     S
C152   H159    1.079   .     S
C152   C740    1.400   .     S
C153   H170    1.081   .     S
C153   C741    1.382   1_554 S
C154   C353    1.363   .     S
C154   I379    2.169   .     S
C155   C550    1.363   1_545 S
C155   I578    2.167   1_545 S
C156   O193    1.284   .     A
C156   O195    1.280   .     A
C157   O196    1.280   .     A
C157   O194    1.286   .     A
C158   N185    1.420   .     S
H163   N187    1.032   .     S
H166   C348    1.110   .     S
H167   N188    1.030   .     S
H173   N52     1.028   1_655 S
H174   N185    1.025   .     S
H178   N186    1.031   .     S
I181   C550    2.169   1_545 S
I182   C353    2.167   .     S
N183   Zn198   2.009   .     S
N183   H40     1.028   1_655 S
N183   N52     1.278   1_655 S
N184   Zn197   2.009   .     S
N187   C348    1.449   .     S
O189   Zn197   1.993   .     S
O190   Zn198   1.993   .     S
O191   Zn198   2.017   .     S
O192   Zn197   2.017   .     S
O193   Zn197   1.990   .     S
O194   Zn198   1.990   .     S
O195   Zn198   2.027   .     S
O196   Zn197   2.027   .     S
C199   O257    1.293   .     A
C199   C220    1.418   .     S
C199   O255    1.273   .     A
C200   C202    1.399   .     A
C200   N252    1.427   .     S
C200   C211    1.398   .     A
C201   C224    1.388   .     A
C201   C223    1.429   .     S
C201   C203    1.388   .     A
C202   C204    1.391   .     A
C202   C222    1.424   .     S
C203   C205    1.401   .     A
C203   I245    2.125   .     S
C204   I246    2.136   .     S
C204   C206    1.395   .     A
C205   C207    1.421   .     A
C205   C212    1.419   .     A
C206   C213    1.415   .     A
C206   C208    1.421   .     A
C207   C209    1.416   .     A
C207   C802    1.399   1_554 S
C208   C211    1.414   .     A
C208   C801    1.399   .     S
C209   C224    1.397   .     A
C209   C219    1.400   .     A
C210   C221    1.418   .     S
C210   O256    1.272   .     A
C210   O258    1.293   .     A
C211   C218    1.401   .     A
C212   N253    1.437   .     S
C212   C812    1.400   1_554 S
C213   N254    1.423   .     S
C213   C813    1.382   .     S
C214   H243    1.109   .     S
C214   H242    1.109   .     S
C214   H241    1.110   .     S
C214   N251    1.449   .     S
C215   H227    1.109   .     S
C215   H228    1.110   .     S
C215   H226    1.109   .     S
C215   N252    1.448   .     S
C216   H231    1.108   .     S
C216   H230    1.111   .     S
C217   N254    1.448   .     S
C217   H234    1.110   .     S
C217   H237    1.111   .     S
C217   H235    1.109   .     S
C218   H225    1.079   .     S
C218   C806    1.400   .     S
C219   H236    1.081   .     S
C219   C807    1.382   1_554 S
C220   C419    1.363   .     S
C220   I445    2.169   .     S
C222   O259    1.284   .     A
C222   O261    1.280   .     A
C223   O262    1.280   .     A
C223   O260    1.286   .     A
C224   N251    1.420   .     S
H229   N253    1.032   .     S
H232   C414    1.110   .     S
H233   N254    1.030   .     S
H238   N381    1.028   1_455 S
H239   N316    1.028   .     S
H240   N251    1.025   .     S
H244   N252    1.031   .     S
I248   C419    2.167   .     S
N249   Zn264   2.009   .     S
N249   H304    1.028   .     S
N249   N316    1.278   .     S
N250   Zn263   2.009   .     S
N250   H371    1.028   1_455 S
N250   N381    1.278   1_455 S
N253   C414    1.449   .     S
O255   Zn263   1.993   .     S
O256   Zn264   1.993   .     S
O257   Zn264   2.017   .     S
O258   Zn263   2.017   .     S
O259   Zn263   1.990   .     S
O260   Zn264   1.990   .     S
O261   Zn264   2.027   .     S
O262   Zn263   2.027   .     S
C265   O323    1.293   .     A
C265   C286    1.418   .     S
C265   O321    1.273   .     A
C266   C268    1.399   .     A
C266   N318    1.427   .     S
C266   C277    1.398   .     A
C267   C290    1.388   .     A
C267   C289    1.429   .     S
C267   C269    1.388   .     A
C268   C270    1.391   .     A
C268   C288    1.424   .     S
C269   C271    1.401   .     A
C269   I311    2.125   .     S
C270   I312    2.136   .     S
C270   C272    1.395   .     A
C271   C273    1.421   .     A
C271   C278    1.419   .     A
C272   C279    1.415   .     A
C272   C274    1.421   .     A
C273   C275    1.416   .     A
C273   C868    1.399   1_554 S
C274   C277    1.414   .     A
C274   C867    1.399   .     S
C275   C290    1.397   .     A
C275   C285    1.400   .     A
C276   C287    1.418   .     S
C276   O322    1.272   .     A
C276   O324    1.293   .     A
C277   C284    1.401   .     A
C278   N319    1.437   .     S
C278   C878    1.400   1_554 S
C279   N320    1.423   .     S
C279   C879    1.382   .     S
C280   H309    1.109   .     S
C280   H308    1.109   .     S
C280   H307    1.110   .     S
C280   N317    1.449   .     S
C281   H293    1.109   .     S
C281   H294    1.110   .     S
C281   H292    1.109   .     S
C281   N318    1.448   .     S
C282   H297    1.108   .     S
C282   H296    1.111   .     S
C283   N320    1.448   .     S
C283   H300    1.110   .     S
C283   H303    1.111   .     S
C283   H301    1.109   .     S
C284   H291    1.079   .     S
C284   C872    1.400   .     S
C285   H302    1.081   .     S
C285   C873    1.382   1_554 S
C286   C485    1.363   .     S
C286   I511    2.169   .     S
C288   O325    1.284   .     A
C288   O327    1.280   .     A
C289   O328    1.280   .     A
C289   O326    1.286   .     A
C290   N317    1.420   .     S
H295   N319    1.032   .     S
H298   C480    1.110   .     S
H299   N320    1.030   .     S
H305   N382    1.028   .     S
H306   N317    1.025   .     S
H310   N318    1.031   .     S
I314   C485    2.167   .     S
N315   Zn330   2.009   .     S
N315   H370    1.028   .     S
N315   N382    1.278   .     S
N316   Zn329   2.009   .     S
N319   C480    1.449   .     S
O321   Zn329   1.993   .     S
O322   Zn330   1.993   .     S
O323   Zn330   2.017   .     S
O324   Zn329   2.017   .     S
O325   Zn329   1.990   .     S
O326   Zn330   1.990   .     S
O327   Zn330   2.027   .     S
O328   Zn329   2.027   .     S
C331   O389    1.293   .     A
C331   C352    1.418   .     S
C331   O387    1.273   .     A
C332   C334    1.399   .     A
C332   N384    1.427   .     S
C332   C343    1.398   .     A
C333   C356    1.388   .     A
C333   C355    1.429   .     S
C333   C335    1.388   .     A
C334   C336    1.391   .     A
C334   C354    1.424   .     S
C335   C337    1.401   .     A
C335   I377    2.125   .     S
C336   I378    2.136   .     S
C336   C338    1.395   .     A
C337   C339    1.421   .     A
C337   C344    1.419   .     A
C338   C345    1.415   .     A
C338   C340    1.421   .     A
C339   C341    1.416   .     A
C339   C934    1.399   1_554 S
C340   C343    1.414   .     A
C340   C933    1.399   .     S
C341   C356    1.397   .     A
C341   C351    1.400   .     A
C342   C353    1.418   .     S
C342   O388    1.272   .     A
C342   O390    1.293   .     A
C343   C350    1.401   .     A
C344   N385    1.437   .     S
C344   C944    1.400   1_554 S
C345   N386    1.423   .     S
C345   C945    1.382   .     S
C346   H375    1.109   .     S
C346   H374    1.109   .     S
C346   H373    1.110   .     S
C346   N383    1.449   .     S
C347   H359    1.109   .     S
C347   H360    1.110   .     S
C347   H358    1.109   .     S
C347   N384    1.448   .     S
C348   H363    1.108   .     S
C348   H362    1.111   .     S
C349   N386    1.448   .     S
C349   H366    1.110   .     S
C349   H369    1.111   .     S
C349   H367    1.109   .     S
C350   H357    1.079   .     S
C350   C938    1.400   .     S
C351   H368    1.081   .     S
C351   C939    1.382   1_554 S
C352   C551    1.363   .     S
C352   I577    2.169   .     S
C354   O391    1.284   .     A
C354   O393    1.280   .     A
C355   O394    1.280   .     A
C355   O392    1.286   .     A
C356   N383    1.420   .     S
H361   N385    1.032   .     S
H364   C546    1.110   .     S
H365   N386    1.030   .     S
H371   N250    1.028   1_655 S
H372   N383    1.025   .     S
H376   N384    1.031   .     S
I380   C551    2.167   .     S
N381   Zn396   2.009   .     S
N381   H238    1.028   1_655 S
N381   N250    1.278   1_655 S
N382   Zn395   2.009   .     S
N385   C546    1.449   .     S
O387   Zn395   1.993   .     S
O388   Zn396   1.993   .     S
O389   Zn396   2.017   .     S
O390   Zn395   2.017   .     S
O391   Zn395   1.990   .     S
O392   Zn396   1.990   .     S
O393   Zn396   2.027   .     S
O394   Zn395   2.027   .     S
C397   O455    1.293   .     A
C397   C418    1.418   .     S
C397   O453    1.273   .     A
C398   C400    1.399   .     A
C398   N450    1.427   .     S
C398   C409    1.398   .     A
C399   C422    1.388   .     A
C399   C421    1.429   .     S
C399   C401    1.388   .     A
C400   C402    1.391   .     A
C400   C420    1.424   .     S
C401   C403    1.401   .     A
C401   I443    2.125   .     S
C402   I444    2.136   .     S
C402   C404    1.395   .     A
C403   C405    1.421   .     A
C403   C410    1.419   .     A
C404   C411    1.415   .     A
C404   C406    1.421   .     A
C405   C407    1.416   .     A
C405   C1000   1.399   1_554 S
C406   C409    1.414   .     A
C406   C999    1.399   .     S
C407   C422    1.397   .     A
C407   C417    1.400   .     A
C408   C419    1.418   .     S
C408   O454    1.272   .     A
C408   O456    1.293   .     A
C409   C416    1.401   .     A
C410   N451    1.437   .     S
C410   C1010   1.400   1_554 S
C411   N452    1.423   .     S
C411   C1011   1.382   .     S
C412   H441    1.109   .     S
C412   H440    1.109   .     S
C412   H439    1.110   .     S
C412   N449    1.449   .     S
C413   H425    1.109   .     S
C413   H426    1.110   .     S
C413   H424    1.109   .     S
C413   N450    1.448   .     S
C414   H429    1.108   .     S
C414   H428    1.111   .     S
C415   N452    1.448   .     S
C415   H432    1.110   .     S
C415   H435    1.111   .     S
C415   H433    1.109   .     S
C416   H423    1.079   .     S
C416   C1004   1.400   .     S
C417   H434    1.081   .     S
C417   C1005   1.382   1_554 S
C418   C23     1.363   1_565 S
C418   I49     2.169   1_565 S
C420   O457    1.284   .     A
C420   O459    1.280   .     A
C421   O460    1.280   .     A
C421   O458    1.286   .     A
C422   N449    1.420   .     S
H427   N451    1.032   .     S
H430   C18     1.110   1_565 S
H431   N452    1.030   .     S
H436   N579    1.028   1_455 S
H437   N514    1.028   .     S
H438   N449    1.025   .     S
H442   N450    1.031   .     S
I446   C23     2.167   1_565 S
N447   Zn462   2.009   .     S
N447   H502    1.028   .     S
N447   N514    1.278   .     S
N448   Zn461   2.009   .     S
N448   H569    1.028   1_455 S
N448   N579    1.278   1_455 S
N451   C18     1.449   1_565 S
O453   Zn461   1.993   .     S
O454   Zn462   1.993   .     S
O455   Zn462   2.017   .     S
O456   Zn461   2.017   .     S
O457   Zn461   1.990   .     S
O458   Zn462   1.990   .     S
O459   Zn462   2.027   .     S
O460   Zn461   2.027   .     S
C463   O521    1.293   .     A
C463   C484    1.418   .     S
C463   O519    1.273   .     A
C464   C466    1.399   .     A
C464   N516    1.427   .     S
C464   C475    1.398   .     A
C465   C488    1.388   .     A
C465   C487    1.429   .     S
C465   C467    1.388   .     A
C466   C468    1.391   .     A
C466   C486    1.424   .     S
C467   C469    1.401   .     A
C467   I509    2.125   .     S
C468   I510    2.136   .     S
C468   C470    1.395   .     A
C469   C471    1.421   .     A
C469   C476    1.419   .     A
C470   C477    1.415   .     A
C470   C472    1.421   .     A
C471   C473    1.416   .     A
C471   C1066   1.399   1_554 S
C472   C475    1.414   .     A
C472   C1065   1.399   .     S
C473   C488    1.397   .     A
C473   C483    1.400   .     A
C474   C485    1.418   .     S
C474   O520    1.272   .     A
C474   O522    1.293   .     A
C475   C482    1.401   .     A
C476   N517    1.437   .     S
C476   C1076   1.400   1_554 S
C477   N518    1.423   .     S
C477   C1077   1.382   .     S
C478   H507    1.109   .     S
C478   H506    1.109   .     S
C478   H505    1.110   .     S
C478   N515    1.449   .     S
C479   H491    1.109   .     S
C479   H492    1.110   .     S
C479   H490    1.109   .     S
C479   N516    1.448   .     S
C480   H495    1.108   .     S
C480   H494    1.111   .     S
C481   N518    1.448   .     S
C481   H498    1.110   .     S
C481   H501    1.111   .     S
C481   H499    1.109   .     S
C482   H489    1.079   .     S
C482   C1070   1.400   .     S
C483   H500    1.081   .     S
C483   C1071   1.382   1_554 S
C484   C89     1.363   1_565 S
C484   I115    2.169   1_565 S
C486   O523    1.284   .     A
C486   O525    1.280   .     A
C487   O526    1.280   .     A
C487   O524    1.286   .     A
C488   N515    1.420   .     S
H493   N517    1.032   .     S
H496   C84     1.110   1_565 S
H497   N518    1.030   .     S
H503   N580    1.028   .     S
H504   N515    1.025   .     S
H508   N516    1.031   .     S
I512   C89     2.167   1_565 S
N513   Zn528   2.009   .     S
N513   H568    1.028   .     S
N513   N580    1.278   .     S
N514   Zn527   2.009   .     S
N517   C84     1.449   1_565 S
O519   Zn527   1.993   .     S
O520   Zn528   1.993   .     S
O521   Zn528   2.017   .     S
O522   Zn527   2.017   .     S
O523   Zn527   1.990   .     S
O524   Zn528   1.990   .     S
O525   Zn528   2.027   .     S
O526   Zn527   2.027   .     S
C529   O587    1.293   .     A
C529   C550    1.418   .     S
C529   O585    1.273   .     A
C530   C532    1.399   .     A
C530   N582    1.427   .     S
C530   C541    1.398   .     A
C531   C554    1.388   .     A
C531   C553    1.429   .     S
C531   C533    1.388   .     A
C532   C534    1.391   .     A
C532   C552    1.424   .     S
C533   C535    1.401   .     A
C533   I575    2.125   .     S
C534   I576    2.136   .     S
C534   C536    1.395   .     A
C535   C537    1.421   .     A
C535   C542    1.419   .     A
C536   C543    1.415   .     A
C536   C538    1.421   .     A
C537   C539    1.416   .     A
C537   C1132   1.399   1_554 S
C538   C541    1.414   .     A
C538   C1131   1.399   .     S
C539   C554    1.397   .     A
C539   C549    1.400   .     A
C540   C551    1.418   .     S
C540   O586    1.272   .     A
C540   O588    1.293   .     A
C541   C548    1.401   .     A
C542   N583    1.437   .     S
C542   C1142   1.400   1_554 S
C543   N584    1.423   .     S
C543   C1143   1.382   .     S
C544   H573    1.109   .     S
C544   H572    1.109   .     S
C544   H571    1.110   .     S
C544   N581    1.449   .     S
C545   H557    1.109   .     S
C545   H558    1.110   .     S
C545   H556    1.109   .     S
C545   N582    1.448   .     S
C546   H561    1.108   .     S
C546   H560    1.111   .     S
C547   N584    1.448   .     S
C547   H564    1.110   .     S
C547   H567    1.111   .     S
C547   H565    1.109   .     S
C548   H555    1.079   .     S
C548   C1136   1.400   .     S
C549   H566    1.081   .     S
C549   C1137   1.382   1_554 S
C550   C155    1.363   1_565 S
C550   I181    2.169   1_565 S
C552   O589    1.284   .     A
C552   O591    1.280   .     A
C553   O592    1.280   .     A
C553   O590    1.286   .     A
C554   N581    1.420   .     S
H559   N583    1.032   .     S
H562   C150    1.110   1_565 S
H563   N584    1.030   .     S
H569   N448    1.028   1_655 S
H570   N581    1.025   .     S
H574   N582    1.031   .     S
I578   C155    2.167   1_565 S
N579   Zn594   2.009   .     S
N579   H436    1.028   1_655 S
N579   N448    1.278   1_655 S
N580   Zn593   2.009   .     S
N583   C150    1.449   1_565 S
O585   Zn593   1.993   .     S
O586   Zn594   1.993   .     S
O587   Zn594   2.017   .     S
O588   Zn593   2.017   .     S
O589   Zn593   1.990   .     S
O590   Zn594   1.990   .     S
O591   Zn594   2.027   .     S
O592   Zn593   2.027   .     S
C595   O653    1.293   .     A
C595   C616    1.418   .     S
C595   O651    1.273   .     A
C596   C598    1.399   .     A
C596   N648    1.427   .     S
C596   C607    1.398   .     A
C597   C620    1.388   .     A
C597   C619    1.429   .     S
C597   C599    1.388   .     A
C598   C600    1.391   .     A
C598   C618    1.424   .     S
C599   C601    1.401   .     A
C599   I641    2.125   .     S
C600   I642    2.136   .     S
C600   C602    1.395   .     A
C601   C603    1.421   .     A
C601   C608    1.419   .     A
C602   C609    1.415   .     A
C602   C604    1.421   .     A
C603   C605    1.416   .     A
C604   C607    1.414   .     A
C604   C9      1.399   1_556 S
C605   C620    1.397   .     A
C605   C615    1.400   .     A
C606   C617    1.418   .     S
C606   O652    1.272   .     A
C606   O654    1.293   .     A
C607   C614    1.401   .     A
C608   N649    1.437   .     S
C609   N650    1.423   .     S
C609   C21     1.382   1_556 S
C610   H639    1.109   .     S
C610   H638    1.109   .     S
C610   H637    1.110   .     S
C610   N647    1.449   .     S
C611   H623    1.109   .     S
C611   H624    1.110   .     S
C611   H622    1.109   .     S
C611   N648    1.448   .     S
C612   H627    1.108   .     S
C612   H626    1.111   .     S
C612   H1024   1.110   1_545 S
C612   N1045   1.449   1_545 S
C613   N650    1.448   .     S
C613   H630    1.110   .     S
C613   H633    1.111   .     S
C613   H631    1.109   .     S
C614   H621    1.079   .     S
C614   C14     1.400   1_556 S
C615   H632    1.081   .     S
C616   C815    1.363   .     S
C616   I841    2.169   .     S
C617   C1012   1.363   1_545 S
C617   I1040   2.167   1_545 S
C618   O655    1.284   .     A
C618   O657    1.280   .     A
C619   O658    1.280   .     A
C619   O656    1.286   .     A
C620   N647    1.420   .     S
H625   N649    1.032   .     S
H628   C810    1.110   .     S
H629   N650    1.030   .     S
H634   N777    1.028   1_455 S
H635   N712    1.028   .     S
H636   N647    1.025   .     S
H640   N648    1.031   .     S
I643   C1012   2.169   1_545 S
I644   C815    2.167   .     S
N645   Zn660   2.009   .     S
N645   H700    1.028   .     S
N645   N712    1.278   .     S
N646   Zn659   2.009   .     S
N646   H767    1.028   1_455 S
N646   N777    1.278   1_455 S
N649   C810    1.449   .     S
O651   Zn659   1.993   .     S
O652   Zn660   1.993   .     S
O653   Zn660   2.017   .     S
O654   Zn659   2.017   .     S
O655   Zn659   1.990   .     S
O656   Zn660   1.990   .     S
O657   Zn660   2.027   .     S
O658   Zn659   2.027   .     S
C661   O719    1.293   .     A
C661   C682    1.418   .     S
C661   O717    1.273   .     A
C662   C664    1.399   .     A
C662   N714    1.427   .     S
C662   C673    1.398   .     A
C663   C686    1.388   .     A
C663   C685    1.429   .     S
C663   C665    1.388   .     A
C664   C666    1.391   .     A
C664   C684    1.424   .     S
C665   C667    1.401   .     A
C665   I707    2.125   .     S
C666   I708    2.136   .     S
C666   C668    1.395   .     A
C667   C669    1.421   .     A
C667   C674    1.419   .     A
C668   C675    1.415   .     A
C668   C670    1.421   .     A
C669   C671    1.416   .     A
C670   C673    1.414   .     A
C670   C75     1.399   1_556 S
C671   C686    1.397   .     A
C671   C681    1.400   .     A
C672   C683    1.418   .     S
C672   O718    1.272   .     A
C672   O720    1.293   .     A
C673   C680    1.401   .     A
C674   N715    1.437   .     S
C675   N716    1.423   .     S
C675   C87     1.382   1_556 S
C676   H705    1.109   .     S
C676   H704    1.109   .     S
C676   H703    1.110   .     S
C676   N713    1.449   .     S
C677   H689    1.109   .     S
C677   H690    1.110   .     S
C677   H688    1.109   .     S
C677   N714    1.448   .     S
C678   H693    1.108   .     S
C678   H692    1.111   .     S
C678   H1090   1.110   1_545 S
C678   N1111   1.449   1_545 S
C679   N716    1.448   .     S
C679   H696    1.110   .     S
C679   H699    1.111   .     S
C679   H697    1.109   .     S
C680   H687    1.079   .     S
C680   C80     1.400   1_556 S
C681   H698    1.081   .     S
C682   C881    1.363   .     S
C682   I907    2.169   .     S
C683   C1078   1.363   1_545 S
C683   I1106   2.167   1_545 S
C684   O721    1.284   .     A
C684   O723    1.280   .     A
C685   O724    1.280   .     A
C685   O722    1.286   .     A
C686   N713    1.420   .     S
H691   N715    1.032   .     S
H694   C876    1.110   .     S
H695   N716    1.030   .     S
H701   N778    1.028   .     S
H702   N713    1.025   .     S
H706   N714    1.031   .     S
I709   C1078   2.169   1_545 S
I710   C881    2.167   .     S
N711   Zn726   2.009   .     S
N711   H766    1.028   .     S
N711   N778    1.278   .     S
N712   Zn725   2.009   .     S
N715   C876    1.449   .     S
O717   Zn725   1.993   .     S
O718   Zn726   1.993   .     S
O719   Zn726   2.017   .     S
O720   Zn725   2.017   .     S
O721   Zn725   1.990   .     S
O722   Zn726   1.990   .     S
O723   Zn726   2.027   .     S
O724   Zn725   2.027   .     S
C727   O785    1.293   .     A
C727   C748    1.418   .     S
C727   O783    1.273   .     A
C728   C730    1.399   .     A
C728   N780    1.427   .     S
C728   C739    1.398   .     A
C729   C752    1.388   .     A
C729   C751    1.429   .     S
C729   C731    1.388   .     A
C730   C732    1.391   .     A
C730   C750    1.424   .     S
C731   C733    1.401   .     A
C731   I773    2.125   .     S
C732   I774    2.136   .     S
C732   C734    1.395   .     A
C733   C735    1.421   .     A
C733   C740    1.419   .     A
C734   C741    1.415   .     A
C734   C736    1.421   .     A
C735   C737    1.416   .     A
C736   C739    1.414   .     A
C736   C141    1.399   1_556 S
C737   C752    1.397   .     A
C737   C747    1.400   .     A
C738   C749    1.418   .     S
C738   O784    1.272   .     A
C738   O786    1.293   .     A
C739   C746    1.401   .     A
C740   N781    1.437   .     S
C741   N782    1.423   .     S
C741   C153    1.382   1_556 S
C742   H771    1.109   .     S
C742   H770    1.109   .     S
C742   H769    1.110   .     S
C742   N779    1.449   .     S
C743   H755    1.109   .     S
C743   H756    1.110   .     S
C743   H754    1.109   .     S
C743   N780    1.448   .     S
C744   H759    1.108   .     S
C744   H758    1.111   .     S
C744   H1156   1.110   1_545 S
C744   N1177   1.449   1_545 S
C745   N782    1.448   .     S
C745   H762    1.110   .     S
C745   H765    1.111   .     S
C745   H763    1.109   .     S
C746   H753    1.079   .     S
C746   C146    1.400   1_556 S
C747   H764    1.081   .     S
C748   C947    1.363   .     S
C748   I973    2.169   .     S
C749   C1144   1.363   1_545 S
C749   I1172   2.167   1_545 S
C750   O787    1.284   .     A
C750   O789    1.280   .     A
C751   O790    1.280   .     A
C751   O788    1.286   .     A
C752   N779    1.420   .     S
H757   N781    1.032   .     S
H760   C942    1.110   .     S
H761   N782    1.030   .     S
H767   N646    1.028   1_655 S
H768   N779    1.025   .     S
H772   N780    1.031   .     S
I775   C1144   2.169   1_545 S
I776   C947    2.167   .     S
N777   Zn792   2.009   .     S
N777   H634    1.028   1_655 S
N777   N646    1.278   1_655 S
N778   Zn791   2.009   .     S
N781   C942    1.449   .     S
O783   Zn791   1.993   .     S
O784   Zn792   1.993   .     S
O785   Zn792   2.017   .     S
O786   Zn791   2.017   .     S
O787   Zn791   1.990   .     S
O788   Zn792   1.990   .     S
O789   Zn792   2.027   .     S
O790   Zn791   2.027   .     S
C793   O851    1.293   .     A
C793   C814    1.418   .     S
C793   O849    1.273   .     A
C794   C796    1.399   .     A
C794   N846    1.427   .     S
C794   C805    1.398   .     A
C795   C818    1.388   .     A
C795   C817    1.429   .     S
C795   C797    1.388   .     A
C796   C798    1.391   .     A
C796   C816    1.424   .     S
C797   C799    1.401   .     A
C797   I839    2.125   .     S
C798   I840    2.136   .     S
C798   C800    1.395   .     A
C799   C801    1.421   .     A
C799   C806    1.419   .     A
C800   C807    1.415   .     A
C800   C802    1.421   .     A
C801   C803    1.416   .     A
C802   C805    1.414   .     A
C802   C207    1.399   1_556 S
C803   C818    1.397   .     A
C803   C813    1.400   .     A
C804   C815    1.418   .     S
C804   O850    1.272   .     A
C804   O852    1.293   .     A
C805   C812    1.401   .     A
C806   N847    1.437   .     S
C807   N848    1.423   .     S
C807   C219    1.382   1_556 S
C808   H837    1.109   .     S
C808   H836    1.109   .     S
C808   H835    1.110   .     S
C808   N845    1.449   .     S
C809   H821    1.109   .     S
C809   H822    1.110   .     S
C809   H820    1.109   .     S
C809   N846    1.448   .     S
C810   H825    1.108   .     S
C810   H824    1.111   .     S
C811   N848    1.448   .     S
C811   H828    1.110   .     S
C811   H831    1.111   .     S
C811   H829    1.109   .     S
C812   H819    1.079   .     S
C812   C212    1.400   1_556 S
C813   H830    1.081   .     S
C814   C1013   1.363   .     S
C814   I1039   2.169   .     S
C816   O853    1.284   .     A
C816   O855    1.280   .     A
C817   O856    1.280   .     A
C817   O854    1.286   .     A
C818   N845    1.420   .     S
H823   N847    1.032   .     S
H826   C1008   1.110   .     S
H827   N848    1.030   .     S
H832   N975    1.028   1_455 S
H833   N910    1.028   .     S
H834   N845    1.025   .     S
H838   N846    1.031   .     S
I842   C1013   2.167   .     S
N843   Zn858   2.009   .     S
N843   H898    1.028   .     S
N843   N910    1.278   .     S
N844   Zn857   2.009   .     S
N844   H965    1.028   1_455 S
N844   N975    1.278   1_455 S
N847   C1008   1.449   .     S
O849   Zn857   1.993   .     S
O850   Zn858   1.993   .     S
O851   Zn858   2.017   .     S
O852   Zn857   2.017   .     S
O853   Zn857   1.990   .     S
O854   Zn858   1.990   .     S
O855   Zn858   2.027   .     S
O856   Zn857   2.027   .     S
C859   O917    1.293   .     A
C859   C880    1.418   .     S
C859   O915    1.273   .     A
C860   C862    1.399   .     A
C860   N912    1.427   .     S
C860   C871    1.398   .     A
C861   C884    1.388   .     A
C861   C883    1.429   .     S
C861   C863    1.388   .     A
C862   C864    1.391   .     A
C862   C882    1.424   .     S
C863   C865    1.401   .     A
C863   I905    2.125   .     S
C864   I906    2.136   .     S
C864   C866    1.395   .     A
C865   C867    1.421   .     A
C865   C872    1.419   .     A
C866   C873    1.415   .     A
C866   C868    1.421   .     A
C867   C869    1.416   .     A
C868   C871    1.414   .     A
C868   C273    1.399   1_556 S
C869   C884    1.397   .     A
C869   C879    1.400   .     A
C870   C881    1.418   .     S
C870   O916    1.272   .     A
C870   O918    1.293   .     A
C871   C878    1.401   .     A
C872   N913    1.437   .     S
C873   N914    1.423   .     S
C873   C285    1.382   1_556 S
C874   H903    1.109   .     S
C874   H902    1.109   .     S
C874   H901    1.110   .     S
C874   N911    1.449   .     S
C875   H887    1.109   .     S
C875   H888    1.110   .     S
C875   H886    1.109   .     S
C875   N912    1.448   .     S
C876   H891    1.108   .     S
C876   H890    1.111   .     S
C877   N914    1.448   .     S
C877   H894    1.110   .     S
C877   H897    1.111   .     S
C877   H895    1.109   .     S
C878   H885    1.079   .     S
C878   C278    1.400   1_556 S
C879   H896    1.081   .     S
C880   C1079   1.363   .     S
C880   I1105   2.169   .     S
C882   O919    1.284   .     A
C882   O921    1.280   .     A
C883   O922    1.280   .     A
C883   O920    1.286   .     A
C884   N911    1.420   .     S
H889   N913    1.032   .     S
H892   C1074   1.110   .     S
H893   N914    1.030   .     S
H899   N976    1.028   .     S
H900   N911    1.025   .     S
H904   N912    1.031   .     S
I908   C1079   2.167   .     S
N909   Zn924   2.009   .     S
N909   H964    1.028   .     S
N909   N976    1.278   .     S
N910   Zn923   2.009   .     S
N913   C1074   1.449   .     S
O915   Zn923   1.993   .     S
O916   Zn924   1.993   .     S
O917   Zn924   2.017   .     S
O918   Zn923   2.017   .     S
O919   Zn923   1.990   .     S
O920   Zn924   1.990   .     S
O921   Zn924   2.027   .     S
O922   Zn923   2.027   .     S
C925   O983    1.293   .     A
C925   C946    1.418   .     S
C925   O981    1.273   .     A
C926   C928    1.399   .     A
C926   N978    1.427   .     S
C926   C937    1.398   .     A
C927   C950    1.388   .     A
C927   C949    1.429   .     S
C927   C929    1.388   .     A
C928   C930    1.391   .     A
C928   C948    1.424   .     S
C929   C931    1.401   .     A
C929   I971    2.125   .     S
C930   I972    2.136   .     S
C930   C932    1.395   .     A
C931   C933    1.421   .     A
C931   C938    1.419   .     A
C932   C939    1.415   .     A
C932   C934    1.421   .     A
C933   C935    1.416   .     A
C934   C937    1.414   .     A
C934   C339    1.399   1_556 S
C935   C950    1.397   .     A
C935   C945    1.400   .     A
C936   C947    1.418   .     S
C936   O982    1.272   .     A
C936   O984    1.293   .     A
C937   C944    1.401   .     A
C938   N979    1.437   .     S
C939   N980    1.423   .     S
C939   C351    1.382   1_556 S
C940   H969    1.109   .     S
C940   H968    1.109   .     S
C940   H967    1.110   .     S
C940   N977    1.449   .     S
C941   H953    1.109   .     S
C941   H954    1.110   .     S
C941   H952    1.109   .     S
C941   N978    1.448   .     S
C942   H957    1.108   .     S
C942   H956    1.111   .     S
C943   N980    1.448   .     S
C943   H960    1.110   .     S
C943   H963    1.111   .     S
C943   H961    1.109   .     S
C944   H951    1.079   .     S
C944   C344    1.400   1_556 S
C945   H962    1.081   .     S
C946   C1145   1.363   .     S
C946   I1171   2.169   .     S
C948   O985    1.284   .     A
C948   O987    1.280   .     A
C949   O988    1.280   .     A
C949   O986    1.286   .     A
C950   N977    1.420   .     S
H955   N979    1.032   .     S
H958   C1140   1.110   .     S
H959   N980    1.030   .     S
H965   N844    1.028   1_655 S
H966   N977    1.025   .     S
H970   N978    1.031   .     S
I974   C1145   2.167   .     S
N975   Zn990   2.009   .     S
N975   H832    1.028   1_655 S
N975   N844    1.278   1_655 S
N976   Zn989   2.009   .     S
N979   C1140   1.449   .     S
O981   Zn989   1.993   .     S
O982   Zn990   1.993   .     S
O983   Zn990   2.017   .     S
O984   Zn989   2.017   .     S
O985   Zn989   1.990   .     S
O986   Zn990   1.990   .     S
O987   Zn990   2.027   .     S
O988   Zn989   2.027   .     S
C991   O1049   1.293   .     A
C991   C1012   1.418   .     S
C991   O1047   1.273   .     A
C992   C994    1.399   .     A
C992   N1044   1.427   .     S
C992   C1003   1.398   .     A
C993   C1016   1.388   .     A
C993   C1015   1.429   .     S
C993   C995    1.388   .     A
C994   C996    1.391   .     A
C994   C1014   1.424   .     S
C995   C997    1.401   .     A
C995   I1037   2.125   .     S
C996   I1038   2.136   .     S
C996   C998    1.395   .     A
C997   C999    1.421   .     A
C997   C1004   1.419   .     A
C998   C1005   1.415   .     A
C998   C1000   1.421   .     A
C999   C1001   1.416   .     A
C1000  C1003   1.414   .     A
C1000  C405    1.399   1_556 S
C1001  C1016   1.397   .     A
C1001  C1011   1.400   .     A
C1002  C1013   1.418   .     S
C1002  O1048   1.272   .     A
C1002  O1050   1.293   .     A
C1003  C1010   1.401   .     A
C1004  N1045   1.437   .     S
C1005  N1046   1.423   .     S
C1005  C417    1.382   1_556 S
C1006  H1035   1.109   .     S
C1006  H1034   1.109   .     S
C1006  H1033   1.110   .     S
C1006  N1043   1.449   .     S
C1007  H1019   1.109   .     S
C1007  H1020   1.110   .     S
C1007  H1018   1.109   .     S
C1007  N1044   1.448   .     S
C1008  H1023   1.108   .     S
C1008  H1022   1.111   .     S
C1009  N1046   1.448   .     S
C1009  H1026   1.110   .     S
C1009  H1029   1.111   .     S
C1009  H1027   1.109   .     S
C1010  H1017   1.079   .     S
C1010  C410    1.400   1_556 S
C1011  H1028   1.081   .     S
C1012  C617    1.363   1_565 S
C1012  I643    2.169   1_565 S
C1014  O1051   1.284   .     A
C1014  O1053   1.280   .     A
C1015  O1054   1.280   .     A
C1015  O1052   1.286   .     A
C1016  N1043   1.420   .     S
H1021  N1045   1.032   .     S
H1024  C612    1.110   1_565 S
H1025  N1046   1.030   .     S
H1030  N1173   1.028   1_455 S
H1031  N1108   1.028   .     S
H1032  N1043   1.025   .     S
H1036  N1044   1.031   .     S
I1040  C617    2.167   1_565 S
N1041  Zn1056  2.009   .     S
N1041  H1096   1.028   .     S
N1041  N1108   1.278   .     S
N1042  Zn1055  2.009   .     S
N1042  H1163   1.028   1_455 S
N1042  N1173   1.278   1_455 S
N1045  C612    1.449   1_565 S
O1047  Zn1055  1.993   .     S
O1048  Zn1056  1.993   .     S
O1049  Zn1056  2.017   .     S
O1050  Zn1055  2.017   .     S
O1051  Zn1055  1.990   .     S
O1052  Zn1056  1.990   .     S
O1053  Zn1056  2.027   .     S
O1054  Zn1055  2.027   .     S
C1057  O1115   1.293   .     A
C1057  C1078   1.418   .     S
C1057  O1113   1.273   .     A
C1058  C1060   1.399   .     A
C1058  N1110   1.427   .     S
C1058  C1069   1.398   .     A
C1059  C1082   1.388   .     A
C1059  C1081   1.429   .     S
C1059  C1061   1.388   .     A
C1060  C1062   1.391   .     A
C1060  C1080   1.424   .     S
C1061  C1063   1.401   .     A
C1061  I1103   2.125   .     S
C1062  I1104   2.136   .     S
C1062  C1064   1.395   .     A
C1063  C1065   1.421   .     A
C1063  C1070   1.419   .     A
C1064  C1071   1.415   .     A
C1064  C1066   1.421   .     A
C1065  C1067   1.416   .     A
C1066  C1069   1.414   .     A
C1066  C471    1.399   1_556 S
C1067  C1082   1.397   .     A
C1067  C1077   1.400   .     A
C1068  C1079   1.418   .     S
C1068  O1114   1.272   .     A
C1068  O1116   1.293   .     A
C1069  C1076   1.401   .     A
C1070  N1111   1.437   .     S
C1071  N1112   1.423   .     S
C1071  C483    1.382   1_556 S
C1072  H1101   1.109   .     S
C1072  H1100   1.109   .     S
C1072  H1099   1.110   .     S
C1072  N1109   1.449   .     S
C1073  H1085   1.109   .     S
C1073  H1086   1.110   .     S
C1073  H1084   1.109   .     S
C1073  N1110   1.448   .     S
C1074  H1089   1.108   .     S
C1074  H1088   1.111   .     S
C1075  N1112   1.448   .     S
C1075  H1092   1.110   .     S
C1075  H1095   1.111   .     S
C1075  H1093   1.109   .     S
C1076  H1083   1.079   .     S
C1076  C476    1.400   1_556 S
C1077  H1094   1.081   .     S
C1078  C683    1.363   1_565 S
C1078  I709    2.169   1_565 S
C1080  O1117   1.284   .     A
C1080  O1119   1.280   .     A
C1081  O1120   1.280   .     A
C1081  O1118   1.286   .     A
C1082  N1109   1.420   .     S
H1087  N1111   1.032   .     S
H1090  C678    1.110   1_565 S
H1091  N1112   1.030   .     S
H1097  N1174   1.028   .     S
H1098  N1109   1.025   .     S
H1102  N1110   1.031   .     S
I1106  C683    2.167   1_565 S
N1107  Zn1122  2.009   .     S
N1107  H1162   1.028   .     S
N1107  N1174   1.278   .     S
N1108  Zn1121  2.009   .     S
N1111  C678    1.449   1_565 S
O1113  Zn1121  1.993   .     S
O1114  Zn1122  1.993   .     S
O1115  Zn1122  2.017   .     S
O1116  Zn1121  2.017   .     S
O1117  Zn1121  1.990   .     S
O1118  Zn1122  1.990   .     S
O1119  Zn1122  2.027   .     S
O1120  Zn1121  2.027   .     S
C1123  O1181   1.293   .     A
C1123  C1144   1.418   .     S
C1123  O1179   1.273   .     A
C1124  C1126   1.399   .     A
C1124  N1176   1.427   .     S
C1124  C1135   1.398   .     A
C1125  C1148   1.388   .     A
C1125  C1147   1.429   .     S
C1125  C1127   1.388   .     A
C1126  C1128   1.391   .     A
C1126  C1146   1.424   .     S
C1127  C1129   1.401   .     A
C1127  I1169   2.125   .     S
C1128  I1170   2.136   .     S
C1128  C1130   1.395   .     A
C1129  C1131   1.421   .     A
C1129  C1136   1.419   .     A
C1130  C1137   1.415   .     A
C1130  C1132   1.421   .     A
C1131  C1133   1.416   .     A
C1132  C1135   1.414   .     A
C1132  C537    1.399   1_556 S
C1133  C1148   1.397   .     A
C1133  C1143   1.400   .     A
C1134  C1145   1.418   .     S
C1134  O1180   1.272   .     A
C1134  O1182   1.293   .     A
C1135  C1142   1.401   .     A
C1136  N1177   1.437   .     S
C1137  N1178   1.423   .     S
C1137  C549    1.382   1_556 S
C1138  H1167   1.109   .     S
C1138  H1166   1.109   .     S
C1138  H1165   1.110   .     S
C1138  N1175   1.449   .     S
C1139  H1151   1.109   .     S
C1139  H1152   1.110   .     S
C1139  H1150   1.109   .     S
C1139  N1176   1.448   .     S
C1140  H1155   1.108   .     S
C1140  H1154   1.111   .     S
C1141  N1178   1.448   .     S
C1141  H1158   1.110   .     S
C1141  H1161   1.111   .     S
C1141  H1159   1.109   .     S
C1142  H1149   1.079   .     S
C1142  C542    1.400   1_556 S
C1143  H1160   1.081   .     S
C1144  C749    1.363   1_565 S
C1144  I775    2.169   1_565 S
C1146  O1183   1.284   .     A
C1146  O1185   1.280   .     A
C1147  O1186   1.280   .     A
C1147  O1184   1.286   .     A
C1148  N1175   1.420   .     S
H1153  N1177   1.032   .     S
H1156  C744    1.110   1_565 S
H1157  N1178   1.030   .     S
H1163  N1042   1.028   1_655 S
H1164  N1175   1.025   .     S
H1168  N1176   1.031   .     S
I1172  C749    2.167   1_565 S
N1173  Zn1188  2.009   .     S
N1173  H1030   1.028   1_655 S
N1173  N1042   1.278   1_655 S
N1174  Zn1187  2.009   .     S
N1177  C744    1.449   1_565 S
O1179  Zn1187  1.993   .     S
O1180  Zn1188  1.993   .     S
O1181  Zn1188  2.017   .     S
O1182  Zn1187  2.017   .     S
O1183  Zn1187  1.990   .     S
O1184  Zn1188  1.990   .     S
O1185  Zn1188  2.027   .     S
O1186  Zn1187  2.027   .     S
