data_str_m3_o1_o10_pcu_sym.182
_audit_creation_date              2020-01-03
_audit_creation_method            'Materials Studio'
_symmetry_space_group_name_H-M    'P1'
_symmetry_Int_Tables_number       1
_symmetry_cell_setting            triclinic
loop_
_symmetry_equiv_pos_as_xyz
  x,y,z
_cell_length_a                    25.7060
_cell_length_b                    32.1261
_cell_length_c                    29.6257
_cell_angle_alpha                 90.5633
_cell_angle_beta                  97.7251
_cell_angle_gamma                 90.3863
loop_
_atom_site_label
_atom_site_type_symbol
_atom_site_fract_x
_atom_site_fract_y
_atom_site_fract_z
_atom_site_U_iso_or_equiv
_atom_site_adp_type
_atom_site_occupancy
C1     C     0.16624   0.08675   0.16652   0.00000  Uiso   1.00
C2     C     0.16527   0.24674   0.16691   0.00000  Uiso   1.00
C3     C     0.06715   0.16742   0.15488   0.00000  Uiso   1.00
C4     C     0.26611   0.16843   0.17834   0.00000  Uiso   1.00
C5     C     0.01221   0.16696   0.14831   0.00000  Uiso   1.00
C6     C     0.32075   0.17348   0.18406   0.00000  Uiso   1.00
C7     C     0.13529   0.02086   0.12912   0.00000  Uiso   1.00
C8     C     0.17710   0.31344   0.20855   0.00000  Uiso   1.00
C9     C     0.13954   0.31141   0.12841   0.00000  Uiso   1.00
C10    C     0.18178   0.02246   0.20651   0.00000  Uiso   1.00
C11    C     0.16152   0.29104   0.16782   0.00000  Uiso   1.00
C12    C     0.16197   0.04278   0.16663   0.00000  Uiso   1.00
C13    C     0.19973   0.19265   0.02833   0.00000  Uiso   1.00
C14    C     0.13461   0.13987   0.30543   0.00000  Uiso   1.00
C15    C     0.19982   0.19221   0.31346   0.00000  Uiso   1.00
C16    C     0.13482   0.14015   0.02014   0.00000  Uiso   1.00
H17    H     0.32566   0.15943   0.11439   0.00000  Uiso   1.00
H18    H     0.00724   0.18227   0.21754   0.00000  Uiso   1.00
H19    H     0.12250   0.29408   0.09841   0.00000  Uiso   1.00
H20    H     0.19864   0.03942   0.23687   0.00000  Uiso   1.00
H21    H     0.22675   0.21196   0.29829   0.00000  Uiso   1.00
H22    H     0.11053   0.11839   0.03563   0.00000  Uiso   1.00
N23    N     0.16665   0.16666   0.28573   0.00000  Uiso   1.00
N24    N     0.16668   0.16668   0.04760   0.00000  Uiso   1.00
O25    O     0.16666   0.10558   0.20487   0.00000  Uiso   1.00
O26    O     0.16667   0.22775   0.12846   0.00000  Uiso   1.00
O27    O     0.16666   0.10559   0.12843   0.00000  Uiso   1.00
O28    O     0.16667   0.22774   0.20490   0.00000  Uiso   1.00
O29    O     0.09058   0.16666   0.19595   0.00000  Uiso   1.00
O30    O     0.24275   0.16667   0.13739   0.00000  Uiso   1.00
O31    O     0.09058   0.16667   0.11950   0.00000  Uiso   1.00
O32    O     0.24275   0.16666   0.21383   0.00000  Uiso   1.00
Zn33   Zn    0.16667   0.16666   0.21771   0.00000  Uiso   1.00
Zn34   Zn    0.16667   0.16667   0.11563   0.00000  Uiso   1.00
O35    O     0.10371   0.04006   0.09385   0.00000  Uiso   1.00
C36    C     0.05820   0.05689   0.10956   0.00000  Uiso   1.00
H37    H     0.03555   0.07314   0.08051   0.00000  Uiso   1.00
H38    H     0.06814   0.08088   0.13652   0.00000  Uiso   1.00
C39    C     0.02243   0.02359   0.12664   0.00000  Uiso   1.00
H40    H     0.01402   0.33215   0.10042   0.00000  Uiso   1.00
H41    H     0.04241   0.00921   0.15822   0.00000  Uiso   1.00
C42    C     0.30433   0.04243   0.13736   0.00000  Uiso   1.00
H43    H     0.27873   0.01750   0.14823   0.00000  Uiso   1.00
H44    H     0.28326   0.05771   0.10682   0.00000  Uiso   1.00
H45    H     0.31223   0.06583   0.16537   0.00000  Uiso   1.00
O46    O     0.18698   0.29461   0.25054   0.00000  Uiso   1.00
C47    C     0.13865   0.28895   0.26805   0.00000  Uiso   1.00
H48    H     0.14142   0.25993   0.28802   0.00000  Uiso   1.00
H49    H     0.10415   0.28411   0.24118   0.00000  Uiso   1.00
C50    C     0.12793   0.32532   0.29916   0.00000  Uiso   1.00
H51    H     0.16325   0.33249   0.32390   0.00000  Uiso   1.00
H52    H     0.11799   0.02011   0.27837   0.00000  Uiso   1.00
C53    C     0.08253   0.31489   0.32536   0.00000  Uiso   1.00
H54    H     0.04643   0.30803   0.30130   0.00000  Uiso   1.00
H55    H     0.07516   0.00847   0.01386   0.00000  Uiso   1.00
H56    H     0.09213   0.28749   0.01409   0.00000  Uiso   1.00
O57    O     0.23636   0.21585   0.05679   0.00000  Uiso   1.00
C58    C     0.23169   0.25888   0.04743   0.00000  Uiso   1.00
H59    H     0.22608   0.27526   0.07959   0.00000  Uiso   1.00
H60    H     0.19730   0.26708   0.02228   0.00000  Uiso   1.00
C61    C     0.28237   0.27529   0.03205   0.00000  Uiso   1.00
H62    H     0.31512   0.27152   0.06021   0.00000  Uiso   1.00
H63    H     0.29200   0.25704   0.00230   0.00000  Uiso   1.00
C64    C     0.27732   0.32111   0.01906   0.00000  Uiso   1.00
H65    H     0.25326   0.32418   0.31867   0.00000  Uiso   1.00
H66    H     0.31655   0.00134   0.01685   0.00000  Uiso   1.00
H67    H     0.25900   0.00584   0.04482   0.00000  Uiso   1.00
O68    O     0.10649   0.10942   0.27900   0.00000  Uiso   1.00
C69    C     0.05196   0.11747   0.27468   0.00000  Uiso   1.00
H70    H     0.03696   0.11556   0.23790   0.00000  Uiso   1.00
H71    H     0.04193   0.14890   0.28740   0.00000  Uiso   1.00
C72    C     0.02292   0.08372   0.29766   0.00000  Uiso   1.00
H73    H     0.02917   0.05308   0.28170   0.00000  Uiso   1.00
H74    H     0.03821   0.08234   0.00103   0.00000  Uiso   1.00
C75    C     0.29738   0.09234   0.29241   0.00000  Uiso   1.00
H76    H     0.28986   0.12309   0.30767   0.00000  Uiso   1.00
H77    H     0.27713   0.06804   0.31005   0.00000  Uiso   1.00
H78    H     0.28073   0.09197   0.25579   0.00000  Uiso   1.00
C79    C     0.49958   0.08675   0.16652   0.00000  Uiso   1.00
C80    C     0.49860   0.24674   0.16691   0.00000  Uiso   1.00
C81    C     0.40049   0.16742   0.15488   0.00000  Uiso   1.00
C82    C     0.59944   0.16843   0.17834   0.00000  Uiso   1.00
C83    C     0.34554   0.16696   0.14831   0.00000  Uiso   1.00
C84    C     0.65408   0.17348   0.18406   0.00000  Uiso   1.00
C85    C     0.46862   0.02086   0.12912   0.00000  Uiso   1.00
C86    C     0.51043   0.31344   0.20855   0.00000  Uiso   1.00
C87    C     0.47288   0.31141   0.12841   0.00000  Uiso   1.00
C88    C     0.51511   0.02246   0.20651   0.00000  Uiso   1.00
C89    C     0.49485   0.29104   0.16782   0.00000  Uiso   1.00
C90    C     0.49530   0.04278   0.16663   0.00000  Uiso   1.00
C91    C     0.53306   0.19265   0.02833   0.00000  Uiso   1.00
C92    C     0.46794   0.13987   0.30543   0.00000  Uiso   1.00
C93    C     0.53315   0.19221   0.31346   0.00000  Uiso   1.00
C94    C     0.46815   0.14015   0.02014   0.00000  Uiso   1.00
H95    H     0.65900   0.15943   0.11439   0.00000  Uiso   1.00
H96    H     0.34057   0.18227   0.21754   0.00000  Uiso   1.00
H97    H     0.45584   0.29408   0.09841   0.00000  Uiso   1.00
H98    H     0.53197   0.03942   0.23687   0.00000  Uiso   1.00
H99    H     0.56008   0.21196   0.29829   0.00000  Uiso   1.00
H100   H     0.44386   0.11839   0.03563   0.00000  Uiso   1.00
N101   N     0.49999   0.16666   0.28573   0.00000  Uiso   1.00
N102   N     0.50001   0.16668   0.04760   0.00000  Uiso   1.00
O103   O     0.50000   0.10558   0.20487   0.00000  Uiso   1.00
O104   O     0.50000   0.22775   0.12846   0.00000  Uiso   1.00
O105   O     0.50000   0.10559   0.12843   0.00000  Uiso   1.00
O106   O     0.50000   0.22774   0.20490   0.00000  Uiso   1.00
O107   O     0.42392   0.16666   0.19595   0.00000  Uiso   1.00
O108   O     0.57608   0.16667   0.13739   0.00000  Uiso   1.00
O109   O     0.42392   0.16667   0.11950   0.00000  Uiso   1.00
O110   O     0.57608   0.16666   0.21383   0.00000  Uiso   1.00
Zn111  Zn    0.50000   0.16666   0.21771   0.00000  Uiso   1.00
Zn112  Zn    0.50000   0.16667   0.11563   0.00000  Uiso   1.00
O113   O     0.43704   0.04006   0.09385   0.00000  Uiso   1.00
C114   C     0.39154   0.05689   0.10956   0.00000  Uiso   1.00
H115   H     0.36888   0.07314   0.08051   0.00000  Uiso   1.00
H116   H     0.40147   0.08088   0.13652   0.00000  Uiso   1.00
C117   C     0.35576   0.02359   0.12664   0.00000  Uiso   1.00
H118   H     0.34735   0.33215   0.10042   0.00000  Uiso   1.00
H119   H     0.37574   0.00921   0.15822   0.00000  Uiso   1.00
C120   C     0.63766   0.04243   0.13736   0.00000  Uiso   1.00
H121   H     0.61206   0.01750   0.14823   0.00000  Uiso   1.00
H122   H     0.61659   0.05771   0.10682   0.00000  Uiso   1.00
H123   H     0.64556   0.06583   0.16537   0.00000  Uiso   1.00
O124   O     0.52032   0.29461   0.25054   0.00000  Uiso   1.00
C125   C     0.47198   0.28895   0.26805   0.00000  Uiso   1.00
H126   H     0.47476   0.25993   0.28802   0.00000  Uiso   1.00
H127   H     0.43748   0.28411   0.24118   0.00000  Uiso   1.00
C128   C     0.46127   0.32532   0.29916   0.00000  Uiso   1.00
H129   H     0.49658   0.33249   0.32390   0.00000  Uiso   1.00
H130   H     0.45132   0.02011   0.27837   0.00000  Uiso   1.00
C131   C     0.41587   0.31489   0.32536   0.00000  Uiso   1.00
H132   H     0.37977   0.30803   0.30130   0.00000  Uiso   1.00
H133   H     0.40850   0.00847   0.01386   0.00000  Uiso   1.00
H134   H     0.42546   0.28749   0.01409   0.00000  Uiso   1.00
O135   O     0.56969   0.21585   0.05679   0.00000  Uiso   1.00
C136   C     0.56502   0.25888   0.04743   0.00000  Uiso   1.00
H137   H     0.55941   0.27526   0.07959   0.00000  Uiso   1.00
H138   H     0.53063   0.26708   0.02228   0.00000  Uiso   1.00
C139   C     0.61570   0.27529   0.03205   0.00000  Uiso   1.00
H140   H     0.64845   0.27152   0.06021   0.00000  Uiso   1.00
H141   H     0.62534   0.25704   0.00230   0.00000  Uiso   1.00
C142   C     0.61066   0.32111   0.01906   0.00000  Uiso   1.00
H143   H     0.58660   0.32418   0.31867   0.00000  Uiso   1.00
H144   H     0.64988   0.00134   0.01685   0.00000  Uiso   1.00
H145   H     0.59234   0.00584   0.04482   0.00000  Uiso   1.00
O146   O     0.43983   0.10942   0.27900   0.00000  Uiso   1.00
C147   C     0.38529   0.11747   0.27468   0.00000  Uiso   1.00
H148   H     0.37030   0.11556   0.23790   0.00000  Uiso   1.00
H149   H     0.37526   0.14890   0.28740   0.00000  Uiso   1.00
C150   C     0.35626   0.08372   0.29766   0.00000  Uiso   1.00
H151   H     0.36251   0.05308   0.28170   0.00000  Uiso   1.00
H152   H     0.37154   0.08234   0.00103   0.00000  Uiso   1.00
C153   C     0.63071   0.09234   0.29241   0.00000  Uiso   1.00
H154   H     0.62319   0.12309   0.30767   0.00000  Uiso   1.00
H155   H     0.61047   0.06804   0.31005   0.00000  Uiso   1.00
H156   H     0.61406   0.09197   0.25579   0.00000  Uiso   1.00
C157   C     0.83291   0.08675   0.16652   0.00000  Uiso   1.00
C158   C     0.83194   0.24674   0.16691   0.00000  Uiso   1.00
C159   C     0.73382   0.16742   0.15488   0.00000  Uiso   1.00
C160   C     0.93277   0.16843   0.17834   0.00000  Uiso   1.00
C161   C     0.67887   0.16696   0.14831   0.00000  Uiso   1.00
C162   C     0.98742   0.17348   0.18406   0.00000  Uiso   1.00
C163   C     0.80195   0.02086   0.12912   0.00000  Uiso   1.00
C164   C     0.84377   0.31344   0.20855   0.00000  Uiso   1.00
C165   C     0.80621   0.31141   0.12841   0.00000  Uiso   1.00
C166   C     0.84844   0.02246   0.20651   0.00000  Uiso   1.00
C167   C     0.82819   0.29104   0.16782   0.00000  Uiso   1.00
C168   C     0.82864   0.04278   0.16663   0.00000  Uiso   1.00
C169   C     0.86639   0.19265   0.02833   0.00000  Uiso   1.00
C170   C     0.80127   0.13987   0.30543   0.00000  Uiso   1.00
C171   C     0.86648   0.19221   0.31346   0.00000  Uiso   1.00
C172   C     0.80148   0.14015   0.02014   0.00000  Uiso   1.00
H173   H     0.99233   0.15943   0.11439   0.00000  Uiso   1.00
H174   H     0.67390   0.18227   0.21754   0.00000  Uiso   1.00
H175   H     0.78917   0.29408   0.09841   0.00000  Uiso   1.00
H176   H     0.86531   0.03942   0.23687   0.00000  Uiso   1.00
H177   H     0.89341   0.21196   0.29829   0.00000  Uiso   1.00
H178   H     0.77720   0.11839   0.03563   0.00000  Uiso   1.00
N179   N     0.83332   0.16666   0.28573   0.00000  Uiso   1.00
N180   N     0.83335   0.16668   0.04760   0.00000  Uiso   1.00
O181   O     0.83333   0.10558   0.20487   0.00000  Uiso   1.00
O182   O     0.83334   0.22775   0.12846   0.00000  Uiso   1.00
O183   O     0.83333   0.10559   0.12843   0.00000  Uiso   1.00
O184   O     0.83334   0.22774   0.20490   0.00000  Uiso   1.00
O185   O     0.75725   0.16666   0.19595   0.00000  Uiso   1.00
O186   O     0.90942   0.16667   0.13739   0.00000  Uiso   1.00
O187   O     0.75725   0.16667   0.11950   0.00000  Uiso   1.00
O188   O     0.90942   0.16666   0.21383   0.00000  Uiso   1.00
Zn189  Zn    0.83333   0.16666   0.21771   0.00000  Uiso   1.00
Zn190  Zn    0.83333   0.16667   0.11563   0.00000  Uiso   1.00
O191   O     0.77038   0.04006   0.09385   0.00000  Uiso   1.00
C192   C     0.72487   0.05689   0.10956   0.00000  Uiso   1.00
H193   H     0.70221   0.07314   0.08051   0.00000  Uiso   1.00
H194   H     0.73481   0.08088   0.13652   0.00000  Uiso   1.00
C195   C     0.68909   0.02359   0.12664   0.00000  Uiso   1.00
H196   H     0.68069   0.33215   0.10042   0.00000  Uiso   1.00
H197   H     0.70907   0.00921   0.15822   0.00000  Uiso   1.00
C198   C     0.97100   0.04243   0.13736   0.00000  Uiso   1.00
H199   H     0.94539   0.01750   0.14823   0.00000  Uiso   1.00
H200   H     0.94993   0.05771   0.10682   0.00000  Uiso   1.00
H201   H     0.97890   0.06583   0.16537   0.00000  Uiso   1.00
O202   O     0.85365   0.29461   0.25054   0.00000  Uiso   1.00
C203   C     0.80531   0.28895   0.26805   0.00000  Uiso   1.00
H204   H     0.80809   0.25993   0.28802   0.00000  Uiso   1.00
H205   H     0.77081   0.28411   0.24118   0.00000  Uiso   1.00
C206   C     0.79460   0.32532   0.29916   0.00000  Uiso   1.00
H207   H     0.82991   0.33249   0.32390   0.00000  Uiso   1.00
H208   H     0.78466   0.02011   0.27837   0.00000  Uiso   1.00
C209   C     0.74920   0.31489   0.32536   0.00000  Uiso   1.00
H210   H     0.71310   0.30803   0.30130   0.00000  Uiso   1.00
H211   H     0.74183   0.00847   0.01386   0.00000  Uiso   1.00
H212   H     0.75879   0.28749   0.01409   0.00000  Uiso   1.00
O213   O     0.90302   0.21585   0.05679   0.00000  Uiso   1.00
C214   C     0.89835   0.25888   0.04743   0.00000  Uiso   1.00
H215   H     0.89275   0.27526   0.07959   0.00000  Uiso   1.00
H216   H     0.86397   0.26708   0.02228   0.00000  Uiso   1.00
C217   C     0.94903   0.27529   0.03205   0.00000  Uiso   1.00
H218   H     0.98178   0.27152   0.06021   0.00000  Uiso   1.00
H219   H     0.95867   0.25704   0.00230   0.00000  Uiso   1.00
C220   C     0.94399   0.32111   0.01906   0.00000  Uiso   1.00
H221   H     0.91993   0.32418   0.31867   0.00000  Uiso   1.00
H222   H     0.98322   0.00134   0.01685   0.00000  Uiso   1.00
H223   H     0.92567   0.00584   0.04482   0.00000  Uiso   1.00
O224   O     0.77316   0.10942   0.27900   0.00000  Uiso   1.00
C225   C     0.71863   0.11747   0.27468   0.00000  Uiso   1.00
H226   H     0.70363   0.11556   0.23790   0.00000  Uiso   1.00
H227   H     0.70859   0.14890   0.28740   0.00000  Uiso   1.00
C228   C     0.68959   0.08372   0.29766   0.00000  Uiso   1.00
H229   H     0.69584   0.05308   0.28170   0.00000  Uiso   1.00
H230   H     0.70488   0.08234   0.00103   0.00000  Uiso   1.00
C231   C     0.96404   0.09234   0.29241   0.00000  Uiso   1.00
H232   H     0.95652   0.12309   0.30767   0.00000  Uiso   1.00
H233   H     0.94380   0.06804   0.31005   0.00000  Uiso   1.00
H234   H     0.94739   0.09197   0.25579   0.00000  Uiso   1.00
C235   C     0.16624   0.42009   0.16652   0.00000  Uiso   1.00
C236   C     0.16527   0.58007   0.16691   0.00000  Uiso   1.00
C237   C     0.06715   0.50075   0.15488   0.00000  Uiso   1.00
C238   C     0.26611   0.50177   0.17834   0.00000  Uiso   1.00
C239   C     0.01221   0.50029   0.14831   0.00000  Uiso   1.00
C240   C     0.32075   0.50681   0.18406   0.00000  Uiso   1.00
C241   C     0.13529   0.35420   0.12912   0.00000  Uiso   1.00
C242   C     0.17710   0.64677   0.20855   0.00000  Uiso   1.00
C243   C     0.13954   0.64474   0.12841   0.00000  Uiso   1.00
C244   C     0.18178   0.35579   0.20651   0.00000  Uiso   1.00
C245   C     0.16152   0.62437   0.16782   0.00000  Uiso   1.00
C246   C     0.16197   0.37611   0.16663   0.00000  Uiso   1.00
C247   C     0.19973   0.52598   0.02833   0.00000  Uiso   1.00
C248   C     0.13461   0.47320   0.30543   0.00000  Uiso   1.00
C249   C     0.19982   0.52554   0.31346   0.00000  Uiso   1.00
C250   C     0.13482   0.47348   0.02014   0.00000  Uiso   1.00
H251   H     0.32566   0.49276   0.11439   0.00000  Uiso   1.00
H252   H     0.00724   0.51560   0.21754   0.00000  Uiso   1.00
H253   H     0.12250   0.62741   0.09841   0.00000  Uiso   1.00
H254   H     0.19864   0.37276   0.23687   0.00000  Uiso   1.00
H255   H     0.22675   0.54529   0.29829   0.00000  Uiso   1.00
H256   H     0.11053   0.45173   0.03563   0.00000  Uiso   1.00
N257   N     0.16665   0.49999   0.28573   0.00000  Uiso   1.00
N258   N     0.16668   0.50001   0.04760   0.00000  Uiso   1.00
O259   O     0.16666   0.43892   0.20487   0.00000  Uiso   1.00
O260   O     0.16667   0.56108   0.12846   0.00000  Uiso   1.00
O261   O     0.16666   0.43893   0.12843   0.00000  Uiso   1.00
O262   O     0.16667   0.56107   0.20490   0.00000  Uiso   1.00
O263   O     0.09058   0.50000   0.19595   0.00000  Uiso   1.00
O264   O     0.24275   0.50000   0.13739   0.00000  Uiso   1.00
O265   O     0.09058   0.50000   0.11950   0.00000  Uiso   1.00
O266   O     0.24275   0.50000   0.21383   0.00000  Uiso   1.00
Zn267  Zn    0.16667   0.49999   0.21771   0.00000  Uiso   1.00
Zn268  Zn    0.16667   0.50001   0.11563   0.00000  Uiso   1.00
O269   O     0.10371   0.37339   0.09385   0.00000  Uiso   1.00
C270   C     0.05820   0.39022   0.10956   0.00000  Uiso   1.00
H271   H     0.03555   0.40647   0.08051   0.00000  Uiso   1.00
H272   H     0.06814   0.41421   0.13652   0.00000  Uiso   1.00
C273   C     0.02243   0.35692   0.12664   0.00000  Uiso   1.00
H274   H     0.01402   0.66548   0.10042   0.00000  Uiso   1.00
H275   H     0.04241   0.34255   0.15822   0.00000  Uiso   1.00
C276   C     0.30433   0.37577   0.13736   0.00000  Uiso   1.00
H277   H     0.27873   0.35083   0.14823   0.00000  Uiso   1.00
H278   H     0.28326   0.39105   0.10682   0.00000  Uiso   1.00
H279   H     0.31223   0.39916   0.16537   0.00000  Uiso   1.00
O280   O     0.18698   0.62794   0.25054   0.00000  Uiso   1.00
C281   C     0.13865   0.62228   0.26805   0.00000  Uiso   1.00
H282   H     0.14142   0.59326   0.28802   0.00000  Uiso   1.00
H283   H     0.10415   0.61744   0.24118   0.00000  Uiso   1.00
C284   C     0.12793   0.65866   0.29916   0.00000  Uiso   1.00
H285   H     0.16325   0.66583   0.32390   0.00000  Uiso   1.00
H286   H     0.11799   0.35344   0.27837   0.00000  Uiso   1.00
C287   C     0.08253   0.64822   0.32536   0.00000  Uiso   1.00
H288   H     0.04643   0.64136   0.30130   0.00000  Uiso   1.00
H289   H     0.07516   0.34180   0.01386   0.00000  Uiso   1.00
H290   H     0.09213   0.62082   0.01409   0.00000  Uiso   1.00
O291   O     0.23636   0.54919   0.05679   0.00000  Uiso   1.00
C292   C     0.23169   0.59221   0.04743   0.00000  Uiso   1.00
H293   H     0.22608   0.60859   0.07959   0.00000  Uiso   1.00
H294   H     0.19730   0.60041   0.02228   0.00000  Uiso   1.00
C295   C     0.28237   0.60863   0.03205   0.00000  Uiso   1.00
H296   H     0.31512   0.60485   0.06021   0.00000  Uiso   1.00
H297   H     0.29200   0.59037   0.00230   0.00000  Uiso   1.00
C298   C     0.27732   0.65444   0.01906   0.00000  Uiso   1.00
H299   H     0.25326   0.65751   0.31867   0.00000  Uiso   1.00
H300   H     0.31655   0.33468   0.01685   0.00000  Uiso   1.00
H301   H     0.25900   0.33917   0.04482   0.00000  Uiso   1.00
O302   O     0.10649   0.44276   0.27900   0.00000  Uiso   1.00
C303   C     0.05196   0.45080   0.27468   0.00000  Uiso   1.00
H304   H     0.03696   0.44889   0.23790   0.00000  Uiso   1.00
H305   H     0.04193   0.48223   0.28740   0.00000  Uiso   1.00
C306   C     0.02292   0.41705   0.29766   0.00000  Uiso   1.00
H307   H     0.02917   0.38641   0.28170   0.00000  Uiso   1.00
H308   H     0.03821   0.41567   0.00103   0.00000  Uiso   1.00
C309   C     0.29738   0.42567   0.29241   0.00000  Uiso   1.00
H310   H     0.28986   0.45642   0.30767   0.00000  Uiso   1.00
H311   H     0.27713   0.40137   0.31005   0.00000  Uiso   1.00
H312   H     0.28073   0.42530   0.25579   0.00000  Uiso   1.00
C313   C     0.49958   0.42009   0.16652   0.00000  Uiso   1.00
C314   C     0.49860   0.58007   0.16691   0.00000  Uiso   1.00
C315   C     0.40049   0.50075   0.15488   0.00000  Uiso   1.00
C316   C     0.59944   0.50177   0.17834   0.00000  Uiso   1.00
C317   C     0.34554   0.50029   0.14831   0.00000  Uiso   1.00
C318   C     0.65408   0.50681   0.18406   0.00000  Uiso   1.00
C319   C     0.46862   0.35420   0.12912   0.00000  Uiso   1.00
C320   C     0.51043   0.64677   0.20855   0.00000  Uiso   1.00
C321   C     0.47288   0.64474   0.12841   0.00000  Uiso   1.00
C322   C     0.51511   0.35579   0.20651   0.00000  Uiso   1.00
C323   C     0.49485   0.62437   0.16782   0.00000  Uiso   1.00
C324   C     0.49530   0.37611   0.16663   0.00000  Uiso   1.00
C325   C     0.53306   0.52598   0.02833   0.00000  Uiso   1.00
C326   C     0.46794   0.47320   0.30543   0.00000  Uiso   1.00
C327   C     0.53315   0.52554   0.31346   0.00000  Uiso   1.00
C328   C     0.46815   0.47348   0.02014   0.00000  Uiso   1.00
H329   H     0.65900   0.49276   0.11439   0.00000  Uiso   1.00
H330   H     0.34057   0.51560   0.21754   0.00000  Uiso   1.00
H331   H     0.45584   0.62741   0.09841   0.00000  Uiso   1.00
H332   H     0.53197   0.37276   0.23687   0.00000  Uiso   1.00
H333   H     0.56008   0.54529   0.29829   0.00000  Uiso   1.00
H334   H     0.44386   0.45173   0.03563   0.00000  Uiso   1.00
N335   N     0.49999   0.49999   0.28573   0.00000  Uiso   1.00
N336   N     0.50001   0.50001   0.04760   0.00000  Uiso   1.00
O337   O     0.50000   0.43892   0.20487   0.00000  Uiso   1.00
O338   O     0.50000   0.56108   0.12846   0.00000  Uiso   1.00
O339   O     0.50000   0.43893   0.12843   0.00000  Uiso   1.00
O340   O     0.50000   0.56107   0.20490   0.00000  Uiso   1.00
O341   O     0.42392   0.50000   0.19595   0.00000  Uiso   1.00
O342   O     0.57608   0.50000   0.13739   0.00000  Uiso   1.00
O343   O     0.42392   0.50000   0.11950   0.00000  Uiso   1.00
O344   O     0.57608   0.50000   0.21383   0.00000  Uiso   1.00
Zn345  Zn    0.50000   0.49999   0.21771   0.00000  Uiso   1.00
Zn346  Zn    0.50000   0.50001   0.11563   0.00000  Uiso   1.00
O347   O     0.43704   0.37339   0.09385   0.00000  Uiso   1.00
C348   C     0.39154   0.39022   0.10956   0.00000  Uiso   1.00
H349   H     0.36888   0.40647   0.08051   0.00000  Uiso   1.00
H350   H     0.40147   0.41421   0.13652   0.00000  Uiso   1.00
C351   C     0.35576   0.35692   0.12664   0.00000  Uiso   1.00
H352   H     0.34735   0.66548   0.10042   0.00000  Uiso   1.00
H353   H     0.37574   0.34255   0.15822   0.00000  Uiso   1.00
C354   C     0.63766   0.37577   0.13736   0.00000  Uiso   1.00
H355   H     0.61206   0.35083   0.14823   0.00000  Uiso   1.00
H356   H     0.61659   0.39105   0.10682   0.00000  Uiso   1.00
H357   H     0.64556   0.39916   0.16537   0.00000  Uiso   1.00
O358   O     0.52032   0.62794   0.25054   0.00000  Uiso   1.00
C359   C     0.47198   0.62228   0.26805   0.00000  Uiso   1.00
H360   H     0.47476   0.59326   0.28802   0.00000  Uiso   1.00
H361   H     0.43748   0.61744   0.24118   0.00000  Uiso   1.00
C362   C     0.46127   0.65866   0.29916   0.00000  Uiso   1.00
H363   H     0.49658   0.66583   0.32390   0.00000  Uiso   1.00
H364   H     0.45132   0.35344   0.27837   0.00000  Uiso   1.00
C365   C     0.41587   0.64822   0.32536   0.00000  Uiso   1.00
H366   H     0.37977   0.64136   0.30130   0.00000  Uiso   1.00
H367   H     0.40850   0.34180   0.01386   0.00000  Uiso   1.00
H368   H     0.42546   0.62082   0.01409   0.00000  Uiso   1.00
O369   O     0.56969   0.54919   0.05679   0.00000  Uiso   1.00
C370   C     0.56502   0.59221   0.04743   0.00000  Uiso   1.00
H371   H     0.55941   0.60859   0.07959   0.00000  Uiso   1.00
H372   H     0.53063   0.60041   0.02228   0.00000  Uiso   1.00
C373   C     0.61570   0.60863   0.03205   0.00000  Uiso   1.00
H374   H     0.64845   0.60485   0.06021   0.00000  Uiso   1.00
H375   H     0.62534   0.59037   0.00230   0.00000  Uiso   1.00
C376   C     0.61066   0.65444   0.01906   0.00000  Uiso   1.00
H377   H     0.58660   0.65751   0.31867   0.00000  Uiso   1.00
H378   H     0.64988   0.33468   0.01685   0.00000  Uiso   1.00
H379   H     0.59234   0.33917   0.04482   0.00000  Uiso   1.00
O380   O     0.43983   0.44276   0.27900   0.00000  Uiso   1.00
C381   C     0.38529   0.45080   0.27468   0.00000  Uiso   1.00
H382   H     0.37030   0.44889   0.23790   0.00000  Uiso   1.00
H383   H     0.37526   0.48223   0.28740   0.00000  Uiso   1.00
C384   C     0.35626   0.41705   0.29766   0.00000  Uiso   1.00
H385   H     0.36251   0.38641   0.28170   0.00000  Uiso   1.00
H386   H     0.37154   0.41567   0.00103   0.00000  Uiso   1.00
C387   C     0.63071   0.42567   0.29241   0.00000  Uiso   1.00
H388   H     0.62319   0.45642   0.30767   0.00000  Uiso   1.00
H389   H     0.61047   0.40137   0.31005   0.00000  Uiso   1.00
H390   H     0.61406   0.42530   0.25579   0.00000  Uiso   1.00
C391   C     0.83291   0.42009   0.16652   0.00000  Uiso   1.00
C392   C     0.83194   0.58007   0.16691   0.00000  Uiso   1.00
C393   C     0.73382   0.50075   0.15488   0.00000  Uiso   1.00
C394   C     0.93277   0.50177   0.17834   0.00000  Uiso   1.00
C395   C     0.67887   0.50029   0.14831   0.00000  Uiso   1.00
C396   C     0.98742   0.50681   0.18406   0.00000  Uiso   1.00
C397   C     0.80195   0.35420   0.12912   0.00000  Uiso   1.00
C398   C     0.84377   0.64677   0.20855   0.00000  Uiso   1.00
C399   C     0.80621   0.64474   0.12841   0.00000  Uiso   1.00
C400   C     0.84844   0.35579   0.20651   0.00000  Uiso   1.00
C401   C     0.82819   0.62437   0.16782   0.00000  Uiso   1.00
C402   C     0.82864   0.37611   0.16663   0.00000  Uiso   1.00
C403   C     0.86639   0.52598   0.02833   0.00000  Uiso   1.00
C404   C     0.80127   0.47320   0.30543   0.00000  Uiso   1.00
C405   C     0.86648   0.52554   0.31346   0.00000  Uiso   1.00
C406   C     0.80148   0.47348   0.02014   0.00000  Uiso   1.00
H407   H     0.99233   0.49276   0.11439   0.00000  Uiso   1.00
H408   H     0.67390   0.51560   0.21754   0.00000  Uiso   1.00
H409   H     0.78917   0.62741   0.09841   0.00000  Uiso   1.00
H410   H     0.86531   0.37276   0.23687   0.00000  Uiso   1.00
H411   H     0.89341   0.54529   0.29829   0.00000  Uiso   1.00
H412   H     0.77720   0.45173   0.03563   0.00000  Uiso   1.00
N413   N     0.83332   0.49999   0.28573   0.00000  Uiso   1.00
N414   N     0.83335   0.50001   0.04760   0.00000  Uiso   1.00
O415   O     0.83333   0.43892   0.20487   0.00000  Uiso   1.00
O416   O     0.83334   0.56108   0.12846   0.00000  Uiso   1.00
O417   O     0.83333   0.43893   0.12843   0.00000  Uiso   1.00
O418   O     0.83334   0.56107   0.20490   0.00000  Uiso   1.00
O419   O     0.75725   0.50000   0.19595   0.00000  Uiso   1.00
O420   O     0.90942   0.50000   0.13739   0.00000  Uiso   1.00
O421   O     0.75725   0.50000   0.11950   0.00000  Uiso   1.00
O422   O     0.90942   0.50000   0.21383   0.00000  Uiso   1.00
Zn423  Zn    0.83333   0.49999   0.21771   0.00000  Uiso   1.00
Zn424  Zn    0.83333   0.50001   0.11563   0.00000  Uiso   1.00
O425   O     0.77038   0.37339   0.09385   0.00000  Uiso   1.00
C426   C     0.72487   0.39022   0.10956   0.00000  Uiso   1.00
H427   H     0.70221   0.40647   0.08051   0.00000  Uiso   1.00
H428   H     0.73481   0.41421   0.13652   0.00000  Uiso   1.00
C429   C     0.68909   0.35692   0.12664   0.00000  Uiso   1.00
H430   H     0.68069   0.66548   0.10042   0.00000  Uiso   1.00
H431   H     0.70907   0.34255   0.15822   0.00000  Uiso   1.00
C432   C     0.97100   0.37577   0.13736   0.00000  Uiso   1.00
H433   H     0.94539   0.35083   0.14823   0.00000  Uiso   1.00
H434   H     0.94993   0.39105   0.10682   0.00000  Uiso   1.00
H435   H     0.97890   0.39916   0.16537   0.00000  Uiso   1.00
O436   O     0.85365   0.62794   0.25054   0.00000  Uiso   1.00
C437   C     0.80531   0.62228   0.26805   0.00000  Uiso   1.00
H438   H     0.80809   0.59326   0.28802   0.00000  Uiso   1.00
H439   H     0.77081   0.61744   0.24118   0.00000  Uiso   1.00
C440   C     0.79460   0.65866   0.29916   0.00000  Uiso   1.00
H441   H     0.82991   0.66583   0.32390   0.00000  Uiso   1.00
H442   H     0.78466   0.35344   0.27837   0.00000  Uiso   1.00
C443   C     0.74920   0.64822   0.32536   0.00000  Uiso   1.00
H444   H     0.71310   0.64136   0.30130   0.00000  Uiso   1.00
H445   H     0.74183   0.34180   0.01386   0.00000  Uiso   1.00
H446   H     0.75879   0.62082   0.01409   0.00000  Uiso   1.00
O447   O     0.90302   0.54919   0.05679   0.00000  Uiso   1.00
C448   C     0.89835   0.59221   0.04743   0.00000  Uiso   1.00
H449   H     0.89275   0.60859   0.07959   0.00000  Uiso   1.00
H450   H     0.86397   0.60041   0.02228   0.00000  Uiso   1.00
C451   C     0.94903   0.60863   0.03205   0.00000  Uiso   1.00
H452   H     0.98178   0.60485   0.06021   0.00000  Uiso   1.00
H453   H     0.95867   0.59037   0.00230   0.00000  Uiso   1.00
C454   C     0.94399   0.65444   0.01906   0.00000  Uiso   1.00
H455   H     0.91993   0.65751   0.31867   0.00000  Uiso   1.00
H456   H     0.98322   0.33468   0.01685   0.00000  Uiso   1.00
H457   H     0.92567   0.33917   0.04482   0.00000  Uiso   1.00
O458   O     0.77316   0.44276   0.27900   0.00000  Uiso   1.00
C459   C     0.71863   0.45080   0.27468   0.00000  Uiso   1.00
H460   H     0.70363   0.44889   0.23790   0.00000  Uiso   1.00
H461   H     0.70859   0.48223   0.28740   0.00000  Uiso   1.00
C462   C     0.68959   0.41705   0.29766   0.00000  Uiso   1.00
H463   H     0.69584   0.38641   0.28170   0.00000  Uiso   1.00
H464   H     0.70488   0.41567   0.00103   0.00000  Uiso   1.00
C465   C     0.96404   0.42567   0.29241   0.00000  Uiso   1.00
H466   H     0.95652   0.45642   0.30767   0.00000  Uiso   1.00
H467   H     0.94380   0.40137   0.31005   0.00000  Uiso   1.00
H468   H     0.94739   0.42530   0.25579   0.00000  Uiso   1.00
C469   C     0.16624   0.75342   0.16652   0.00000  Uiso   1.00
C470   C     0.16527   0.91341   0.16691   0.00000  Uiso   1.00
C471   C     0.06715   0.83409   0.15488   0.00000  Uiso   1.00
C472   C     0.26611   0.83510   0.17834   0.00000  Uiso   1.00
C473   C     0.01221   0.83362   0.14831   0.00000  Uiso   1.00
C474   C     0.32075   0.84014   0.18406   0.00000  Uiso   1.00
C475   C     0.13529   0.68753   0.12912   0.00000  Uiso   1.00
C476   C     0.17710   0.98011   0.20855   0.00000  Uiso   1.00
C477   C     0.13954   0.97807   0.12841   0.00000  Uiso   1.00
C478   C     0.18178   0.68913   0.20651   0.00000  Uiso   1.00
C479   C     0.16152   0.95771   0.16782   0.00000  Uiso   1.00
C480   C     0.16197   0.70945   0.16663   0.00000  Uiso   1.00
C481   C     0.19973   0.85931   0.02833   0.00000  Uiso   1.00
C482   C     0.13461   0.80654   0.30543   0.00000  Uiso   1.00
C483   C     0.19982   0.85887   0.31346   0.00000  Uiso   1.00
C484   C     0.13482   0.80681   0.02014   0.00000  Uiso   1.00
H485   H     0.32566   0.82609   0.11439   0.00000  Uiso   1.00
H486   H     0.00724   0.84894   0.21754   0.00000  Uiso   1.00
H487   H     0.12250   0.96074   0.09841   0.00000  Uiso   1.00
H488   H     0.19864   0.70609   0.23687   0.00000  Uiso   1.00
H489   H     0.22675   0.87863   0.29829   0.00000  Uiso   1.00
H490   H     0.11053   0.78506   0.03563   0.00000  Uiso   1.00
N491   N     0.16665   0.83332   0.28573   0.00000  Uiso   1.00
N492   N     0.16668   0.83334   0.04760   0.00000  Uiso   1.00
O493   O     0.16666   0.77225   0.20487   0.00000  Uiso   1.00
O494   O     0.16667   0.89442   0.12846   0.00000  Uiso   1.00
O495   O     0.16666   0.77226   0.12843   0.00000  Uiso   1.00
O496   O     0.16667   0.89441   0.20490   0.00000  Uiso   1.00
O497   O     0.09058   0.83333   0.19595   0.00000  Uiso   1.00
O498   O     0.24275   0.83334   0.13739   0.00000  Uiso   1.00
O499   O     0.09058   0.83334   0.11950   0.00000  Uiso   1.00
O500   O     0.24275   0.83333   0.21383   0.00000  Uiso   1.00
Zn501  Zn    0.16667   0.83333   0.21771   0.00000  Uiso   1.00
Zn502  Zn    0.16667   0.83334   0.11563   0.00000  Uiso   1.00
O503   O     0.10371   0.70672   0.09385   0.00000  Uiso   1.00
C504   C     0.05820   0.72355   0.10956   0.00000  Uiso   1.00
H505   H     0.03555   0.73981   0.08051   0.00000  Uiso   1.00
H506   H     0.06814   0.74755   0.13652   0.00000  Uiso   1.00
C507   C     0.02243   0.69026   0.12664   0.00000  Uiso   1.00
H508   H     0.01402   0.99881   0.10042   0.00000  Uiso   1.00
H509   H     0.04241   0.67588   0.15822   0.00000  Uiso   1.00
C510   C     0.30433   0.70910   0.13736   0.00000  Uiso   1.00
H511   H     0.27873   0.68417   0.14823   0.00000  Uiso   1.00
H512   H     0.28326   0.72438   0.10682   0.00000  Uiso   1.00
H513   H     0.31223   0.73249   0.16537   0.00000  Uiso   1.00
O514   O     0.18698   0.96128   0.25054   0.00000  Uiso   1.00
C515   C     0.13865   0.95561   0.26805   0.00000  Uiso   1.00
H516   H     0.14142   0.92659   0.28802   0.00000  Uiso   1.00
H517   H     0.10415   0.95078   0.24118   0.00000  Uiso   1.00
C518   C     0.12793   0.99199   0.29916   0.00000  Uiso   1.00
H519   H     0.16325   0.99916   0.32390   0.00000  Uiso   1.00
H520   H     0.11799   0.68677   0.27837   0.00000  Uiso   1.00
C521   C     0.08253   0.98155   0.32536   0.00000  Uiso   1.00
H522   H     0.04643   0.97470   0.30130   0.00000  Uiso   1.00
H523   H     0.07516   0.67514   0.01386   0.00000  Uiso   1.00
H524   H     0.09213   0.95416   0.01409   0.00000  Uiso   1.00
O525   O     0.23636   0.88252   0.05679   0.00000  Uiso   1.00
C526   C     0.23169   0.92554   0.04743   0.00000  Uiso   1.00
H527   H     0.22608   0.94193   0.07959   0.00000  Uiso   1.00
H528   H     0.19730   0.93374   0.02228   0.00000  Uiso   1.00
C529   C     0.28237   0.94196   0.03205   0.00000  Uiso   1.00
H530   H     0.31512   0.93819   0.06021   0.00000  Uiso   1.00
H531   H     0.29200   0.92370   0.00230   0.00000  Uiso   1.00
C532   C     0.27732   0.98777   0.01906   0.00000  Uiso   1.00
H533   H     0.25326   0.99084   0.31867   0.00000  Uiso   1.00
H534   H     0.31655   0.66801   0.01685   0.00000  Uiso   1.00
H535   H     0.25900   0.67250   0.04482   0.00000  Uiso   1.00
O536   O     0.10649   0.77609   0.27900   0.00000  Uiso   1.00
C537   C     0.05196   0.78413   0.27468   0.00000  Uiso   1.00
H538   H     0.03696   0.78223   0.23790   0.00000  Uiso   1.00
H539   H     0.04193   0.81556   0.28740   0.00000  Uiso   1.00
C540   C     0.02292   0.75039   0.29766   0.00000  Uiso   1.00
H541   H     0.02917   0.71974   0.28170   0.00000  Uiso   1.00
H542   H     0.03821   0.74901   0.00103   0.00000  Uiso   1.00
C543   C     0.29738   0.75900   0.29241   0.00000  Uiso   1.00
H544   H     0.28986   0.78975   0.30767   0.00000  Uiso   1.00
H545   H     0.27713   0.73471   0.31005   0.00000  Uiso   1.00
H546   H     0.28073   0.75863   0.25579   0.00000  Uiso   1.00
C547   C     0.49958   0.75342   0.16652   0.00000  Uiso   1.00
C548   C     0.49860   0.91341   0.16691   0.00000  Uiso   1.00
C549   C     0.40049   0.83409   0.15488   0.00000  Uiso   1.00
C550   C     0.59944   0.83510   0.17834   0.00000  Uiso   1.00
C551   C     0.34554   0.83362   0.14831   0.00000  Uiso   1.00
C552   C     0.65408   0.84014   0.18406   0.00000  Uiso   1.00
C553   C     0.46862   0.68753   0.12912   0.00000  Uiso   1.00
C554   C     0.51043   0.98011   0.20855   0.00000  Uiso   1.00
C555   C     0.47288   0.97807   0.12841   0.00000  Uiso   1.00
C556   C     0.51511   0.68913   0.20651   0.00000  Uiso   1.00
C557   C     0.49485   0.95771   0.16782   0.00000  Uiso   1.00
C558   C     0.49530   0.70945   0.16663   0.00000  Uiso   1.00
C559   C     0.53306   0.85931   0.02833   0.00000  Uiso   1.00
C560   C     0.46794   0.80654   0.30543   0.00000  Uiso   1.00
C561   C     0.53315   0.85887   0.31346   0.00000  Uiso   1.00
C562   C     0.46815   0.80681   0.02014   0.00000  Uiso   1.00
H563   H     0.65900   0.82609   0.11439   0.00000  Uiso   1.00
H564   H     0.34057   0.84894   0.21754   0.00000  Uiso   1.00
H565   H     0.45584   0.96074   0.09841   0.00000  Uiso   1.00
H566   H     0.53197   0.70609   0.23687   0.00000  Uiso   1.00
H567   H     0.56008   0.87863   0.29829   0.00000  Uiso   1.00
H568   H     0.44386   0.78506   0.03563   0.00000  Uiso   1.00
N569   N     0.49999   0.83332   0.28573   0.00000  Uiso   1.00
N570   N     0.50001   0.83334   0.04760   0.00000  Uiso   1.00
O571   O     0.50000   0.77225   0.20487   0.00000  Uiso   1.00
O572   O     0.50000   0.89442   0.12846   0.00000  Uiso   1.00
O573   O     0.50000   0.77226   0.12843   0.00000  Uiso   1.00
O574   O     0.50000   0.89441   0.20490   0.00000  Uiso   1.00
O575   O     0.42392   0.83333   0.19595   0.00000  Uiso   1.00
O576   O     0.57608   0.83334   0.13739   0.00000  Uiso   1.00
O577   O     0.42392   0.83334   0.11950   0.00000  Uiso   1.00
O578   O     0.57608   0.83333   0.21383   0.00000  Uiso   1.00
Zn579  Zn    0.50000   0.83333   0.21771   0.00000  Uiso   1.00
Zn580  Zn    0.50000   0.83334   0.11563   0.00000  Uiso   1.00
O581   O     0.43704   0.70672   0.09385   0.00000  Uiso   1.00
C582   C     0.39154   0.72355   0.10956   0.00000  Uiso   1.00
H583   H     0.36888   0.73981   0.08051   0.00000  Uiso   1.00
H584   H     0.40147   0.74755   0.13652   0.00000  Uiso   1.00
C585   C     0.35576   0.69026   0.12664   0.00000  Uiso   1.00
H586   H     0.34735   0.99881   0.10042   0.00000  Uiso   1.00
H587   H     0.37574   0.67588   0.15822   0.00000  Uiso   1.00
C588   C     0.63766   0.70910   0.13736   0.00000  Uiso   1.00
H589   H     0.61206   0.68417   0.14823   0.00000  Uiso   1.00
H590   H     0.61659   0.72438   0.10682   0.00000  Uiso   1.00
H591   H     0.64556   0.73249   0.16537   0.00000  Uiso   1.00
O592   O     0.52032   0.96128   0.25054   0.00000  Uiso   1.00
C593   C     0.47198   0.95561   0.26805   0.00000  Uiso   1.00
H594   H     0.47476   0.92659   0.28802   0.00000  Uiso   1.00
H595   H     0.43748   0.95078   0.24118   0.00000  Uiso   1.00
C596   C     0.46127   0.99199   0.29916   0.00000  Uiso   1.00
H597   H     0.49658   0.99916   0.32390   0.00000  Uiso   1.00
H598   H     0.45132   0.68677   0.27837   0.00000  Uiso   1.00
C599   C     0.41587   0.98155   0.32536   0.00000  Uiso   1.00
H600   H     0.37977   0.97470   0.30130   0.00000  Uiso   1.00
H601   H     0.40850   0.67514   0.01386   0.00000  Uiso   1.00
H602   H     0.42546   0.95416   0.01409   0.00000  Uiso   1.00
O603   O     0.56969   0.88252   0.05679   0.00000  Uiso   1.00
C604   C     0.56502   0.92554   0.04743   0.00000  Uiso   1.00
H605   H     0.55941   0.94193   0.07959   0.00000  Uiso   1.00
H606   H     0.53063   0.93374   0.02228   0.00000  Uiso   1.00
C607   C     0.61570   0.94196   0.03205   0.00000  Uiso   1.00
H608   H     0.64845   0.93819   0.06021   0.00000  Uiso   1.00
H609   H     0.62534   0.92370   0.00230   0.00000  Uiso   1.00
C610   C     0.61066   0.98777   0.01906   0.00000  Uiso   1.00
H611   H     0.58660   0.99084   0.31867   0.00000  Uiso   1.00
H612   H     0.64988   0.66801   0.01685   0.00000  Uiso   1.00
H613   H     0.59234   0.67250   0.04482   0.00000  Uiso   1.00
O614   O     0.43983   0.77609   0.27900   0.00000  Uiso   1.00
C615   C     0.38529   0.78413   0.27468   0.00000  Uiso   1.00
H616   H     0.37030   0.78223   0.23790   0.00000  Uiso   1.00
H617   H     0.37526   0.81556   0.28740   0.00000  Uiso   1.00
C618   C     0.35626   0.75039   0.29766   0.00000  Uiso   1.00
H619   H     0.36251   0.71974   0.28170   0.00000  Uiso   1.00
H620   H     0.37154   0.74901   0.00103   0.00000  Uiso   1.00
C621   C     0.63071   0.75900   0.29241   0.00000  Uiso   1.00
H622   H     0.62319   0.78975   0.30767   0.00000  Uiso   1.00
H623   H     0.61047   0.73471   0.31005   0.00000  Uiso   1.00
H624   H     0.61406   0.75863   0.25579   0.00000  Uiso   1.00
C625   C     0.83291   0.75342   0.16652   0.00000  Uiso   1.00
C626   C     0.83194   0.91341   0.16691   0.00000  Uiso   1.00
C627   C     0.73382   0.83409   0.15488   0.00000  Uiso   1.00
C628   C     0.93277   0.83510   0.17834   0.00000  Uiso   1.00
C629   C     0.67887   0.83362   0.14831   0.00000  Uiso   1.00
C630   C     0.98742   0.84014   0.18406   0.00000  Uiso   1.00
C631   C     0.80195   0.68753   0.12912   0.00000  Uiso   1.00
C632   C     0.84377   0.98011   0.20855   0.00000  Uiso   1.00
C633   C     0.80621   0.97807   0.12841   0.00000  Uiso   1.00
C634   C     0.84844   0.68913   0.20651   0.00000  Uiso   1.00
C635   C     0.82819   0.95771   0.16782   0.00000  Uiso   1.00
C636   C     0.82864   0.70945   0.16663   0.00000  Uiso   1.00
C637   C     0.86639   0.85931   0.02833   0.00000  Uiso   1.00
C638   C     0.80127   0.80654   0.30543   0.00000  Uiso   1.00
C639   C     0.86648   0.85887   0.31346   0.00000  Uiso   1.00
C640   C     0.80148   0.80681   0.02014   0.00000  Uiso   1.00
H641   H     0.99233   0.82609   0.11439   0.00000  Uiso   1.00
H642   H     0.67390   0.84894   0.21754   0.00000  Uiso   1.00
H643   H     0.78917   0.96074   0.09841   0.00000  Uiso   1.00
H644   H     0.86531   0.70609   0.23687   0.00000  Uiso   1.00
H645   H     0.89341   0.87863   0.29829   0.00000  Uiso   1.00
H646   H     0.77720   0.78506   0.03563   0.00000  Uiso   1.00
N647   N     0.83332   0.83332   0.28573   0.00000  Uiso   1.00
N648   N     0.83335   0.83334   0.04760   0.00000  Uiso   1.00
O649   O     0.83333   0.77225   0.20487   0.00000  Uiso   1.00
O650   O     0.83334   0.89442   0.12846   0.00000  Uiso   1.00
O651   O     0.83333   0.77226   0.12843   0.00000  Uiso   1.00
O652   O     0.83334   0.89441   0.20490   0.00000  Uiso   1.00
O653   O     0.75725   0.83333   0.19595   0.00000  Uiso   1.00
O654   O     0.90942   0.83334   0.13739   0.00000  Uiso   1.00
O655   O     0.75725   0.83334   0.11950   0.00000  Uiso   1.00
O656   O     0.90942   0.83333   0.21383   0.00000  Uiso   1.00
Zn657  Zn    0.83333   0.83333   0.21771   0.00000  Uiso   1.00
Zn658  Zn    0.83333   0.83334   0.11563   0.00000  Uiso   1.00
O659   O     0.77038   0.70672   0.09385   0.00000  Uiso   1.00
C660   C     0.72487   0.72355   0.10956   0.00000  Uiso   1.00
H661   H     0.70221   0.73981   0.08051   0.00000  Uiso   1.00
H662   H     0.73481   0.74755   0.13652   0.00000  Uiso   1.00
C663   C     0.68909   0.69026   0.12664   0.00000  Uiso   1.00
H664   H     0.68069   0.99881   0.10042   0.00000  Uiso   1.00
H665   H     0.70907   0.67588   0.15822   0.00000  Uiso   1.00
C666   C     0.97100   0.70910   0.13736   0.00000  Uiso   1.00
H667   H     0.94539   0.68417   0.14823   0.00000  Uiso   1.00
H668   H     0.94993   0.72438   0.10682   0.00000  Uiso   1.00
H669   H     0.97890   0.73249   0.16537   0.00000  Uiso   1.00
O670   O     0.85365   0.96128   0.25054   0.00000  Uiso   1.00
C671   C     0.80531   0.95561   0.26805   0.00000  Uiso   1.00
H672   H     0.80809   0.92659   0.28802   0.00000  Uiso   1.00
H673   H     0.77081   0.95078   0.24118   0.00000  Uiso   1.00
C674   C     0.79460   0.99199   0.29916   0.00000  Uiso   1.00
H675   H     0.82991   0.99916   0.32390   0.00000  Uiso   1.00
H676   H     0.78466   0.68677   0.27837   0.00000  Uiso   1.00
C677   C     0.74920   0.98155   0.32536   0.00000  Uiso   1.00
H678   H     0.71310   0.97470   0.30130   0.00000  Uiso   1.00
H679   H     0.74183   0.67514   0.01386   0.00000  Uiso   1.00
H680   H     0.75879   0.95416   0.01409   0.00000  Uiso   1.00
O681   O     0.90302   0.88252   0.05679   0.00000  Uiso   1.00
C682   C     0.89835   0.92554   0.04743   0.00000  Uiso   1.00
H683   H     0.89275   0.94193   0.07959   0.00000  Uiso   1.00
H684   H     0.86397   0.93374   0.02228   0.00000  Uiso   1.00
C685   C     0.94903   0.94196   0.03205   0.00000  Uiso   1.00
H686   H     0.98178   0.93819   0.06021   0.00000  Uiso   1.00
H687   H     0.95867   0.92370   0.00230   0.00000  Uiso   1.00
C688   C     0.94399   0.98777   0.01906   0.00000  Uiso   1.00
H689   H     0.91993   0.99084   0.31867   0.00000  Uiso   1.00
H690   H     0.98322   0.66801   0.01685   0.00000  Uiso   1.00
H691   H     0.92567   0.67250   0.04482   0.00000  Uiso   1.00
O692   O     0.77316   0.77609   0.27900   0.00000  Uiso   1.00
C693   C     0.71863   0.78413   0.27468   0.00000  Uiso   1.00
H694   H     0.70363   0.78223   0.23790   0.00000  Uiso   1.00
H695   H     0.70859   0.81556   0.28740   0.00000  Uiso   1.00
C696   C     0.68959   0.75039   0.29766   0.00000  Uiso   1.00
H697   H     0.69584   0.71974   0.28170   0.00000  Uiso   1.00
H698   H     0.70488   0.74901   0.00103   0.00000  Uiso   1.00
C699   C     0.96404   0.75900   0.29241   0.00000  Uiso   1.00
H700   H     0.95652   0.78975   0.30767   0.00000  Uiso   1.00
H701   H     0.94380   0.73471   0.31005   0.00000  Uiso   1.00
H702   H     0.94739   0.75863   0.25579   0.00000  Uiso   1.00
C703   C     0.16624   0.08675   0.49985   0.00000  Uiso   1.00
C704   C     0.16527   0.24674   0.50024   0.00000  Uiso   1.00
C705   C     0.06715   0.16742   0.48821   0.00000  Uiso   1.00
C706   C     0.26611   0.16843   0.51167   0.00000  Uiso   1.00
C707   C     0.01221   0.16696   0.48164   0.00000  Uiso   1.00
C708   C     0.32075   0.17348   0.51740   0.00000  Uiso   1.00
C709   C     0.13529   0.02086   0.46246   0.00000  Uiso   1.00
C710   C     0.17710   0.31344   0.54188   0.00000  Uiso   1.00
C711   C     0.13954   0.31141   0.46174   0.00000  Uiso   1.00
C712   C     0.18178   0.02246   0.53984   0.00000  Uiso   1.00
C713   C     0.16152   0.29104   0.50116   0.00000  Uiso   1.00
C714   C     0.16197   0.04278   0.49997   0.00000  Uiso   1.00
C715   C     0.19973   0.19265   0.36166   0.00000  Uiso   1.00
C716   C     0.13461   0.13987   0.63876   0.00000  Uiso   1.00
C717   C     0.19982   0.19221   0.64679   0.00000  Uiso   1.00
C718   C     0.13482   0.14015   0.35347   0.00000  Uiso   1.00
H719   H     0.32566   0.15943   0.44772   0.00000  Uiso   1.00
H720   H     0.00724   0.18227   0.55087   0.00000  Uiso   1.00
H721   H     0.12250   0.29408   0.43175   0.00000  Uiso   1.00
H722   H     0.19864   0.03942   0.57020   0.00000  Uiso   1.00
H723   H     0.22675   0.21196   0.63162   0.00000  Uiso   1.00
H724   H     0.11053   0.11839   0.36896   0.00000  Uiso   1.00
N725   N     0.16665   0.16666   0.61907   0.00000  Uiso   1.00
N726   N     0.16668   0.16668   0.38093   0.00000  Uiso   1.00
O727   O     0.16666   0.10558   0.53821   0.00000  Uiso   1.00
O728   O     0.16667   0.22775   0.46179   0.00000  Uiso   1.00
O729   O     0.16666   0.10559   0.46176   0.00000  Uiso   1.00
O730   O     0.16667   0.22774   0.53824   0.00000  Uiso   1.00
O731   O     0.09058   0.16666   0.52928   0.00000  Uiso   1.00
O732   O     0.24275   0.16667   0.47072   0.00000  Uiso   1.00
O733   O     0.09058   0.16667   0.45284   0.00000  Uiso   1.00
O734   O     0.24275   0.16666   0.54716   0.00000  Uiso   1.00
Zn735  Zn    0.16667   0.16666   0.55104   0.00000  Uiso   1.00
Zn736  Zn    0.16667   0.16667   0.44896   0.00000  Uiso   1.00
O737   O     0.10371   0.04006   0.42718   0.00000  Uiso   1.00
C738   C     0.05820   0.05689   0.44290   0.00000  Uiso   1.00
H739   H     0.03555   0.07314   0.41384   0.00000  Uiso   1.00
H740   H     0.06814   0.08088   0.46985   0.00000  Uiso   1.00
C741   C     0.02243   0.02359   0.45997   0.00000  Uiso   1.00
H742   H     0.01402   0.33215   0.43376   0.00000  Uiso   1.00
H743   H     0.04241   0.00921   0.49155   0.00000  Uiso   1.00
C744   C     0.30433   0.04243   0.47069   0.00000  Uiso   1.00
H745   H     0.27873   0.01750   0.48156   0.00000  Uiso   1.00
H746   H     0.28326   0.05771   0.44016   0.00000  Uiso   1.00
H747   H     0.31223   0.06583   0.49871   0.00000  Uiso   1.00
O748   O     0.18698   0.29461   0.58388   0.00000  Uiso   1.00
C749   C     0.13865   0.28895   0.60139   0.00000  Uiso   1.00
H750   H     0.14142   0.25993   0.62136   0.00000  Uiso   1.00
H751   H     0.10415   0.28411   0.57451   0.00000  Uiso   1.00
C752   C     0.12793   0.32532   0.63250   0.00000  Uiso   1.00
H753   H     0.16325   0.33249   0.65723   0.00000  Uiso   1.00
H754   H     0.11799   0.02011   0.61170   0.00000  Uiso   1.00
C755   C     0.08253   0.31489   0.65870   0.00000  Uiso   1.00
H756   H     0.04643   0.30803   0.63464   0.00000  Uiso   1.00
H757   H     0.07516   0.00847   0.34719   0.00000  Uiso   1.00
H758   H     0.09213   0.28749   0.34743   0.00000  Uiso   1.00
O759   O     0.23636   0.21585   0.39012   0.00000  Uiso   1.00
C760   C     0.23169   0.25888   0.38076   0.00000  Uiso   1.00
H761   H     0.22608   0.27526   0.41292   0.00000  Uiso   1.00
H762   H     0.19730   0.26708   0.35561   0.00000  Uiso   1.00
C763   C     0.28237   0.27529   0.36538   0.00000  Uiso   1.00
H764   H     0.31512   0.27152   0.39354   0.00000  Uiso   1.00
H765   H     0.29200   0.25704   0.33563   0.00000  Uiso   1.00
C766   C     0.27732   0.32111   0.35240   0.00000  Uiso   1.00
H767   H     0.25326   0.32418   0.65200   0.00000  Uiso   1.00
H768   H     0.31655   0.00134   0.35018   0.00000  Uiso   1.00
H769   H     0.25900   0.00584   0.37815   0.00000  Uiso   1.00
O770   O     0.10649   0.10942   0.61233   0.00000  Uiso   1.00
C771   C     0.05196   0.11747   0.60801   0.00000  Uiso   1.00
H772   H     0.03696   0.11556   0.57124   0.00000  Uiso   1.00
H773   H     0.04193   0.14890   0.62074   0.00000  Uiso   1.00
C774   C     0.02292   0.08372   0.63100   0.00000  Uiso   1.00
H775   H     0.02917   0.05308   0.61503   0.00000  Uiso   1.00
H776   H     0.03821   0.08234   0.33436   0.00000  Uiso   1.00
C777   C     0.29738   0.09234   0.62574   0.00000  Uiso   1.00
H778   H     0.28986   0.12309   0.64100   0.00000  Uiso   1.00
H779   H     0.27713   0.06804   0.64338   0.00000  Uiso   1.00
H780   H     0.28073   0.09197   0.58913   0.00000  Uiso   1.00
C781   C     0.49958   0.08675   0.49985   0.00000  Uiso   1.00
C782   C     0.49860   0.24674   0.50024   0.00000  Uiso   1.00
C783   C     0.40049   0.16742   0.48821   0.00000  Uiso   1.00
C784   C     0.59944   0.16843   0.51167   0.00000  Uiso   1.00
C785   C     0.34554   0.16696   0.48164   0.00000  Uiso   1.00
C786   C     0.65408   0.17348   0.51740   0.00000  Uiso   1.00
C787   C     0.46862   0.02086   0.46246   0.00000  Uiso   1.00
C788   C     0.51043   0.31344   0.54188   0.00000  Uiso   1.00
C789   C     0.47288   0.31141   0.46174   0.00000  Uiso   1.00
C790   C     0.51511   0.02246   0.53984   0.00000  Uiso   1.00
C791   C     0.49485   0.29104   0.50116   0.00000  Uiso   1.00
C792   C     0.49530   0.04278   0.49997   0.00000  Uiso   1.00
C793   C     0.53306   0.19265   0.36166   0.00000  Uiso   1.00
C794   C     0.46794   0.13987   0.63876   0.00000  Uiso   1.00
C795   C     0.53315   0.19221   0.64679   0.00000  Uiso   1.00
C796   C     0.46815   0.14015   0.35347   0.00000  Uiso   1.00
H797   H     0.65900   0.15943   0.44772   0.00000  Uiso   1.00
H798   H     0.34057   0.18227   0.55087   0.00000  Uiso   1.00
H799   H     0.45584   0.29408   0.43175   0.00000  Uiso   1.00
H800   H     0.53197   0.03942   0.57020   0.00000  Uiso   1.00
H801   H     0.56008   0.21196   0.63162   0.00000  Uiso   1.00
H802   H     0.44386   0.11839   0.36896   0.00000  Uiso   1.00
N803   N     0.49999   0.16666   0.61907   0.00000  Uiso   1.00
N804   N     0.50001   0.16668   0.38093   0.00000  Uiso   1.00
O805   O     0.50000   0.10558   0.53821   0.00000  Uiso   1.00
O806   O     0.50000   0.22775   0.46179   0.00000  Uiso   1.00
O807   O     0.50000   0.10559   0.46176   0.00000  Uiso   1.00
O808   O     0.50000   0.22774   0.53824   0.00000  Uiso   1.00
O809   O     0.42392   0.16666   0.52928   0.00000  Uiso   1.00
O810   O     0.57608   0.16667   0.47072   0.00000  Uiso   1.00
O811   O     0.42392   0.16667   0.45284   0.00000  Uiso   1.00
O812   O     0.57608   0.16666   0.54716   0.00000  Uiso   1.00
Zn813  Zn    0.50000   0.16666   0.55104   0.00000  Uiso   1.00
Zn814  Zn    0.50000   0.16667   0.44896   0.00000  Uiso   1.00
O815   O     0.43704   0.04006   0.42718   0.00000  Uiso   1.00
C816   C     0.39154   0.05689   0.44290   0.00000  Uiso   1.00
H817   H     0.36888   0.07314   0.41384   0.00000  Uiso   1.00
H818   H     0.40147   0.08088   0.46985   0.00000  Uiso   1.00
C819   C     0.35576   0.02359   0.45997   0.00000  Uiso   1.00
H820   H     0.34735   0.33215   0.43376   0.00000  Uiso   1.00
H821   H     0.37574   0.00921   0.49155   0.00000  Uiso   1.00
C822   C     0.63766   0.04243   0.47069   0.00000  Uiso   1.00
H823   H     0.61206   0.01750   0.48156   0.00000  Uiso   1.00
H824   H     0.61659   0.05771   0.44016   0.00000  Uiso   1.00
H825   H     0.64556   0.06583   0.49871   0.00000  Uiso   1.00
O826   O     0.52032   0.29461   0.58388   0.00000  Uiso   1.00
C827   C     0.47198   0.28895   0.60139   0.00000  Uiso   1.00
H828   H     0.47476   0.25993   0.62136   0.00000  Uiso   1.00
H829   H     0.43748   0.28411   0.57451   0.00000  Uiso   1.00
C830   C     0.46127   0.32532   0.63250   0.00000  Uiso   1.00
H831   H     0.49658   0.33249   0.65723   0.00000  Uiso   1.00
H832   H     0.45132   0.02011   0.61170   0.00000  Uiso   1.00
C833   C     0.41587   0.31489   0.65870   0.00000  Uiso   1.00
H834   H     0.37977   0.30803   0.63464   0.00000  Uiso   1.00
H835   H     0.40850   0.00847   0.34719   0.00000  Uiso   1.00
H836   H     0.42546   0.28749   0.34743   0.00000  Uiso   1.00
O837   O     0.56969   0.21585   0.39012   0.00000  Uiso   1.00
C838   C     0.56502   0.25888   0.38076   0.00000  Uiso   1.00
H839   H     0.55941   0.27526   0.41292   0.00000  Uiso   1.00
H840   H     0.53063   0.26708   0.35561   0.00000  Uiso   1.00
C841   C     0.61570   0.27529   0.36538   0.00000  Uiso   1.00
H842   H     0.64845   0.27152   0.39354   0.00000  Uiso   1.00
H843   H     0.62534   0.25704   0.33563   0.00000  Uiso   1.00
C844   C     0.61066   0.32111   0.35240   0.00000  Uiso   1.00
H845   H     0.58660   0.32418   0.65200   0.00000  Uiso   1.00
H846   H     0.64988   0.00134   0.35018   0.00000  Uiso   1.00
H847   H     0.59234   0.00584   0.37815   0.00000  Uiso   1.00
O848   O     0.43983   0.10942   0.61233   0.00000  Uiso   1.00
C849   C     0.38529   0.11747   0.60801   0.00000  Uiso   1.00
H850   H     0.37030   0.11556   0.57124   0.00000  Uiso   1.00
H851   H     0.37526   0.14890   0.62074   0.00000  Uiso   1.00
C852   C     0.35626   0.08372   0.63100   0.00000  Uiso   1.00
H853   H     0.36251   0.05308   0.61503   0.00000  Uiso   1.00
H854   H     0.37154   0.08234   0.33436   0.00000  Uiso   1.00
C855   C     0.63071   0.09234   0.62574   0.00000  Uiso   1.00
H856   H     0.62319   0.12309   0.64100   0.00000  Uiso   1.00
H857   H     0.61047   0.06804   0.64338   0.00000  Uiso   1.00
H858   H     0.61406   0.09197   0.58913   0.00000  Uiso   1.00
C859   C     0.83291   0.08675   0.49985   0.00000  Uiso   1.00
C860   C     0.83194   0.24674   0.50024   0.00000  Uiso   1.00
C861   C     0.73382   0.16742   0.48821   0.00000  Uiso   1.00
C862   C     0.93277   0.16843   0.51167   0.00000  Uiso   1.00
C863   C     0.67887   0.16696   0.48164   0.00000  Uiso   1.00
C864   C     0.98742   0.17348   0.51740   0.00000  Uiso   1.00
C865   C     0.80195   0.02086   0.46246   0.00000  Uiso   1.00
C866   C     0.84377   0.31344   0.54188   0.00000  Uiso   1.00
C867   C     0.80621   0.31141   0.46174   0.00000  Uiso   1.00
C868   C     0.84844   0.02246   0.53984   0.00000  Uiso   1.00
C869   C     0.82819   0.29104   0.50116   0.00000  Uiso   1.00
C870   C     0.82864   0.04278   0.49997   0.00000  Uiso   1.00
C871   C     0.86639   0.19265   0.36166   0.00000  Uiso   1.00
C872   C     0.80127   0.13987   0.63876   0.00000  Uiso   1.00
C873   C     0.86648   0.19221   0.64679   0.00000  Uiso   1.00
C874   C     0.80148   0.14015   0.35347   0.00000  Uiso   1.00
H875   H     0.99233   0.15943   0.44772   0.00000  Uiso   1.00
H876   H     0.67390   0.18227   0.55087   0.00000  Uiso   1.00
H877   H     0.78917   0.29408   0.43175   0.00000  Uiso   1.00
H878   H     0.86531   0.03942   0.57020   0.00000  Uiso   1.00
H879   H     0.89341   0.21196   0.63162   0.00000  Uiso   1.00
H880   H     0.77720   0.11839   0.36896   0.00000  Uiso   1.00
N881   N     0.83332   0.16666   0.61907   0.00000  Uiso   1.00
N882   N     0.83335   0.16668   0.38093   0.00000  Uiso   1.00
O883   O     0.83333   0.10558   0.53821   0.00000  Uiso   1.00
O884   O     0.83334   0.22775   0.46179   0.00000  Uiso   1.00
O885   O     0.83333   0.10559   0.46176   0.00000  Uiso   1.00
O886   O     0.83334   0.22774   0.53824   0.00000  Uiso   1.00
O887   O     0.75725   0.16666   0.52928   0.00000  Uiso   1.00
O888   O     0.90942   0.16667   0.47072   0.00000  Uiso   1.00
O889   O     0.75725   0.16667   0.45284   0.00000  Uiso   1.00
O890   O     0.90942   0.16666   0.54716   0.00000  Uiso   1.00
Zn891  Zn    0.83333   0.16666   0.55104   0.00000  Uiso   1.00
Zn892  Zn    0.83333   0.16667   0.44896   0.00000  Uiso   1.00
O893   O     0.77038   0.04006   0.42718   0.00000  Uiso   1.00
C894   C     0.72487   0.05689   0.44290   0.00000  Uiso   1.00
H895   H     0.70221   0.07314   0.41384   0.00000  Uiso   1.00
H896   H     0.73481   0.08088   0.46985   0.00000  Uiso   1.00
C897   C     0.68909   0.02359   0.45997   0.00000  Uiso   1.00
H898   H     0.68069   0.33215   0.43376   0.00000  Uiso   1.00
H899   H     0.70907   0.00921   0.49155   0.00000  Uiso   1.00
C900   C     0.97100   0.04243   0.47069   0.00000  Uiso   1.00
H901   H     0.94539   0.01750   0.48156   0.00000  Uiso   1.00
H902   H     0.94993   0.05771   0.44016   0.00000  Uiso   1.00
H903   H     0.97890   0.06583   0.49871   0.00000  Uiso   1.00
O904   O     0.85365   0.29461   0.58388   0.00000  Uiso   1.00
C905   C     0.80531   0.28895   0.60139   0.00000  Uiso   1.00
H906   H     0.80809   0.25993   0.62136   0.00000  Uiso   1.00
H907   H     0.77081   0.28411   0.57451   0.00000  Uiso   1.00
C908   C     0.79460   0.32532   0.63250   0.00000  Uiso   1.00
H909   H     0.82991   0.33249   0.65723   0.00000  Uiso   1.00
H910   H     0.78466   0.02011   0.61170   0.00000  Uiso   1.00
C911   C     0.74920   0.31489   0.65870   0.00000  Uiso   1.00
H912   H     0.71310   0.30803   0.63464   0.00000  Uiso   1.00
H913   H     0.74183   0.00847   0.34719   0.00000  Uiso   1.00
H914   H     0.75879   0.28749   0.34743   0.00000  Uiso   1.00
O915   O     0.90302   0.21585   0.39012   0.00000  Uiso   1.00
C916   C     0.89835   0.25888   0.38076   0.00000  Uiso   1.00
H917   H     0.89275   0.27526   0.41292   0.00000  Uiso   1.00
H918   H     0.86397   0.26708   0.35561   0.00000  Uiso   1.00
C919   C     0.94903   0.27529   0.36538   0.00000  Uiso   1.00
H920   H     0.98178   0.27152   0.39354   0.00000  Uiso   1.00
H921   H     0.95867   0.25704   0.33563   0.00000  Uiso   1.00
C922   C     0.94399   0.32111   0.35240   0.00000  Uiso   1.00
H923   H     0.91993   0.32418   0.65200   0.00000  Uiso   1.00
H924   H     0.98322   0.00134   0.35018   0.00000  Uiso   1.00
H925   H     0.92567   0.00584   0.37815   0.00000  Uiso   1.00
O926   O     0.77316   0.10942   0.61233   0.00000  Uiso   1.00
C927   C     0.71863   0.11747   0.60801   0.00000  Uiso   1.00
H928   H     0.70363   0.11556   0.57124   0.00000  Uiso   1.00
H929   H     0.70859   0.14890   0.62074   0.00000  Uiso   1.00
C930   C     0.68959   0.08372   0.63100   0.00000  Uiso   1.00
H931   H     0.69584   0.05308   0.61503   0.00000  Uiso   1.00
H932   H     0.70488   0.08234   0.33436   0.00000  Uiso   1.00
C933   C     0.96404   0.09234   0.62574   0.00000  Uiso   1.00
H934   H     0.95652   0.12309   0.64100   0.00000  Uiso   1.00
H935   H     0.94380   0.06804   0.64338   0.00000  Uiso   1.00
H936   H     0.94739   0.09197   0.58913   0.00000  Uiso   1.00
C937   C     0.16624   0.42009   0.49985   0.00000  Uiso   1.00
C938   C     0.16527   0.58007   0.50024   0.00000  Uiso   1.00
C939   C     0.06715   0.50075   0.48821   0.00000  Uiso   1.00
C940   C     0.26611   0.50177   0.51167   0.00000  Uiso   1.00
C941   C     0.01221   0.50029   0.48164   0.00000  Uiso   1.00
C942   C     0.32075   0.50681   0.51740   0.00000  Uiso   1.00
C943   C     0.13529   0.35420   0.46246   0.00000  Uiso   1.00
C944   C     0.17710   0.64677   0.54188   0.00000  Uiso   1.00
C945   C     0.13954   0.64474   0.46174   0.00000  Uiso   1.00
C946   C     0.18178   0.35579   0.53984   0.00000  Uiso   1.00
C947   C     0.16152   0.62437   0.50116   0.00000  Uiso   1.00
C948   C     0.16197   0.37611   0.49997   0.00000  Uiso   1.00
C949   C     0.19973   0.52598   0.36166   0.00000  Uiso   1.00
C950   C     0.13461   0.47320   0.63876   0.00000  Uiso   1.00
C951   C     0.19982   0.52554   0.64679   0.00000  Uiso   1.00
C952   C     0.13482   0.47348   0.35347   0.00000  Uiso   1.00
H953   H     0.32566   0.49276   0.44772   0.00000  Uiso   1.00
H954   H     0.00724   0.51560   0.55087   0.00000  Uiso   1.00
H955   H     0.12250   0.62741   0.43175   0.00000  Uiso   1.00
H956   H     0.19864   0.37276   0.57020   0.00000  Uiso   1.00
H957   H     0.22675   0.54529   0.63162   0.00000  Uiso   1.00
H958   H     0.11053   0.45173   0.36896   0.00000  Uiso   1.00
N959   N     0.16665   0.49999   0.61907   0.00000  Uiso   1.00
N960   N     0.16668   0.50001   0.38093   0.00000  Uiso   1.00
O961   O     0.16666   0.43892   0.53821   0.00000  Uiso   1.00
O962   O     0.16667   0.56108   0.46179   0.00000  Uiso   1.00
O963   O     0.16666   0.43893   0.46176   0.00000  Uiso   1.00
O964   O     0.16667   0.56107   0.53824   0.00000  Uiso   1.00
O965   O     0.09058   0.50000   0.52928   0.00000  Uiso   1.00
O966   O     0.24275   0.50000   0.47072   0.00000  Uiso   1.00
O967   O     0.09058   0.50000   0.45284   0.00000  Uiso   1.00
O968   O     0.24275   0.50000   0.54716   0.00000  Uiso   1.00
Zn969  Zn    0.16667   0.49999   0.55104   0.00000  Uiso   1.00
Zn970  Zn    0.16667   0.50001   0.44896   0.00000  Uiso   1.00
O971   O     0.10371   0.37339   0.42718   0.00000  Uiso   1.00
C972   C     0.05820   0.39022   0.44290   0.00000  Uiso   1.00
H973   H     0.03555   0.40647   0.41384   0.00000  Uiso   1.00
H974   H     0.06814   0.41421   0.46985   0.00000  Uiso   1.00
C975   C     0.02243   0.35692   0.45997   0.00000  Uiso   1.00
H976   H     0.01402   0.66548   0.43376   0.00000  Uiso   1.00
H977   H     0.04241   0.34255   0.49155   0.00000  Uiso   1.00
C978   C     0.30433   0.37577   0.47069   0.00000  Uiso   1.00
H979   H     0.27873   0.35083   0.48156   0.00000  Uiso   1.00
H980   H     0.28326   0.39105   0.44016   0.00000  Uiso   1.00
H981   H     0.31223   0.39916   0.49871   0.00000  Uiso   1.00
O982   O     0.18698   0.62794   0.58388   0.00000  Uiso   1.00
C983   C     0.13865   0.62228   0.60139   0.00000  Uiso   1.00
H984   H     0.14142   0.59326   0.62136   0.00000  Uiso   1.00
H985   H     0.10415   0.61744   0.57451   0.00000  Uiso   1.00
C986   C     0.12793   0.65866   0.63250   0.00000  Uiso   1.00
H987   H     0.16325   0.66583   0.65723   0.00000  Uiso   1.00
H988   H     0.11799   0.35344   0.61170   0.00000  Uiso   1.00
C989   C     0.08253   0.64822   0.65870   0.00000  Uiso   1.00
H990   H     0.04643   0.64136   0.63464   0.00000  Uiso   1.00
H991   H     0.07516   0.34180   0.34719   0.00000  Uiso   1.00
H992   H     0.09213   0.62082   0.34743   0.00000  Uiso   1.00
O993   O     0.23636   0.54919   0.39012   0.00000  Uiso   1.00
C994   C     0.23169   0.59221   0.38076   0.00000  Uiso   1.00
H995   H     0.22608   0.60859   0.41292   0.00000  Uiso   1.00
H996   H     0.19730   0.60041   0.35561   0.00000  Uiso   1.00
C997   C     0.28237   0.60863   0.36538   0.00000  Uiso   1.00
H998   H     0.31512   0.60485   0.39354   0.00000  Uiso   1.00
H999   H     0.29200   0.59037   0.33563   0.00000  Uiso   1.00
C1000  C     0.27732   0.65444   0.35240   0.00000  Uiso   1.00
H1001  H     0.25326   0.65751   0.65200   0.00000  Uiso   1.00
H1002  H     0.31655   0.33468   0.35018   0.00000  Uiso   1.00
H1003  H     0.25900   0.33917   0.37815   0.00000  Uiso   1.00
O1004  O     0.10649   0.44276   0.61233   0.00000  Uiso   1.00
C1005  C     0.05196   0.45080   0.60801   0.00000  Uiso   1.00
H1006  H     0.03696   0.44889   0.57124   0.00000  Uiso   1.00
H1007  H     0.04193   0.48223   0.62074   0.00000  Uiso   1.00
C1008  C     0.02292   0.41705   0.63100   0.00000  Uiso   1.00
H1009  H     0.02917   0.38641   0.61503   0.00000  Uiso   1.00
H1010  H     0.03821   0.41567   0.33436   0.00000  Uiso   1.00
C1011  C     0.29738   0.42567   0.62574   0.00000  Uiso   1.00
H1012  H     0.28986   0.45642   0.64100   0.00000  Uiso   1.00
H1013  H     0.27713   0.40137   0.64338   0.00000  Uiso   1.00
H1014  H     0.28073   0.42530   0.58913   0.00000  Uiso   1.00
C1015  C     0.49958   0.42009   0.49985   0.00000  Uiso   1.00
C1016  C     0.49860   0.58007   0.50024   0.00000  Uiso   1.00
C1017  C     0.40049   0.50075   0.48821   0.00000  Uiso   1.00
C1018  C     0.59944   0.50177   0.51167   0.00000  Uiso   1.00
C1019  C     0.34554   0.50029   0.48164   0.00000  Uiso   1.00
C1020  C     0.65408   0.50681   0.51740   0.00000  Uiso   1.00
C1021  C     0.46862   0.35420   0.46246   0.00000  Uiso   1.00
C1022  C     0.51043   0.64677   0.54188   0.00000  Uiso   1.00
C1023  C     0.47288   0.64474   0.46174   0.00000  Uiso   1.00
C1024  C     0.51511   0.35579   0.53984   0.00000  Uiso   1.00
C1025  C     0.49485   0.62437   0.50116   0.00000  Uiso   1.00
C1026  C     0.49530   0.37611   0.49997   0.00000  Uiso   1.00
C1027  C     0.53306   0.52598   0.36166   0.00000  Uiso   1.00
C1028  C     0.46794   0.47320   0.63876   0.00000  Uiso   1.00
C1029  C     0.53315   0.52554   0.64679   0.00000  Uiso   1.00
C1030  C     0.46815   0.47348   0.35347   0.00000  Uiso   1.00
H1031  H     0.65900   0.49276   0.44772   0.00000  Uiso   1.00
H1032  H     0.34057   0.51560   0.55087   0.00000  Uiso   1.00
H1033  H     0.45584   0.62741   0.43175   0.00000  Uiso   1.00
H1034  H     0.53197   0.37276   0.57020   0.00000  Uiso   1.00
H1035  H     0.56008   0.54529   0.63162   0.00000  Uiso   1.00
H1036  H     0.44386   0.45173   0.36896   0.00000  Uiso   1.00
N1037  N     0.49999   0.49999   0.61907   0.00000  Uiso   1.00
N1038  N     0.50001   0.50001   0.38093   0.00000  Uiso   1.00
O1039  O     0.50000   0.43892   0.53821   0.00000  Uiso   1.00
O1040  O     0.50000   0.56108   0.46179   0.00000  Uiso   1.00
O1041  O     0.50000   0.43893   0.46176   0.00000  Uiso   1.00
O1042  O     0.50000   0.56107   0.53824   0.00000  Uiso   1.00
O1043  O     0.42392   0.50000   0.52928   0.00000  Uiso   1.00
O1044  O     0.57608   0.50000   0.47072   0.00000  Uiso   1.00
O1045  O     0.42392   0.50000   0.45284   0.00000  Uiso   1.00
O1046  O     0.57608   0.50000   0.54716   0.00000  Uiso   1.00
Zn1047 Zn    0.50000   0.49999   0.55104   0.00000  Uiso   1.00
Zn1048 Zn    0.50000   0.50001   0.44896   0.00000  Uiso   1.00
O1049  O     0.43704   0.37339   0.42718   0.00000  Uiso   1.00
C1050  C     0.39154   0.39022   0.44290   0.00000  Uiso   1.00
H1051  H     0.36888   0.40647   0.41384   0.00000  Uiso   1.00
H1052  H     0.40147   0.41421   0.46985   0.00000  Uiso   1.00
C1053  C     0.35576   0.35692   0.45997   0.00000  Uiso   1.00
H1054  H     0.34735   0.66548   0.43376   0.00000  Uiso   1.00
H1055  H     0.37574   0.34255   0.49155   0.00000  Uiso   1.00
C1056  C     0.63766   0.37577   0.47069   0.00000  Uiso   1.00
H1057  H     0.61206   0.35083   0.48156   0.00000  Uiso   1.00
H1058  H     0.61659   0.39105   0.44016   0.00000  Uiso   1.00
H1059  H     0.64556   0.39916   0.49871   0.00000  Uiso   1.00
O1060  O     0.52032   0.62794   0.58388   0.00000  Uiso   1.00
C1061  C     0.47198   0.62228   0.60139   0.00000  Uiso   1.00
H1062  H     0.47476   0.59326   0.62136   0.00000  Uiso   1.00
H1063  H     0.43748   0.61744   0.57451   0.00000  Uiso   1.00
C1064  C     0.46127   0.65866   0.63250   0.00000  Uiso   1.00
H1065  H     0.49658   0.66583   0.65723   0.00000  Uiso   1.00
H1066  H     0.45132   0.35344   0.61170   0.00000  Uiso   1.00
C1067  C     0.41587   0.64822   0.65870   0.00000  Uiso   1.00
H1068  H     0.37977   0.64136   0.63464   0.00000  Uiso   1.00
H1069  H     0.40850   0.34180   0.34719   0.00000  Uiso   1.00
H1070  H     0.42546   0.62082   0.34743   0.00000  Uiso   1.00
O1071  O     0.56969   0.54919   0.39012   0.00000  Uiso   1.00
C1072  C     0.56502   0.59221   0.38076   0.00000  Uiso   1.00
H1073  H     0.55941   0.60859   0.41292   0.00000  Uiso   1.00
H1074  H     0.53063   0.60041   0.35561   0.00000  Uiso   1.00
C1075  C     0.61570   0.60863   0.36538   0.00000  Uiso   1.00
H1076  H     0.64845   0.60485   0.39354   0.00000  Uiso   1.00
H1077  H     0.62534   0.59037   0.33563   0.00000  Uiso   1.00
C1078  C     0.61066   0.65444   0.35240   0.00000  Uiso   1.00
H1079  H     0.58660   0.65751   0.65200   0.00000  Uiso   1.00
H1080  H     0.64988   0.33468   0.35018   0.00000  Uiso   1.00
H1081  H     0.59234   0.33917   0.37815   0.00000  Uiso   1.00
O1082  O     0.43983   0.44276   0.61233   0.00000  Uiso   1.00
C1083  C     0.38529   0.45080   0.60801   0.00000  Uiso   1.00
H1084  H     0.37030   0.44889   0.57124   0.00000  Uiso   1.00
H1085  H     0.37526   0.48223   0.62074   0.00000  Uiso   1.00
C1086  C     0.35626   0.41705   0.63100   0.00000  Uiso   1.00
H1087  H     0.36251   0.38641   0.61503   0.00000  Uiso   1.00
H1088  H     0.37154   0.41567   0.33436   0.00000  Uiso   1.00
C1089  C     0.63071   0.42567   0.62574   0.00000  Uiso   1.00
H1090  H     0.62319   0.45642   0.64100   0.00000  Uiso   1.00
H1091  H     0.61047   0.40137   0.64338   0.00000  Uiso   1.00
H1092  H     0.61406   0.42530   0.58913   0.00000  Uiso   1.00
C1093  C     0.83291   0.42009   0.49985   0.00000  Uiso   1.00
C1094  C     0.83194   0.58007   0.50024   0.00000  Uiso   1.00
C1095  C     0.73382   0.50075   0.48821   0.00000  Uiso   1.00
C1096  C     0.93277   0.50177   0.51167   0.00000  Uiso   1.00
C1097  C     0.67887   0.50029   0.48164   0.00000  Uiso   1.00
C1098  C     0.98742   0.50681   0.51740   0.00000  Uiso   1.00
C1099  C     0.80195   0.35420   0.46246   0.00000  Uiso   1.00
C1100  C     0.84377   0.64677   0.54188   0.00000  Uiso   1.00
C1101  C     0.80621   0.64474   0.46174   0.00000  Uiso   1.00
C1102  C     0.84844   0.35579   0.53984   0.00000  Uiso   1.00
C1103  C     0.82819   0.62437   0.50116   0.00000  Uiso   1.00
C1104  C     0.82864   0.37611   0.49997   0.00000  Uiso   1.00
C1105  C     0.86639   0.52598   0.36166   0.00000  Uiso   1.00
C1106  C     0.80127   0.47320   0.63876   0.00000  Uiso   1.00
C1107  C     0.86648   0.52554   0.64679   0.00000  Uiso   1.00
C1108  C     0.80148   0.47348   0.35347   0.00000  Uiso   1.00
H1109  H     0.99233   0.49276   0.44772   0.00000  Uiso   1.00
H1110  H     0.67390   0.51560   0.55087   0.00000  Uiso   1.00
H1111  H     0.78917   0.62741   0.43175   0.00000  Uiso   1.00
H1112  H     0.86531   0.37276   0.57020   0.00000  Uiso   1.00
H1113  H     0.89341   0.54529   0.63162   0.00000  Uiso   1.00
H1114  H     0.77720   0.45173   0.36896   0.00000  Uiso   1.00
N1115  N     0.83332   0.49999   0.61907   0.00000  Uiso   1.00
N1116  N     0.83335   0.50001   0.38093   0.00000  Uiso   1.00
O1117  O     0.83333   0.43892   0.53821   0.00000  Uiso   1.00
O1118  O     0.83334   0.56108   0.46179   0.00000  Uiso   1.00
O1119  O     0.83333   0.43893   0.46176   0.00000  Uiso   1.00
O1120  O     0.83334   0.56107   0.53824   0.00000  Uiso   1.00
O1121  O     0.75725   0.50000   0.52928   0.00000  Uiso   1.00
O1122  O     0.90942   0.50000   0.47072   0.00000  Uiso   1.00
O1123  O     0.75725   0.50000   0.45284   0.00000  Uiso   1.00
O1124  O     0.90942   0.50000   0.54716   0.00000  Uiso   1.00
Zn1125 Zn    0.83333   0.49999   0.55104   0.00000  Uiso   1.00
Zn1126 Zn    0.83333   0.50001   0.44896   0.00000  Uiso   1.00
O1127  O     0.77038   0.37339   0.42718   0.00000  Uiso   1.00
C1128  C     0.72487   0.39022   0.44290   0.00000  Uiso   1.00
H1129  H     0.70221   0.40647   0.41384   0.00000  Uiso   1.00
H1130  H     0.73481   0.41421   0.46985   0.00000  Uiso   1.00
C1131  C     0.68909   0.35692   0.45997   0.00000  Uiso   1.00
H1132  H     0.68069   0.66548   0.43376   0.00000  Uiso   1.00
H1133  H     0.70907   0.34255   0.49155   0.00000  Uiso   1.00
C1134  C     0.97100   0.37577   0.47069   0.00000  Uiso   1.00
H1135  H     0.94539   0.35083   0.48156   0.00000  Uiso   1.00
H1136  H     0.94993   0.39105   0.44016   0.00000  Uiso   1.00
H1137  H     0.97890   0.39916   0.49871   0.00000  Uiso   1.00
O1138  O     0.85365   0.62794   0.58388   0.00000  Uiso   1.00
C1139  C     0.80531   0.62228   0.60139   0.00000  Uiso   1.00
H1140  H     0.80809   0.59326   0.62136   0.00000  Uiso   1.00
H1141  H     0.77081   0.61744   0.57451   0.00000  Uiso   1.00
C1142  C     0.79460   0.65866   0.63250   0.00000  Uiso   1.00
H1143  H     0.82991   0.66583   0.65723   0.00000  Uiso   1.00
H1144  H     0.78466   0.35344   0.61170   0.00000  Uiso   1.00
C1145  C     0.74920   0.64822   0.65870   0.00000  Uiso   1.00
H1146  H     0.71310   0.64136   0.63464   0.00000  Uiso   1.00
H1147  H     0.74183   0.34180   0.34719   0.00000  Uiso   1.00
H1148  H     0.75879   0.62082   0.34743   0.00000  Uiso   1.00
O1149  O     0.90302   0.54919   0.39012   0.00000  Uiso   1.00
C1150  C     0.89835   0.59221   0.38076   0.00000  Uiso   1.00
H1151  H     0.89275   0.60859   0.41292   0.00000  Uiso   1.00
H1152  H     0.86397   0.60041   0.35561   0.00000  Uiso   1.00
C1153  C     0.94903   0.60863   0.36538   0.00000  Uiso   1.00
H1154  H     0.98178   0.60485   0.39354   0.00000  Uiso   1.00
H1155  H     0.95867   0.59037   0.33563   0.00000  Uiso   1.00
C1156  C     0.94399   0.65444   0.35240   0.00000  Uiso   1.00
H1157  H     0.91993   0.65751   0.65200   0.00000  Uiso   1.00
H1158  H     0.98322   0.33468   0.35018   0.00000  Uiso   1.00
H1159  H     0.92567   0.33917   0.37815   0.00000  Uiso   1.00
O1160  O     0.77316   0.44276   0.61233   0.00000  Uiso   1.00
C1161  C     0.71863   0.45080   0.60801   0.00000  Uiso   1.00
H1162  H     0.70363   0.44889   0.57124   0.00000  Uiso   1.00
H1163  H     0.70859   0.48223   0.62074   0.00000  Uiso   1.00
C1164  C     0.68959   0.41705   0.63100   0.00000  Uiso   1.00
H1165  H     0.69584   0.38641   0.61503   0.00000  Uiso   1.00
H1166  H     0.70488   0.41567   0.33436   0.00000  Uiso   1.00
C1167  C     0.96404   0.42567   0.62574   0.00000  Uiso   1.00
H1168  H     0.95652   0.45642   0.64100   0.00000  Uiso   1.00
H1169  H     0.94380   0.40137   0.64338   0.00000  Uiso   1.00
H1170  H     0.94739   0.42530   0.58913   0.00000  Uiso   1.00
C1171  C     0.16624   0.75342   0.49985   0.00000  Uiso   1.00
C1172  C     0.16527   0.91341   0.50024   0.00000  Uiso   1.00
C1173  C     0.06715   0.83409   0.48821   0.00000  Uiso   1.00
C1174  C     0.26611   0.83510   0.51167   0.00000  Uiso   1.00
C1175  C     0.01221   0.83362   0.48164   0.00000  Uiso   1.00
C1176  C     0.32075   0.84014   0.51740   0.00000  Uiso   1.00
C1177  C     0.13529   0.68753   0.46246   0.00000  Uiso   1.00
C1178  C     0.17710   0.98011   0.54188   0.00000  Uiso   1.00
C1179  C     0.13954   0.97807   0.46174   0.00000  Uiso   1.00
C1180  C     0.18178   0.68913   0.53984   0.00000  Uiso   1.00
C1181  C     0.16152   0.95771   0.50116   0.00000  Uiso   1.00
C1182  C     0.16197   0.70945   0.49997   0.00000  Uiso   1.00
C1183  C     0.19973   0.85931   0.36166   0.00000  Uiso   1.00
C1184  C     0.13461   0.80654   0.63876   0.00000  Uiso   1.00
C1185  C     0.19982   0.85887   0.64679   0.00000  Uiso   1.00
C1186  C     0.13482   0.80681   0.35347   0.00000  Uiso   1.00
H1187  H     0.32566   0.82609   0.44772   0.00000  Uiso   1.00
H1188  H     0.00724   0.84894   0.55087   0.00000  Uiso   1.00
H1189  H     0.12250   0.96074   0.43175   0.00000  Uiso   1.00
H1190  H     0.19864   0.70609   0.57020   0.00000  Uiso   1.00
H1191  H     0.22675   0.87863   0.63162   0.00000  Uiso   1.00
H1192  H     0.11053   0.78506   0.36896   0.00000  Uiso   1.00
N1193  N     0.16665   0.83332   0.61907   0.00000  Uiso   1.00
N1194  N     0.16668   0.83334   0.38093   0.00000  Uiso   1.00
O1195  O     0.16666   0.77225   0.53821   0.00000  Uiso   1.00
O1196  O     0.16667   0.89442   0.46179   0.00000  Uiso   1.00
O1197  O     0.16666   0.77226   0.46176   0.00000  Uiso   1.00
O1198  O     0.16667   0.89441   0.53824   0.00000  Uiso   1.00
O1199  O     0.09058   0.83333   0.52928   0.00000  Uiso   1.00
O1200  O     0.24275   0.83334   0.47072   0.00000  Uiso   1.00
O1201  O     0.09058   0.83334   0.45284   0.00000  Uiso   1.00
O1202  O     0.24275   0.83333   0.54716   0.00000  Uiso   1.00
Zn1203 Zn    0.16667   0.83333   0.55104   0.00000  Uiso   1.00
Zn1204 Zn    0.16667   0.83334   0.44896   0.00000  Uiso   1.00
O1205  O     0.10371   0.70672   0.42718   0.00000  Uiso   1.00
C1206  C     0.05820   0.72355   0.44290   0.00000  Uiso   1.00
H1207  H     0.03555   0.73981   0.41384   0.00000  Uiso   1.00
H1208  H     0.06814   0.74755   0.46985   0.00000  Uiso   1.00
C1209  C     0.02243   0.69026   0.45997   0.00000  Uiso   1.00
H1210  H     0.01402   0.99881   0.43376   0.00000  Uiso   1.00
H1211  H     0.04241   0.67588   0.49155   0.00000  Uiso   1.00
C1212  C     0.30433   0.70910   0.47069   0.00000  Uiso   1.00
H1213  H     0.27873   0.68417   0.48156   0.00000  Uiso   1.00
H1214  H     0.28326   0.72438   0.44016   0.00000  Uiso   1.00
H1215  H     0.31223   0.73249   0.49871   0.00000  Uiso   1.00
O1216  O     0.18698   0.96128   0.58388   0.00000  Uiso   1.00
C1217  C     0.13865   0.95561   0.60139   0.00000  Uiso   1.00
H1218  H     0.14142   0.92659   0.62136   0.00000  Uiso   1.00
H1219  H     0.10415   0.95078   0.57451   0.00000  Uiso   1.00
C1220  C     0.12793   0.99199   0.63250   0.00000  Uiso   1.00
H1221  H     0.16325   0.99916   0.65723   0.00000  Uiso   1.00
H1222  H     0.11799   0.68677   0.61170   0.00000  Uiso   1.00
C1223  C     0.08253   0.98155   0.65870   0.00000  Uiso   1.00
H1224  H     0.04643   0.97470   0.63464   0.00000  Uiso   1.00
H1225  H     0.07516   0.67514   0.34719   0.00000  Uiso   1.00
H1226  H     0.09213   0.95416   0.34743   0.00000  Uiso   1.00
O1227  O     0.23636   0.88252   0.39012   0.00000  Uiso   1.00
C1228  C     0.23169   0.92554   0.38076   0.00000  Uiso   1.00
H1229  H     0.22608   0.94193   0.41292   0.00000  Uiso   1.00
H1230  H     0.19730   0.93374   0.35561   0.00000  Uiso   1.00
C1231  C     0.28237   0.94196   0.36538   0.00000  Uiso   1.00
H1232  H     0.31512   0.93819   0.39354   0.00000  Uiso   1.00
H1233  H     0.29200   0.92370   0.33563   0.00000  Uiso   1.00
C1234  C     0.27732   0.98777   0.35240   0.00000  Uiso   1.00
H1235  H     0.25326   0.99084   0.65200   0.00000  Uiso   1.00
H1236  H     0.31655   0.66801   0.35018   0.00000  Uiso   1.00
H1237  H     0.25900   0.67250   0.37815   0.00000  Uiso   1.00
O1238  O     0.10649   0.77609   0.61233   0.00000  Uiso   1.00
C1239  C     0.05196   0.78413   0.60801   0.00000  Uiso   1.00
H1240  H     0.03696   0.78223   0.57124   0.00000  Uiso   1.00
H1241  H     0.04193   0.81556   0.62074   0.00000  Uiso   1.00
C1242  C     0.02292   0.75039   0.63100   0.00000  Uiso   1.00
H1243  H     0.02917   0.71974   0.61503   0.00000  Uiso   1.00
H1244  H     0.03821   0.74901   0.33436   0.00000  Uiso   1.00
C1245  C     0.29738   0.75900   0.62574   0.00000  Uiso   1.00
H1246  H     0.28986   0.78975   0.64100   0.00000  Uiso   1.00
H1247  H     0.27713   0.73471   0.64338   0.00000  Uiso   1.00
H1248  H     0.28073   0.75863   0.58913   0.00000  Uiso   1.00
C1249  C     0.49958   0.75342   0.49985   0.00000  Uiso   1.00
C1250  C     0.49860   0.91341   0.50024   0.00000  Uiso   1.00
C1251  C     0.40049   0.83409   0.48821   0.00000  Uiso   1.00
C1252  C     0.59944   0.83510   0.51167   0.00000  Uiso   1.00
C1253  C     0.34554   0.83362   0.48164   0.00000  Uiso   1.00
C1254  C     0.65408   0.84014   0.51740   0.00000  Uiso   1.00
C1255  C     0.46862   0.68753   0.46246   0.00000  Uiso   1.00
C1256  C     0.51043   0.98011   0.54188   0.00000  Uiso   1.00
C1257  C     0.47288   0.97807   0.46174   0.00000  Uiso   1.00
C1258  C     0.51511   0.68913   0.53984   0.00000  Uiso   1.00
C1259  C     0.49485   0.95771   0.50116   0.00000  Uiso   1.00
C1260  C     0.49530   0.70945   0.49997   0.00000  Uiso   1.00
C1261  C     0.53306   0.85931   0.36166   0.00000  Uiso   1.00
C1262  C     0.46794   0.80654   0.63876   0.00000  Uiso   1.00
C1263  C     0.53315   0.85887   0.64679   0.00000  Uiso   1.00
C1264  C     0.46815   0.80681   0.35347   0.00000  Uiso   1.00
H1265  H     0.65900   0.82609   0.44772   0.00000  Uiso   1.00
H1266  H     0.34057   0.84894   0.55087   0.00000  Uiso   1.00
H1267  H     0.45584   0.96074   0.43175   0.00000  Uiso   1.00
H1268  H     0.53197   0.70609   0.57020   0.00000  Uiso   1.00
H1269  H     0.56008   0.87863   0.63162   0.00000  Uiso   1.00
H1270  H     0.44386   0.78506   0.36896   0.00000  Uiso   1.00
N1271  N     0.49999   0.83332   0.61907   0.00000  Uiso   1.00
N1272  N     0.50001   0.83334   0.38093   0.00000  Uiso   1.00
O1273  O     0.50000   0.77225   0.53821   0.00000  Uiso   1.00
O1274  O     0.50000   0.89442   0.46179   0.00000  Uiso   1.00
O1275  O     0.50000   0.77226   0.46176   0.00000  Uiso   1.00
O1276  O     0.50000   0.89441   0.53824   0.00000  Uiso   1.00
O1277  O     0.42392   0.83333   0.52928   0.00000  Uiso   1.00
O1278  O     0.57608   0.83334   0.47072   0.00000  Uiso   1.00
O1279  O     0.42392   0.83334   0.45284   0.00000  Uiso   1.00
O1280  O     0.57608   0.83333   0.54716   0.00000  Uiso   1.00
Zn1281 Zn    0.50000   0.83333   0.55104   0.00000  Uiso   1.00
Zn1282 Zn    0.50000   0.83334   0.44896   0.00000  Uiso   1.00
O1283  O     0.43704   0.70672   0.42718   0.00000  Uiso   1.00
C1284  C     0.39154   0.72355   0.44290   0.00000  Uiso   1.00
H1285  H     0.36888   0.73981   0.41384   0.00000  Uiso   1.00
H1286  H     0.40147   0.74755   0.46985   0.00000  Uiso   1.00
C1287  C     0.35576   0.69026   0.45997   0.00000  Uiso   1.00
H1288  H     0.34735   0.99881   0.43376   0.00000  Uiso   1.00
H1289  H     0.37574   0.67588   0.49155   0.00000  Uiso   1.00
C1290  C     0.63766   0.70910   0.47069   0.00000  Uiso   1.00
H1291  H     0.61206   0.68417   0.48156   0.00000  Uiso   1.00
H1292  H     0.61659   0.72438   0.44016   0.00000  Uiso   1.00
H1293  H     0.64556   0.73249   0.49871   0.00000  Uiso   1.00
O1294  O     0.52032   0.96128   0.58388   0.00000  Uiso   1.00
C1295  C     0.47198   0.95561   0.60139   0.00000  Uiso   1.00
H1296  H     0.47476   0.92659   0.62136   0.00000  Uiso   1.00
H1297  H     0.43748   0.95078   0.57451   0.00000  Uiso   1.00
C1298  C     0.46127   0.99199   0.63250   0.00000  Uiso   1.00
H1299  H     0.49658   0.99916   0.65723   0.00000  Uiso   1.00
H1300  H     0.45132   0.68677   0.61170   0.00000  Uiso   1.00
C1301  C     0.41587   0.98155   0.65870   0.00000  Uiso   1.00
H1302  H     0.37977   0.97470   0.63464   0.00000  Uiso   1.00
H1303  H     0.40850   0.67514   0.34719   0.00000  Uiso   1.00
H1304  H     0.42546   0.95416   0.34743   0.00000  Uiso   1.00
O1305  O     0.56969   0.88252   0.39012   0.00000  Uiso   1.00
C1306  C     0.56502   0.92554   0.38076   0.00000  Uiso   1.00
H1307  H     0.55941   0.94193   0.41292   0.00000  Uiso   1.00
H1308  H     0.53063   0.93374   0.35561   0.00000  Uiso   1.00
C1309  C     0.61570   0.94196   0.36538   0.00000  Uiso   1.00
H1310  H     0.64845   0.93819   0.39354   0.00000  Uiso   1.00
H1311  H     0.62534   0.92370   0.33563   0.00000  Uiso   1.00
C1312  C     0.61066   0.98777   0.35240   0.00000  Uiso   1.00
H1313  H     0.58660   0.99084   0.65200   0.00000  Uiso   1.00
H1314  H     0.64988   0.66801   0.35018   0.00000  Uiso   1.00
H1315  H     0.59234   0.67250   0.37815   0.00000  Uiso   1.00
O1316  O     0.43983   0.77609   0.61233   0.00000  Uiso   1.00
C1317  C     0.38529   0.78413   0.60801   0.00000  Uiso   1.00
H1318  H     0.37030   0.78223   0.57124   0.00000  Uiso   1.00
H1319  H     0.37526   0.81556   0.62074   0.00000  Uiso   1.00
C1320  C     0.35626   0.75039   0.63100   0.00000  Uiso   1.00
H1321  H     0.36251   0.71974   0.61503   0.00000  Uiso   1.00
H1322  H     0.37154   0.74901   0.33436   0.00000  Uiso   1.00
C1323  C     0.63071   0.75900   0.62574   0.00000  Uiso   1.00
H1324  H     0.62319   0.78975   0.64100   0.00000  Uiso   1.00
H1325  H     0.61047   0.73471   0.64338   0.00000  Uiso   1.00
H1326  H     0.61406   0.75863   0.58913   0.00000  Uiso   1.00
C1327  C     0.83291   0.75342   0.49985   0.00000  Uiso   1.00
C1328  C     0.83194   0.91341   0.50024   0.00000  Uiso   1.00
C1329  C     0.73382   0.83409   0.48821   0.00000  Uiso   1.00
C1330  C     0.93277   0.83510   0.51167   0.00000  Uiso   1.00
C1331  C     0.67887   0.83362   0.48164   0.00000  Uiso   1.00
C1332  C     0.98742   0.84014   0.51740   0.00000  Uiso   1.00
C1333  C     0.80195   0.68753   0.46246   0.00000  Uiso   1.00
C1334  C     0.84377   0.98011   0.54188   0.00000  Uiso   1.00
C1335  C     0.80621   0.97807   0.46174   0.00000  Uiso   1.00
C1336  C     0.84844   0.68913   0.53984   0.00000  Uiso   1.00
C1337  C     0.82819   0.95771   0.50116   0.00000  Uiso   1.00
C1338  C     0.82864   0.70945   0.49997   0.00000  Uiso   1.00
C1339  C     0.86639   0.85931   0.36166   0.00000  Uiso   1.00
C1340  C     0.80127   0.80654   0.63876   0.00000  Uiso   1.00
C1341  C     0.86648   0.85887   0.64679   0.00000  Uiso   1.00
C1342  C     0.80148   0.80681   0.35347   0.00000  Uiso   1.00
H1343  H     0.99233   0.82609   0.44772   0.00000  Uiso   1.00
H1344  H     0.67390   0.84894   0.55087   0.00000  Uiso   1.00
H1345  H     0.78917   0.96074   0.43175   0.00000  Uiso   1.00
H1346  H     0.86531   0.70609   0.57020   0.00000  Uiso   1.00
H1347  H     0.89341   0.87863   0.63162   0.00000  Uiso   1.00
H1348  H     0.77720   0.78506   0.36896   0.00000  Uiso   1.00
N1349  N     0.83332   0.83332   0.61907   0.00000  Uiso   1.00
N1350  N     0.83335   0.83334   0.38093   0.00000  Uiso   1.00
O1351  O     0.83333   0.77225   0.53821   0.00000  Uiso   1.00
O1352  O     0.83334   0.89442   0.46179   0.00000  Uiso   1.00
O1353  O     0.83333   0.77226   0.46176   0.00000  Uiso   1.00
O1354  O     0.83334   0.89441   0.53824   0.00000  Uiso   1.00
O1355  O     0.75725   0.83333   0.52928   0.00000  Uiso   1.00
O1356  O     0.90942   0.83334   0.47072   0.00000  Uiso   1.00
O1357  O     0.75725   0.83334   0.45284   0.00000  Uiso   1.00
O1358  O     0.90942   0.83333   0.54716   0.00000  Uiso   1.00
Zn1359 Zn    0.83333   0.83333   0.55104   0.00000  Uiso   1.00
Zn1360 Zn    0.83333   0.83334   0.44896   0.00000  Uiso   1.00
O1361  O     0.77038   0.70672   0.42718   0.00000  Uiso   1.00
C1362  C     0.72487   0.72355   0.44290   0.00000  Uiso   1.00
H1363  H     0.70221   0.73981   0.41384   0.00000  Uiso   1.00
H1364  H     0.73481   0.74755   0.46985   0.00000  Uiso   1.00
C1365  C     0.68909   0.69026   0.45997   0.00000  Uiso   1.00
H1366  H     0.68069   0.99881   0.43376   0.00000  Uiso   1.00
H1367  H     0.70907   0.67588   0.49155   0.00000  Uiso   1.00
C1368  C     0.97100   0.70910   0.47069   0.00000  Uiso   1.00
H1369  H     0.94539   0.68417   0.48156   0.00000  Uiso   1.00
H1370  H     0.94993   0.72438   0.44016   0.00000  Uiso   1.00
H1371  H     0.97890   0.73249   0.49871   0.00000  Uiso   1.00
O1372  O     0.85365   0.96128   0.58388   0.00000  Uiso   1.00
C1373  C     0.80531   0.95561   0.60139   0.00000  Uiso   1.00
H1374  H     0.80809   0.92659   0.62136   0.00000  Uiso   1.00
H1375  H     0.77081   0.95078   0.57451   0.00000  Uiso   1.00
C1376  C     0.79460   0.99199   0.63250   0.00000  Uiso   1.00
H1377  H     0.82991   0.99916   0.65723   0.00000  Uiso   1.00
H1378  H     0.78466   0.68677   0.61170   0.00000  Uiso   1.00
C1379  C     0.74920   0.98155   0.65870   0.00000  Uiso   1.00
H1380  H     0.71310   0.97470   0.63464   0.00000  Uiso   1.00
H1381  H     0.74183   0.67514   0.34719   0.00000  Uiso   1.00
H1382  H     0.75879   0.95416   0.34743   0.00000  Uiso   1.00
O1383  O     0.90302   0.88252   0.39012   0.00000  Uiso   1.00
C1384  C     0.89835   0.92554   0.38076   0.00000  Uiso   1.00
H1385  H     0.89275   0.94193   0.41292   0.00000  Uiso   1.00
H1386  H     0.86397   0.93374   0.35561   0.00000  Uiso   1.00
C1387  C     0.94903   0.94196   0.36538   0.00000  Uiso   1.00
H1388  H     0.98178   0.93819   0.39354   0.00000  Uiso   1.00
H1389  H     0.95867   0.92370   0.33563   0.00000  Uiso   1.00
C1390  C     0.94399   0.98777   0.35240   0.00000  Uiso   1.00
H1391  H     0.91993   0.99084   0.65200   0.00000  Uiso   1.00
H1392  H     0.98322   0.66801   0.35018   0.00000  Uiso   1.00
H1393  H     0.92567   0.67250   0.37815   0.00000  Uiso   1.00
O1394  O     0.77316   0.77609   0.61233   0.00000  Uiso   1.00
C1395  C     0.71863   0.78413   0.60801   0.00000  Uiso   1.00
H1396  H     0.70363   0.78223   0.57124   0.00000  Uiso   1.00
H1397  H     0.70859   0.81556   0.62074   0.00000  Uiso   1.00
C1398  C     0.68959   0.75039   0.63100   0.00000  Uiso   1.00
H1399  H     0.69584   0.71974   0.61503   0.00000  Uiso   1.00
H1400  H     0.70488   0.74901   0.33436   0.00000  Uiso   1.00
C1401  C     0.96404   0.75900   0.62574   0.00000  Uiso   1.00
H1402  H     0.95652   0.78975   0.64100   0.00000  Uiso   1.00
H1403  H     0.94380   0.73471   0.64338   0.00000  Uiso   1.00
H1404  H     0.94739   0.75863   0.58913   0.00000  Uiso   1.00
C1405  C     0.16624   0.08675   0.83319   0.00000  Uiso   1.00
C1406  C     0.16527   0.24674   0.83357   0.00000  Uiso   1.00
C1407  C     0.06715   0.16742   0.82154   0.00000  Uiso   1.00
C1408  C     0.26611   0.16843   0.84500   0.00000  Uiso   1.00
C1409  C     0.01221   0.16696   0.81498   0.00000  Uiso   1.00
C1410  C     0.32075   0.17348   0.85073   0.00000  Uiso   1.00
C1411  C     0.13529   0.02086   0.79579   0.00000  Uiso   1.00
C1412  C     0.17710   0.31344   0.87522   0.00000  Uiso   1.00
C1413  C     0.13954   0.31141   0.79508   0.00000  Uiso   1.00
C1414  C     0.18178   0.02246   0.87318   0.00000  Uiso   1.00
C1415  C     0.16152   0.29104   0.83449   0.00000  Uiso   1.00
C1416  C     0.16197   0.04278   0.83330   0.00000  Uiso   1.00
C1417  C     0.19973   0.19265   0.69500   0.00000  Uiso   1.00
C1418  C     0.13461   0.13987   0.97209   0.00000  Uiso   1.00
C1419  C     0.19982   0.19221   0.98013   0.00000  Uiso   1.00
C1420  C     0.13482   0.14015   0.68681   0.00000  Uiso   1.00
H1421  H     0.32566   0.15943   0.78105   0.00000  Uiso   1.00
H1422  H     0.00724   0.18227   0.88421   0.00000  Uiso   1.00
H1423  H     0.12250   0.29408   0.76508   0.00000  Uiso   1.00
H1424  H     0.19864   0.03942   0.90353   0.00000  Uiso   1.00
H1425  H     0.22675   0.21196   0.96495   0.00000  Uiso   1.00
H1426  H     0.11053   0.11839   0.70229   0.00000  Uiso   1.00
N1427  N     0.16665   0.16666   0.95240   0.00000  Uiso   1.00
N1428  N     0.16668   0.16668   0.71427   0.00000  Uiso   1.00
O1429  O     0.16666   0.10558   0.87154   0.00000  Uiso   1.00
O1430  O     0.16667   0.22775   0.79513   0.00000  Uiso   1.00
O1431  O     0.16666   0.10559   0.79510   0.00000  Uiso   1.00
O1432  O     0.16667   0.22774   0.87157   0.00000  Uiso   1.00
O1433  O     0.09058   0.16666   0.86261   0.00000  Uiso   1.00
O1434  O     0.24275   0.16667   0.80405   0.00000  Uiso   1.00
O1435  O     0.09058   0.16667   0.78617   0.00000  Uiso   1.00
O1436  O     0.24275   0.16666   0.88050   0.00000  Uiso   1.00
Zn1437 Zn    0.16667   0.16666   0.88437   0.00000  Uiso   1.00
Zn1438 Zn    0.16667   0.16667   0.78229   0.00000  Uiso   1.00
O1439  O     0.10371   0.04006   0.76052   0.00000  Uiso   1.00
C1440  C     0.05820   0.05689   0.77623   0.00000  Uiso   1.00
H1441  H     0.03555   0.07314   0.74717   0.00000  Uiso   1.00
H1442  H     0.06814   0.08088   0.80318   0.00000  Uiso   1.00
C1443  C     0.02243   0.02359   0.79330   0.00000  Uiso   1.00
H1444  H     0.01402   0.33215   0.76709   0.00000  Uiso   1.00
H1445  H     0.04241   0.00921   0.82489   0.00000  Uiso   1.00
C1446  C     0.30433   0.04243   0.80403   0.00000  Uiso   1.00
H1447  H     0.27873   0.01750   0.81489   0.00000  Uiso   1.00
H1448  H     0.28326   0.05771   0.77349   0.00000  Uiso   1.00
H1449  H     0.31223   0.06583   0.83204   0.00000  Uiso   1.00
O1450  O     0.18698   0.29461   0.91721   0.00000  Uiso   1.00
C1451  C     0.13865   0.28895   0.93472   0.00000  Uiso   1.00
H1452  H     0.14142   0.25993   0.95469   0.00000  Uiso   1.00
H1453  H     0.10415   0.28411   0.90785   0.00000  Uiso   1.00
C1454  C     0.12793   0.32532   0.96583   0.00000  Uiso   1.00
H1455  H     0.16325   0.33249   0.99057   0.00000  Uiso   1.00
H1456  H     0.11799   0.02011   0.94503   0.00000  Uiso   1.00
C1457  C     0.08253   0.31489   0.99203   0.00000  Uiso   1.00
H1458  H     0.04643   0.30803   0.96797   0.00000  Uiso   1.00
H1459  H     0.07516   0.00847   0.68053   0.00000  Uiso   1.00
H1460  H     0.09213   0.28749   0.68076   0.00000  Uiso   1.00
O1461  O     0.23636   0.21585   0.72345   0.00000  Uiso   1.00
C1462  C     0.23169   0.25888   0.71410   0.00000  Uiso   1.00
H1463  H     0.22608   0.27526   0.74626   0.00000  Uiso   1.00
H1464  H     0.19730   0.26708   0.68894   0.00000  Uiso   1.00
C1465  C     0.28237   0.27529   0.69872   0.00000  Uiso   1.00
H1466  H     0.31512   0.27152   0.72688   0.00000  Uiso   1.00
H1467  H     0.29200   0.25704   0.66896   0.00000  Uiso   1.00
C1468  C     0.27732   0.32111   0.68573   0.00000  Uiso   1.00
H1469  H     0.25326   0.32418   0.98533   0.00000  Uiso   1.00
H1470  H     0.31655   0.00134   0.68351   0.00000  Uiso   1.00
H1471  H     0.25900   0.00584   0.71149   0.00000  Uiso   1.00
O1472  O     0.10649   0.10942   0.94566   0.00000  Uiso   1.00
C1473  C     0.05196   0.11747   0.94134   0.00000  Uiso   1.00
H1474  H     0.03696   0.11556   0.90457   0.00000  Uiso   1.00
H1475  H     0.04193   0.14890   0.95407   0.00000  Uiso   1.00
C1476  C     0.02292   0.08372   0.96433   0.00000  Uiso   1.00
H1477  H     0.02917   0.05308   0.94837   0.00000  Uiso   1.00
H1478  H     0.03821   0.08234   0.66769   0.00000  Uiso   1.00
C1479  C     0.29738   0.09234   0.95907   0.00000  Uiso   1.00
H1480  H     0.28986   0.12309   0.97434   0.00000  Uiso   1.00
H1481  H     0.27713   0.06804   0.97672   0.00000  Uiso   1.00
H1482  H     0.28073   0.09197   0.92246   0.00000  Uiso   1.00
C1483  C     0.49958   0.08675   0.83319   0.00000  Uiso   1.00
C1484  C     0.49860   0.24674   0.83357   0.00000  Uiso   1.00
C1485  C     0.40049   0.16742   0.82154   0.00000  Uiso   1.00
C1486  C     0.59944   0.16843   0.84500   0.00000  Uiso   1.00
C1487  C     0.34554   0.16696   0.81498   0.00000  Uiso   1.00
C1488  C     0.65408   0.17348   0.85073   0.00000  Uiso   1.00
C1489  C     0.46862   0.02086   0.79579   0.00000  Uiso   1.00
C1490  C     0.51043   0.31344   0.87522   0.00000  Uiso   1.00
C1491  C     0.47288   0.31141   0.79508   0.00000  Uiso   1.00
C1492  C     0.51511   0.02246   0.87318   0.00000  Uiso   1.00
C1493  C     0.49485   0.29104   0.83449   0.00000  Uiso   1.00
C1494  C     0.49530   0.04278   0.83330   0.00000  Uiso   1.00
C1495  C     0.53306   0.19265   0.69500   0.00000  Uiso   1.00
C1496  C     0.46794   0.13987   0.97209   0.00000  Uiso   1.00
C1497  C     0.53315   0.19221   0.98013   0.00000  Uiso   1.00
C1498  C     0.46815   0.14015   0.68681   0.00000  Uiso   1.00
H1499  H     0.65900   0.15943   0.78105   0.00000  Uiso   1.00
H1500  H     0.34057   0.18227   0.88421   0.00000  Uiso   1.00
H1501  H     0.45584   0.29408   0.76508   0.00000  Uiso   1.00
H1502  H     0.53197   0.03942   0.90353   0.00000  Uiso   1.00
H1503  H     0.56008   0.21196   0.96495   0.00000  Uiso   1.00
H1504  H     0.44386   0.11839   0.70229   0.00000  Uiso   1.00
N1505  N     0.49999   0.16666   0.95240   0.00000  Uiso   1.00
N1506  N     0.50001   0.16668   0.71427   0.00000  Uiso   1.00
O1507  O     0.50000   0.10558   0.87154   0.00000  Uiso   1.00
O1508  O     0.50000   0.22775   0.79513   0.00000  Uiso   1.00
O1509  O     0.50000   0.10559   0.79510   0.00000  Uiso   1.00
O1510  O     0.50000   0.22774   0.87157   0.00000  Uiso   1.00
O1511  O     0.42392   0.16666   0.86261   0.00000  Uiso   1.00
O1512  O     0.57608   0.16667   0.80405   0.00000  Uiso   1.00
O1513  O     0.42392   0.16667   0.78617   0.00000  Uiso   1.00
O1514  O     0.57608   0.16666   0.88050   0.00000  Uiso   1.00
Zn1515 Zn    0.50000   0.16666   0.88437   0.00000  Uiso   1.00
Zn1516 Zn    0.50000   0.16667   0.78229   0.00000  Uiso   1.00
O1517  O     0.43704   0.04006   0.76052   0.00000  Uiso   1.00
C1518  C     0.39154   0.05689   0.77623   0.00000  Uiso   1.00
H1519  H     0.36888   0.07314   0.74717   0.00000  Uiso   1.00
H1520  H     0.40147   0.08088   0.80318   0.00000  Uiso   1.00
C1521  C     0.35576   0.02359   0.79330   0.00000  Uiso   1.00
H1522  H     0.34735   0.33215   0.76709   0.00000  Uiso   1.00
H1523  H     0.37574   0.00921   0.82489   0.00000  Uiso   1.00
C1524  C     0.63766   0.04243   0.80403   0.00000  Uiso   1.00
H1525  H     0.61206   0.01750   0.81489   0.00000  Uiso   1.00
H1526  H     0.61659   0.05771   0.77349   0.00000  Uiso   1.00
H1527  H     0.64556   0.06583   0.83204   0.00000  Uiso   1.00
O1528  O     0.52032   0.29461   0.91721   0.00000  Uiso   1.00
C1529  C     0.47198   0.28895   0.93472   0.00000  Uiso   1.00
H1530  H     0.47476   0.25993   0.95469   0.00000  Uiso   1.00
H1531  H     0.43748   0.28411   0.90785   0.00000  Uiso   1.00
C1532  C     0.46127   0.32532   0.96583   0.00000  Uiso   1.00
H1533  H     0.49658   0.33249   0.99057   0.00000  Uiso   1.00
H1534  H     0.45132   0.02011   0.94503   0.00000  Uiso   1.00
C1535  C     0.41587   0.31489   0.99203   0.00000  Uiso   1.00
H1536  H     0.37977   0.30803   0.96797   0.00000  Uiso   1.00
H1537  H     0.40850   0.00847   0.68053   0.00000  Uiso   1.00
H1538  H     0.42546   0.28749   0.68076   0.00000  Uiso   1.00
O1539  O     0.56969   0.21585   0.72345   0.00000  Uiso   1.00
C1540  C     0.56502   0.25888   0.71410   0.00000  Uiso   1.00
H1541  H     0.55941   0.27526   0.74626   0.00000  Uiso   1.00
H1542  H     0.53063   0.26708   0.68894   0.00000  Uiso   1.00
C1543  C     0.61570   0.27529   0.69872   0.00000  Uiso   1.00
H1544  H     0.64845   0.27152   0.72688   0.00000  Uiso   1.00
H1545  H     0.62534   0.25704   0.66896   0.00000  Uiso   1.00
C1546  C     0.61066   0.32111   0.68573   0.00000  Uiso   1.00
H1547  H     0.58660   0.32418   0.98533   0.00000  Uiso   1.00
H1548  H     0.64988   0.00134   0.68351   0.00000  Uiso   1.00
H1549  H     0.59234   0.00584   0.71149   0.00000  Uiso   1.00
O1550  O     0.43983   0.10942   0.94566   0.00000  Uiso   1.00
C1551  C     0.38529   0.11747   0.94134   0.00000  Uiso   1.00
H1552  H     0.37030   0.11556   0.90457   0.00000  Uiso   1.00
H1553  H     0.37526   0.14890   0.95407   0.00000  Uiso   1.00
C1554  C     0.35626   0.08372   0.96433   0.00000  Uiso   1.00
H1555  H     0.36251   0.05308   0.94837   0.00000  Uiso   1.00
H1556  H     0.37154   0.08234   0.66769   0.00000  Uiso   1.00
C1557  C     0.63071   0.09234   0.95907   0.00000  Uiso   1.00
H1558  H     0.62319   0.12309   0.97434   0.00000  Uiso   1.00
H1559  H     0.61047   0.06804   0.97672   0.00000  Uiso   1.00
H1560  H     0.61406   0.09197   0.92246   0.00000  Uiso   1.00
C1561  C     0.83291   0.08675   0.83319   0.00000  Uiso   1.00
C1562  C     0.83194   0.24674   0.83357   0.00000  Uiso   1.00
C1563  C     0.73382   0.16742   0.82154   0.00000  Uiso   1.00
C1564  C     0.93277   0.16843   0.84500   0.00000  Uiso   1.00
C1565  C     0.67887   0.16696   0.81498   0.00000  Uiso   1.00
C1566  C     0.98742   0.17348   0.85073   0.00000  Uiso   1.00
C1567  C     0.80195   0.02086   0.79579   0.00000  Uiso   1.00
C1568  C     0.84377   0.31344   0.87522   0.00000  Uiso   1.00
C1569  C     0.80621   0.31141   0.79508   0.00000  Uiso   1.00
C1570  C     0.84844   0.02246   0.87318   0.00000  Uiso   1.00
C1571  C     0.82819   0.29104   0.83449   0.00000  Uiso   1.00
C1572  C     0.82864   0.04278   0.83330   0.00000  Uiso   1.00
C1573  C     0.86639   0.19265   0.69500   0.00000  Uiso   1.00
C1574  C     0.80127   0.13987   0.97209   0.00000  Uiso   1.00
C1575  C     0.86648   0.19221   0.98013   0.00000  Uiso   1.00
C1576  C     0.80148   0.14015   0.68681   0.00000  Uiso   1.00
H1577  H     0.99233   0.15943   0.78105   0.00000  Uiso   1.00
H1578  H     0.67390   0.18227   0.88421   0.00000  Uiso   1.00
H1579  H     0.78917   0.29408   0.76508   0.00000  Uiso   1.00
H1580  H     0.86531   0.03942   0.90353   0.00000  Uiso   1.00
H1581  H     0.89341   0.21196   0.96495   0.00000  Uiso   1.00
H1582  H     0.77720   0.11839   0.70229   0.00000  Uiso   1.00
N1583  N     0.83332   0.16666   0.95240   0.00000  Uiso   1.00
N1584  N     0.83335   0.16668   0.71427   0.00000  Uiso   1.00
O1585  O     0.83333   0.10558   0.87154   0.00000  Uiso   1.00
O1586  O     0.83334   0.22775   0.79513   0.00000  Uiso   1.00
O1587  O     0.83333   0.10559   0.79510   0.00000  Uiso   1.00
O1588  O     0.83334   0.22774   0.87157   0.00000  Uiso   1.00
O1589  O     0.75725   0.16666   0.86261   0.00000  Uiso   1.00
O1590  O     0.90942   0.16667   0.80405   0.00000  Uiso   1.00
O1591  O     0.75725   0.16667   0.78617   0.00000  Uiso   1.00
O1592  O     0.90942   0.16666   0.88050   0.00000  Uiso   1.00
Zn1593 Zn    0.83333   0.16666   0.88437   0.00000  Uiso   1.00
Zn1594 Zn    0.83333   0.16667   0.78229   0.00000  Uiso   1.00
O1595  O     0.77038   0.04006   0.76052   0.00000  Uiso   1.00
C1596  C     0.72487   0.05689   0.77623   0.00000  Uiso   1.00
H1597  H     0.70221   0.07314   0.74717   0.00000  Uiso   1.00
H1598  H     0.73481   0.08088   0.80318   0.00000  Uiso   1.00
C1599  C     0.68909   0.02359   0.79330   0.00000  Uiso   1.00
H1600  H     0.68069   0.33215   0.76709   0.00000  Uiso   1.00
H1601  H     0.70907   0.00921   0.82489   0.00000  Uiso   1.00
C1602  C     0.97100   0.04243   0.80403   0.00000  Uiso   1.00
H1603  H     0.94539   0.01750   0.81489   0.00000  Uiso   1.00
H1604  H     0.94993   0.05771   0.77349   0.00000  Uiso   1.00
H1605  H     0.97890   0.06583   0.83204   0.00000  Uiso   1.00
O1606  O     0.85365   0.29461   0.91721   0.00000  Uiso   1.00
C1607  C     0.80531   0.28895   0.93472   0.00000  Uiso   1.00
H1608  H     0.80809   0.25993   0.95469   0.00000  Uiso   1.00
H1609  H     0.77081   0.28411   0.90785   0.00000  Uiso   1.00
C1610  C     0.79460   0.32532   0.96583   0.00000  Uiso   1.00
H1611  H     0.82991   0.33249   0.99057   0.00000  Uiso   1.00
H1612  H     0.78466   0.02011   0.94503   0.00000  Uiso   1.00
C1613  C     0.74920   0.31489   0.99203   0.00000  Uiso   1.00
H1614  H     0.71310   0.30803   0.96797   0.00000  Uiso   1.00
H1615  H     0.74183   0.00847   0.68053   0.00000  Uiso   1.00
H1616  H     0.75879   0.28749   0.68076   0.00000  Uiso   1.00
O1617  O     0.90302   0.21585   0.72345   0.00000  Uiso   1.00
C1618  C     0.89835   0.25888   0.71410   0.00000  Uiso   1.00
H1619  H     0.89275   0.27526   0.74626   0.00000  Uiso   1.00
H1620  H     0.86397   0.26708   0.68894   0.00000  Uiso   1.00
C1621  C     0.94903   0.27529   0.69872   0.00000  Uiso   1.00
H1622  H     0.98178   0.27152   0.72688   0.00000  Uiso   1.00
H1623  H     0.95867   0.25704   0.66896   0.00000  Uiso   1.00
C1624  C     0.94399   0.32111   0.68573   0.00000  Uiso   1.00
H1625  H     0.91993   0.32418   0.98533   0.00000  Uiso   1.00
H1626  H     0.98322   0.00134   0.68351   0.00000  Uiso   1.00
H1627  H     0.92567   0.00584   0.71149   0.00000  Uiso   1.00
O1628  O     0.77316   0.10942   0.94566   0.00000  Uiso   1.00
C1629  C     0.71863   0.11747   0.94134   0.00000  Uiso   1.00
H1630  H     0.70363   0.11556   0.90457   0.00000  Uiso   1.00
H1631  H     0.70859   0.14890   0.95407   0.00000  Uiso   1.00
C1632  C     0.68959   0.08372   0.96433   0.00000  Uiso   1.00
H1633  H     0.69584   0.05308   0.94837   0.00000  Uiso   1.00
H1634  H     0.70488   0.08234   0.66769   0.00000  Uiso   1.00
C1635  C     0.96404   0.09234   0.95907   0.00000  Uiso   1.00
H1636  H     0.95652   0.12309   0.97434   0.00000  Uiso   1.00
H1637  H     0.94380   0.06804   0.97672   0.00000  Uiso   1.00
H1638  H     0.94739   0.09197   0.92246   0.00000  Uiso   1.00
C1639  C     0.16624   0.42009   0.83319   0.00000  Uiso   1.00
C1640  C     0.16527   0.58007   0.83357   0.00000  Uiso   1.00
C1641  C     0.06715   0.50075   0.82154   0.00000  Uiso   1.00
C1642  C     0.26611   0.50177   0.84500   0.00000  Uiso   1.00
C1643  C     0.01221   0.50029   0.81498   0.00000  Uiso   1.00
C1644  C     0.32075   0.50681   0.85073   0.00000  Uiso   1.00
C1645  C     0.13529   0.35420   0.79579   0.00000  Uiso   1.00
C1646  C     0.17710   0.64677   0.87522   0.00000  Uiso   1.00
C1647  C     0.13954   0.64474   0.79508   0.00000  Uiso   1.00
C1648  C     0.18178   0.35579   0.87318   0.00000  Uiso   1.00
C1649  C     0.16152   0.62437   0.83449   0.00000  Uiso   1.00
C1650  C     0.16197   0.37611   0.83330   0.00000  Uiso   1.00
C1651  C     0.19973   0.52598   0.69500   0.00000  Uiso   1.00
C1652  C     0.13461   0.47320   0.97209   0.00000  Uiso   1.00
C1653  C     0.19982   0.52554   0.98013   0.00000  Uiso   1.00
C1654  C     0.13482   0.47348   0.68681   0.00000  Uiso   1.00
H1655  H     0.32566   0.49276   0.78105   0.00000  Uiso   1.00
H1656  H     0.00724   0.51560   0.88421   0.00000  Uiso   1.00
H1657  H     0.12250   0.62741   0.76508   0.00000  Uiso   1.00
H1658  H     0.19864   0.37276   0.90353   0.00000  Uiso   1.00
H1659  H     0.22675   0.54529   0.96495   0.00000  Uiso   1.00
H1660  H     0.11053   0.45173   0.70229   0.00000  Uiso   1.00
N1661  N     0.16665   0.49999   0.95240   0.00000  Uiso   1.00
N1662  N     0.16668   0.50001   0.71427   0.00000  Uiso   1.00
O1663  O     0.16666   0.43892   0.87154   0.00000  Uiso   1.00
O1664  O     0.16667   0.56108   0.79513   0.00000  Uiso   1.00
O1665  O     0.16666   0.43893   0.79510   0.00000  Uiso   1.00
O1666  O     0.16667   0.56107   0.87157   0.00000  Uiso   1.00
O1667  O     0.09058   0.50000   0.86261   0.00000  Uiso   1.00
O1668  O     0.24275   0.50000   0.80405   0.00000  Uiso   1.00
O1669  O     0.09058   0.50000   0.78617   0.00000  Uiso   1.00
O1670  O     0.24275   0.50000   0.88050   0.00000  Uiso   1.00
Zn1671 Zn    0.16667   0.49999   0.88437   0.00000  Uiso   1.00
Zn1672 Zn    0.16667   0.50001   0.78229   0.00000  Uiso   1.00
O1673  O     0.10371   0.37339   0.76052   0.00000  Uiso   1.00
C1674  C     0.05820   0.39022   0.77623   0.00000  Uiso   1.00
H1675  H     0.03555   0.40647   0.74717   0.00000  Uiso   1.00
H1676  H     0.06814   0.41421   0.80318   0.00000  Uiso   1.00
C1677  C     0.02243   0.35692   0.79330   0.00000  Uiso   1.00
H1678  H     0.01402   0.66548   0.76709   0.00000  Uiso   1.00
H1679  H     0.04241   0.34255   0.82489   0.00000  Uiso   1.00
C1680  C     0.30433   0.37577   0.80403   0.00000  Uiso   1.00
H1681  H     0.27873   0.35083   0.81489   0.00000  Uiso   1.00
H1682  H     0.28326   0.39105   0.77349   0.00000  Uiso   1.00
H1683  H     0.31223   0.39916   0.83204   0.00000  Uiso   1.00
O1684  O     0.18698   0.62794   0.91721   0.00000  Uiso   1.00
C1685  C     0.13865   0.62228   0.93472   0.00000  Uiso   1.00
H1686  H     0.14142   0.59326   0.95469   0.00000  Uiso   1.00
H1687  H     0.10415   0.61744   0.90785   0.00000  Uiso   1.00
C1688  C     0.12793   0.65866   0.96583   0.00000  Uiso   1.00
H1689  H     0.16325   0.66583   0.99057   0.00000  Uiso   1.00
H1690  H     0.11799   0.35344   0.94503   0.00000  Uiso   1.00
C1691  C     0.08253   0.64822   0.99203   0.00000  Uiso   1.00
H1692  H     0.04643   0.64136   0.96797   0.00000  Uiso   1.00
H1693  H     0.07516   0.34180   0.68053   0.00000  Uiso   1.00
H1694  H     0.09213   0.62082   0.68076   0.00000  Uiso   1.00
O1695  O     0.23636   0.54919   0.72345   0.00000  Uiso   1.00
C1696  C     0.23169   0.59221   0.71410   0.00000  Uiso   1.00
H1697  H     0.22608   0.60859   0.74626   0.00000  Uiso   1.00
H1698  H     0.19730   0.60041   0.68894   0.00000  Uiso   1.00
C1699  C     0.28237   0.60863   0.69872   0.00000  Uiso   1.00
H1700  H     0.31512   0.60485   0.72688   0.00000  Uiso   1.00
H1701  H     0.29200   0.59037   0.66896   0.00000  Uiso   1.00
C1702  C     0.27732   0.65444   0.68573   0.00000  Uiso   1.00
H1703  H     0.25326   0.65751   0.98533   0.00000  Uiso   1.00
H1704  H     0.31655   0.33468   0.68351   0.00000  Uiso   1.00
H1705  H     0.25900   0.33917   0.71149   0.00000  Uiso   1.00
O1706  O     0.10649   0.44276   0.94566   0.00000  Uiso   1.00
C1707  C     0.05196   0.45080   0.94134   0.00000  Uiso   1.00
H1708  H     0.03696   0.44889   0.90457   0.00000  Uiso   1.00
H1709  H     0.04193   0.48223   0.95407   0.00000  Uiso   1.00
C1710  C     0.02292   0.41705   0.96433   0.00000  Uiso   1.00
H1711  H     0.02917   0.38641   0.94837   0.00000  Uiso   1.00
H1712  H     0.03821   0.41567   0.66769   0.00000  Uiso   1.00
C1713  C     0.29738   0.42567   0.95907   0.00000  Uiso   1.00
H1714  H     0.28986   0.45642   0.97434   0.00000  Uiso   1.00
H1715  H     0.27713   0.40137   0.97672   0.00000  Uiso   1.00
H1716  H     0.28073   0.42530   0.92246   0.00000  Uiso   1.00
C1717  C     0.49958   0.42009   0.83319   0.00000  Uiso   1.00
C1718  C     0.49860   0.58007   0.83357   0.00000  Uiso   1.00
C1719  C     0.40049   0.50075   0.82154   0.00000  Uiso   1.00
C1720  C     0.59944   0.50177   0.84500   0.00000  Uiso   1.00
C1721  C     0.34554   0.50029   0.81498   0.00000  Uiso   1.00
C1722  C     0.65408   0.50681   0.85073   0.00000  Uiso   1.00
C1723  C     0.46862   0.35420   0.79579   0.00000  Uiso   1.00
C1724  C     0.51043   0.64677   0.87522   0.00000  Uiso   1.00
C1725  C     0.47288   0.64474   0.79508   0.00000  Uiso   1.00
C1726  C     0.51511   0.35579   0.87318   0.00000  Uiso   1.00
C1727  C     0.49485   0.62437   0.83449   0.00000  Uiso   1.00
C1728  C     0.49530   0.37611   0.83330   0.00000  Uiso   1.00
C1729  C     0.53306   0.52598   0.69500   0.00000  Uiso   1.00
C1730  C     0.46794   0.47320   0.97209   0.00000  Uiso   1.00
C1731  C     0.53315   0.52554   0.98013   0.00000  Uiso   1.00
C1732  C     0.46815   0.47348   0.68681   0.00000  Uiso   1.00
H1733  H     0.65900   0.49276   0.78105   0.00000  Uiso   1.00
H1734  H     0.34057   0.51560   0.88421   0.00000  Uiso   1.00
H1735  H     0.45584   0.62741   0.76508   0.00000  Uiso   1.00
H1736  H     0.53197   0.37276   0.90353   0.00000  Uiso   1.00
H1737  H     0.56008   0.54529   0.96495   0.00000  Uiso   1.00
H1738  H     0.44386   0.45173   0.70229   0.00000  Uiso   1.00
N1739  N     0.49999   0.49999   0.95240   0.00000  Uiso   1.00
N1740  N     0.50001   0.50001   0.71427   0.00000  Uiso   1.00
O1741  O     0.50000   0.43892   0.87154   0.00000  Uiso   1.00
O1742  O     0.50000   0.56108   0.79513   0.00000  Uiso   1.00
O1743  O     0.50000   0.43893   0.79510   0.00000  Uiso   1.00
O1744  O     0.50000   0.56107   0.87157   0.00000  Uiso   1.00
O1745  O     0.42392   0.50000   0.86261   0.00000  Uiso   1.00
O1746  O     0.57608   0.50000   0.80405   0.00000  Uiso   1.00
O1747  O     0.42392   0.50000   0.78617   0.00000  Uiso   1.00
O1748  O     0.57608   0.50000   0.88050   0.00000  Uiso   1.00
Zn1749 Zn    0.50000   0.49999   0.88437   0.00000  Uiso   1.00
Zn1750 Zn    0.50000   0.50001   0.78229   0.00000  Uiso   1.00
O1751  O     0.43704   0.37339   0.76052   0.00000  Uiso   1.00
C1752  C     0.39154   0.39022   0.77623   0.00000  Uiso   1.00
H1753  H     0.36888   0.40647   0.74717   0.00000  Uiso   1.00
H1754  H     0.40147   0.41421   0.80318   0.00000  Uiso   1.00
C1755  C     0.35576   0.35692   0.79330   0.00000  Uiso   1.00
H1756  H     0.34735   0.66548   0.76709   0.00000  Uiso   1.00
H1757  H     0.37574   0.34255   0.82489   0.00000  Uiso   1.00
C1758  C     0.63766   0.37577   0.80403   0.00000  Uiso   1.00
H1759  H     0.61206   0.35083   0.81489   0.00000  Uiso   1.00
H1760  H     0.61659   0.39105   0.77349   0.00000  Uiso   1.00
H1761  H     0.64556   0.39916   0.83204   0.00000  Uiso   1.00
O1762  O     0.52032   0.62794   0.91721   0.00000  Uiso   1.00
C1763  C     0.47198   0.62228   0.93472   0.00000  Uiso   1.00
H1764  H     0.47476   0.59326   0.95469   0.00000  Uiso   1.00
H1765  H     0.43748   0.61744   0.90785   0.00000  Uiso   1.00
C1766  C     0.46127   0.65866   0.96583   0.00000  Uiso   1.00
H1767  H     0.49658   0.66583   0.99057   0.00000  Uiso   1.00
H1768  H     0.45132   0.35344   0.94503   0.00000  Uiso   1.00
C1769  C     0.41587   0.64822   0.99203   0.00000  Uiso   1.00
H1770  H     0.37977   0.64136   0.96797   0.00000  Uiso   1.00
H1771  H     0.40850   0.34180   0.68053   0.00000  Uiso   1.00
H1772  H     0.42546   0.62082   0.68076   0.00000  Uiso   1.00
O1773  O     0.56969   0.54919   0.72345   0.00000  Uiso   1.00
C1774  C     0.56502   0.59221   0.71410   0.00000  Uiso   1.00
H1775  H     0.55941   0.60859   0.74626   0.00000  Uiso   1.00
H1776  H     0.53063   0.60041   0.68894   0.00000  Uiso   1.00
C1777  C     0.61570   0.60863   0.69872   0.00000  Uiso   1.00
H1778  H     0.64845   0.60485   0.72688   0.00000  Uiso   1.00
H1779  H     0.62534   0.59037   0.66896   0.00000  Uiso   1.00
C1780  C     0.61066   0.65444   0.68573   0.00000  Uiso   1.00
H1781  H     0.58660   0.65751   0.98533   0.00000  Uiso   1.00
H1782  H     0.64988   0.33468   0.68351   0.00000  Uiso   1.00
H1783  H     0.59234   0.33917   0.71149   0.00000  Uiso   1.00
O1784  O     0.43983   0.44276   0.94566   0.00000  Uiso   1.00
C1785  C     0.38529   0.45080   0.94134   0.00000  Uiso   1.00
H1786  H     0.37030   0.44889   0.90457   0.00000  Uiso   1.00
H1787  H     0.37526   0.48223   0.95407   0.00000  Uiso   1.00
C1788  C     0.35626   0.41705   0.96433   0.00000  Uiso   1.00
H1789  H     0.36251   0.38641   0.94837   0.00000  Uiso   1.00
H1790  H     0.37154   0.41567   0.66769   0.00000  Uiso   1.00
C1791  C     0.63071   0.42567   0.95907   0.00000  Uiso   1.00
H1792  H     0.62319   0.45642   0.97434   0.00000  Uiso   1.00
H1793  H     0.61047   0.40137   0.97672   0.00000  Uiso   1.00
H1794  H     0.61406   0.42530   0.92246   0.00000  Uiso   1.00
C1795  C     0.83291   0.42009   0.83319   0.00000  Uiso   1.00
C1796  C     0.83194   0.58007   0.83357   0.00000  Uiso   1.00
C1797  C     0.73382   0.50075   0.82154   0.00000  Uiso   1.00
C1798  C     0.93277   0.50177   0.84500   0.00000  Uiso   1.00
C1799  C     0.67887   0.50029   0.81498   0.00000  Uiso   1.00
C1800  C     0.98742   0.50681   0.85073   0.00000  Uiso   1.00
C1801  C     0.80195   0.35420   0.79579   0.00000  Uiso   1.00
C1802  C     0.84377   0.64677   0.87522   0.00000  Uiso   1.00
C1803  C     0.80621   0.64474   0.79508   0.00000  Uiso   1.00
C1804  C     0.84844   0.35579   0.87318   0.00000  Uiso   1.00
C1805  C     0.82819   0.62437   0.83449   0.00000  Uiso   1.00
C1806  C     0.82864   0.37611   0.83330   0.00000  Uiso   1.00
C1807  C     0.86639   0.52598   0.69500   0.00000  Uiso   1.00
C1808  C     0.80127   0.47320   0.97209   0.00000  Uiso   1.00
C1809  C     0.86648   0.52554   0.98013   0.00000  Uiso   1.00
C1810  C     0.80148   0.47348   0.68681   0.00000  Uiso   1.00
H1811  H     0.99233   0.49276   0.78105   0.00000  Uiso   1.00
H1812  H     0.67390   0.51560   0.88421   0.00000  Uiso   1.00
H1813  H     0.78917   0.62741   0.76508   0.00000  Uiso   1.00
H1814  H     0.86531   0.37276   0.90353   0.00000  Uiso   1.00
H1815  H     0.89341   0.54529   0.96495   0.00000  Uiso   1.00
H1816  H     0.77720   0.45173   0.70229   0.00000  Uiso   1.00
N1817  N     0.83332   0.49999   0.95240   0.00000  Uiso   1.00
N1818  N     0.83335   0.50001   0.71427   0.00000  Uiso   1.00
O1819  O     0.83333   0.43892   0.87154   0.00000  Uiso   1.00
O1820  O     0.83334   0.56108   0.79513   0.00000  Uiso   1.00
O1821  O     0.83333   0.43893   0.79510   0.00000  Uiso   1.00
O1822  O     0.83334   0.56107   0.87157   0.00000  Uiso   1.00
O1823  O     0.75725   0.50000   0.86261   0.00000  Uiso   1.00
O1824  O     0.90942   0.50000   0.80405   0.00000  Uiso   1.00
O1825  O     0.75725   0.50000   0.78617   0.00000  Uiso   1.00
O1826  O     0.90942   0.50000   0.88050   0.00000  Uiso   1.00
Zn1827 Zn    0.83333   0.49999   0.88437   0.00000  Uiso   1.00
Zn1828 Zn    0.83333   0.50001   0.78229   0.00000  Uiso   1.00
O1829  O     0.77038   0.37339   0.76052   0.00000  Uiso   1.00
C1830  C     0.72487   0.39022   0.77623   0.00000  Uiso   1.00
H1831  H     0.70221   0.40647   0.74717   0.00000  Uiso   1.00
H1832  H     0.73481   0.41421   0.80318   0.00000  Uiso   1.00
C1833  C     0.68909   0.35692   0.79330   0.00000  Uiso   1.00
H1834  H     0.68069   0.66548   0.76709   0.00000  Uiso   1.00
H1835  H     0.70907   0.34255   0.82489   0.00000  Uiso   1.00
C1836  C     0.97100   0.37577   0.80403   0.00000  Uiso   1.00
H1837  H     0.94539   0.35083   0.81489   0.00000  Uiso   1.00
H1838  H     0.94993   0.39105   0.77349   0.00000  Uiso   1.00
H1839  H     0.97890   0.39916   0.83204   0.00000  Uiso   1.00
O1840  O     0.85365   0.62794   0.91721   0.00000  Uiso   1.00
C1841  C     0.80531   0.62228   0.93472   0.00000  Uiso   1.00
H1842  H     0.80809   0.59326   0.95469   0.00000  Uiso   1.00
H1843  H     0.77081   0.61744   0.90785   0.00000  Uiso   1.00
C1844  C     0.79460   0.65866   0.96583   0.00000  Uiso   1.00
H1845  H     0.82991   0.66583   0.99057   0.00000  Uiso   1.00
H1846  H     0.78466   0.35344   0.94503   0.00000  Uiso   1.00
C1847  C     0.74920   0.64822   0.99203   0.00000  Uiso   1.00
H1848  H     0.71310   0.64136   0.96797   0.00000  Uiso   1.00
H1849  H     0.74183   0.34180   0.68053   0.00000  Uiso   1.00
H1850  H     0.75879   0.62082   0.68076   0.00000  Uiso   1.00
O1851  O     0.90302   0.54919   0.72345   0.00000  Uiso   1.00
C1852  C     0.89835   0.59221   0.71410   0.00000  Uiso   1.00
H1853  H     0.89275   0.60859   0.74626   0.00000  Uiso   1.00
H1854  H     0.86397   0.60041   0.68894   0.00000  Uiso   1.00
C1855  C     0.94903   0.60863   0.69872   0.00000  Uiso   1.00
H1856  H     0.98178   0.60485   0.72688   0.00000  Uiso   1.00
H1857  H     0.95867   0.59037   0.66896   0.00000  Uiso   1.00
C1858  C     0.94399   0.65444   0.68573   0.00000  Uiso   1.00
H1859  H     0.91993   0.65751   0.98533   0.00000  Uiso   1.00
H1860  H     0.98322   0.33468   0.68351   0.00000  Uiso   1.00
H1861  H     0.92567   0.33917   0.71149   0.00000  Uiso   1.00
O1862  O     0.77316   0.44276   0.94566   0.00000  Uiso   1.00
C1863  C     0.71863   0.45080   0.94134   0.00000  Uiso   1.00
H1864  H     0.70363   0.44889   0.90457   0.00000  Uiso   1.00
H1865  H     0.70859   0.48223   0.95407   0.00000  Uiso   1.00
C1866  C     0.68959   0.41705   0.96433   0.00000  Uiso   1.00
H1867  H     0.69584   0.38641   0.94837   0.00000  Uiso   1.00
H1868  H     0.70488   0.41567   0.66769   0.00000  Uiso   1.00
C1869  C     0.96404   0.42567   0.95907   0.00000  Uiso   1.00
H1870  H     0.95652   0.45642   0.97434   0.00000  Uiso   1.00
H1871  H     0.94380   0.40137   0.97672   0.00000  Uiso   1.00
H1872  H     0.94739   0.42530   0.92246   0.00000  Uiso   1.00
C1873  C     0.16624   0.75342   0.83319   0.00000  Uiso   1.00
C1874  C     0.16527   0.91341   0.83357   0.00000  Uiso   1.00
C1875  C     0.06715   0.83409   0.82154   0.00000  Uiso   1.00
C1876  C     0.26611   0.83510   0.84500   0.00000  Uiso   1.00
C1877  C     0.01221   0.83362   0.81498   0.00000  Uiso   1.00
C1878  C     0.32075   0.84014   0.85073   0.00000  Uiso   1.00
C1879  C     0.13529   0.68753   0.79579   0.00000  Uiso   1.00
C1880  C     0.17710   0.98011   0.87522   0.00000  Uiso   1.00
C1881  C     0.13954   0.97807   0.79508   0.00000  Uiso   1.00
C1882  C     0.18178   0.68913   0.87318   0.00000  Uiso   1.00
C1883  C     0.16152   0.95771   0.83449   0.00000  Uiso   1.00
C1884  C     0.16197   0.70945   0.83330   0.00000  Uiso   1.00
C1885  C     0.19973   0.85931   0.69500   0.00000  Uiso   1.00
C1886  C     0.13461   0.80654   0.97209   0.00000  Uiso   1.00
C1887  C     0.19982   0.85887   0.98013   0.00000  Uiso   1.00
C1888  C     0.13482   0.80681   0.68681   0.00000  Uiso   1.00
H1889  H     0.32566   0.82609   0.78105   0.00000  Uiso   1.00
H1890  H     0.00724   0.84894   0.88421   0.00000  Uiso   1.00
H1891  H     0.12250   0.96074   0.76508   0.00000  Uiso   1.00
H1892  H     0.19864   0.70609   0.90353   0.00000  Uiso   1.00
H1893  H     0.22675   0.87863   0.96495   0.00000  Uiso   1.00
H1894  H     0.11053   0.78506   0.70229   0.00000  Uiso   1.00
N1895  N     0.16665   0.83332   0.95240   0.00000  Uiso   1.00
N1896  N     0.16668   0.83334   0.71427   0.00000  Uiso   1.00
O1897  O     0.16666   0.77225   0.87154   0.00000  Uiso   1.00
O1898  O     0.16667   0.89442   0.79513   0.00000  Uiso   1.00
O1899  O     0.16666   0.77226   0.79510   0.00000  Uiso   1.00
O1900  O     0.16667   0.89441   0.87157   0.00000  Uiso   1.00
O1901  O     0.09058   0.83333   0.86261   0.00000  Uiso   1.00
O1902  O     0.24275   0.83334   0.80405   0.00000  Uiso   1.00
O1903  O     0.09058   0.83334   0.78617   0.00000  Uiso   1.00
O1904  O     0.24275   0.83333   0.88050   0.00000  Uiso   1.00
Zn1905 Zn    0.16667   0.83333   0.88437   0.00000  Uiso   1.00
Zn1906 Zn    0.16667   0.83334   0.78229   0.00000  Uiso   1.00
O1907  O     0.10371   0.70672   0.76052   0.00000  Uiso   1.00
C1908  C     0.05820   0.72355   0.77623   0.00000  Uiso   1.00
H1909  H     0.03555   0.73981   0.74717   0.00000  Uiso   1.00
H1910  H     0.06814   0.74755   0.80318   0.00000  Uiso   1.00
C1911  C     0.02243   0.69026   0.79330   0.00000  Uiso   1.00
H1912  H     0.01402   0.99881   0.76709   0.00000  Uiso   1.00
H1913  H     0.04241   0.67588   0.82489   0.00000  Uiso   1.00
C1914  C     0.30433   0.70910   0.80403   0.00000  Uiso   1.00
H1915  H     0.27873   0.68417   0.81489   0.00000  Uiso   1.00
H1916  H     0.28326   0.72438   0.77349   0.00000  Uiso   1.00
H1917  H     0.31223   0.73249   0.83204   0.00000  Uiso   1.00
O1918  O     0.18698   0.96128   0.91721   0.00000  Uiso   1.00
C1919  C     0.13865   0.95561   0.93472   0.00000  Uiso   1.00
H1920  H     0.14142   0.92659   0.95469   0.00000  Uiso   1.00
H1921  H     0.10415   0.95078   0.90785   0.00000  Uiso   1.00
C1922  C     0.12793   0.99199   0.96583   0.00000  Uiso   1.00
H1923  H     0.16325   0.99916   0.99057   0.00000  Uiso   1.00
H1924  H     0.11799   0.68677   0.94503   0.00000  Uiso   1.00
C1925  C     0.08253   0.98155   0.99203   0.00000  Uiso   1.00
H1926  H     0.04643   0.97470   0.96797   0.00000  Uiso   1.00
H1927  H     0.07516   0.67514   0.68053   0.00000  Uiso   1.00
H1928  H     0.09213   0.95416   0.68076   0.00000  Uiso   1.00
O1929  O     0.23636   0.88252   0.72345   0.00000  Uiso   1.00
C1930  C     0.23169   0.92554   0.71410   0.00000  Uiso   1.00
H1931  H     0.22608   0.94193   0.74626   0.00000  Uiso   1.00
H1932  H     0.19730   0.93374   0.68894   0.00000  Uiso   1.00
C1933  C     0.28237   0.94196   0.69872   0.00000  Uiso   1.00
H1934  H     0.31512   0.93819   0.72688   0.00000  Uiso   1.00
H1935  H     0.29200   0.92370   0.66896   0.00000  Uiso   1.00
C1936  C     0.27732   0.98777   0.68573   0.00000  Uiso   1.00
H1937  H     0.25326   0.99084   0.98533   0.00000  Uiso   1.00
H1938  H     0.31655   0.66801   0.68351   0.00000  Uiso   1.00
H1939  H     0.25900   0.67250   0.71149   0.00000  Uiso   1.00
O1940  O     0.10649   0.77609   0.94566   0.00000  Uiso   1.00
C1941  C     0.05196   0.78413   0.94134   0.00000  Uiso   1.00
H1942  H     0.03696   0.78223   0.90457   0.00000  Uiso   1.00
H1943  H     0.04193   0.81556   0.95407   0.00000  Uiso   1.00
C1944  C     0.02292   0.75039   0.96433   0.00000  Uiso   1.00
H1945  H     0.02917   0.71974   0.94837   0.00000  Uiso   1.00
H1946  H     0.03821   0.74901   0.66769   0.00000  Uiso   1.00
C1947  C     0.29738   0.75900   0.95907   0.00000  Uiso   1.00
H1948  H     0.28986   0.78975   0.97434   0.00000  Uiso   1.00
H1949  H     0.27713   0.73471   0.97672   0.00000  Uiso   1.00
H1950  H     0.28073   0.75863   0.92246   0.00000  Uiso   1.00
C1951  C     0.49958   0.75342   0.83319   0.00000  Uiso   1.00
C1952  C     0.49860   0.91341   0.83357   0.00000  Uiso   1.00
C1953  C     0.40049   0.83409   0.82154   0.00000  Uiso   1.00
C1954  C     0.59944   0.83510   0.84500   0.00000  Uiso   1.00
C1955  C     0.34554   0.83362   0.81498   0.00000  Uiso   1.00
C1956  C     0.65408   0.84014   0.85073   0.00000  Uiso   1.00
C1957  C     0.46862   0.68753   0.79579   0.00000  Uiso   1.00
C1958  C     0.51043   0.98011   0.87522   0.00000  Uiso   1.00
C1959  C     0.47288   0.97807   0.79508   0.00000  Uiso   1.00
C1960  C     0.51511   0.68913   0.87318   0.00000  Uiso   1.00
C1961  C     0.49485   0.95771   0.83449   0.00000  Uiso   1.00
C1962  C     0.49530   0.70945   0.83330   0.00000  Uiso   1.00
C1963  C     0.53306   0.85931   0.69500   0.00000  Uiso   1.00
C1964  C     0.46794   0.80654   0.97209   0.00000  Uiso   1.00
C1965  C     0.53315   0.85887   0.98013   0.00000  Uiso   1.00
C1966  C     0.46815   0.80681   0.68681   0.00000  Uiso   1.00
H1967  H     0.65900   0.82609   0.78105   0.00000  Uiso   1.00
H1968  H     0.34057   0.84894   0.88421   0.00000  Uiso   1.00
H1969  H     0.45584   0.96074   0.76508   0.00000  Uiso   1.00
H1970  H     0.53197   0.70609   0.90353   0.00000  Uiso   1.00
H1971  H     0.56008   0.87863   0.96495   0.00000  Uiso   1.00
H1972  H     0.44386   0.78506   0.70229   0.00000  Uiso   1.00
N1973  N     0.49999   0.83332   0.95240   0.00000  Uiso   1.00
N1974  N     0.50001   0.83334   0.71427   0.00000  Uiso   1.00
O1975  O     0.50000   0.77225   0.87154   0.00000  Uiso   1.00
O1976  O     0.50000   0.89442   0.79513   0.00000  Uiso   1.00
O1977  O     0.50000   0.77226   0.79510   0.00000  Uiso   1.00
O1978  O     0.50000   0.89441   0.87157   0.00000  Uiso   1.00
O1979  O     0.42392   0.83333   0.86261   0.00000  Uiso   1.00
O1980  O     0.57608   0.83334   0.80405   0.00000  Uiso   1.00
O1981  O     0.42392   0.83334   0.78617   0.00000  Uiso   1.00
O1982  O     0.57608   0.83333   0.88050   0.00000  Uiso   1.00
Zn1983 Zn    0.50000   0.83333   0.88437   0.00000  Uiso   1.00
Zn1984 Zn    0.50000   0.83334   0.78229   0.00000  Uiso   1.00
O1985  O     0.43704   0.70672   0.76052   0.00000  Uiso   1.00
C1986  C     0.39154   0.72355   0.77623   0.00000  Uiso   1.00
H1987  H     0.36888   0.73981   0.74717   0.00000  Uiso   1.00
H1988  H     0.40147   0.74755   0.80318   0.00000  Uiso   1.00
C1989  C     0.35576   0.69026   0.79330   0.00000  Uiso   1.00
H1990  H     0.34735   0.99881   0.76709   0.00000  Uiso   1.00
H1991  H     0.37574   0.67588   0.82489   0.00000  Uiso   1.00
C1992  C     0.63766   0.70910   0.80403   0.00000  Uiso   1.00
H1993  H     0.61206   0.68417   0.81489   0.00000  Uiso   1.00
H1994  H     0.61659   0.72438   0.77349   0.00000  Uiso   1.00
H1995  H     0.64556   0.73249   0.83204   0.00000  Uiso   1.00
O1996  O     0.52032   0.96128   0.91721   0.00000  Uiso   1.00
C1997  C     0.47198   0.95561   0.93472   0.00000  Uiso   1.00
H1998  H     0.47476   0.92659   0.95469   0.00000  Uiso   1.00
H1999  H     0.43748   0.95078   0.90785   0.00000  Uiso   1.00
C2000  C     0.46127   0.99199   0.96583   0.00000  Uiso   1.00
H2001  H     0.49658   0.99916   0.99057   0.00000  Uiso   1.00
H2002  H     0.45132   0.68677   0.94503   0.00000  Uiso   1.00
C2003  C     0.41587   0.98155   0.99203   0.00000  Uiso   1.00
H2004  H     0.37977   0.97470   0.96797   0.00000  Uiso   1.00
H2005  H     0.40850   0.67514   0.68053   0.00000  Uiso   1.00
H2006  H     0.42546   0.95416   0.68076   0.00000  Uiso   1.00
O2007  O     0.56969   0.88252   0.72345   0.00000  Uiso   1.00
C2008  C     0.56502   0.92554   0.71410   0.00000  Uiso   1.00
H2009  H     0.55941   0.94193   0.74626   0.00000  Uiso   1.00
H2010  H     0.53063   0.93374   0.68894   0.00000  Uiso   1.00
C2011  C     0.61570   0.94196   0.69872   0.00000  Uiso   1.00
H2012  H     0.64845   0.93819   0.72688   0.00000  Uiso   1.00
H2013  H     0.62534   0.92370   0.66896   0.00000  Uiso   1.00
C2014  C     0.61066   0.98777   0.68573   0.00000  Uiso   1.00
H2015  H     0.58660   0.99084   0.98533   0.00000  Uiso   1.00
H2016  H     0.64988   0.66801   0.68351   0.00000  Uiso   1.00
H2017  H     0.59234   0.67250   0.71149   0.00000  Uiso   1.00
O2018  O     0.43983   0.77609   0.94566   0.00000  Uiso   1.00
C2019  C     0.38529   0.78413   0.94134   0.00000  Uiso   1.00
H2020  H     0.37030   0.78223   0.90457   0.00000  Uiso   1.00
H2021  H     0.37526   0.81556   0.95407   0.00000  Uiso   1.00
C2022  C     0.35626   0.75039   0.96433   0.00000  Uiso   1.00
H2023  H     0.36251   0.71974   0.94837   0.00000  Uiso   1.00
H2024  H     0.37154   0.74901   0.66769   0.00000  Uiso   1.00
C2025  C     0.63071   0.75900   0.95907   0.00000  Uiso   1.00
H2026  H     0.62319   0.78975   0.97434   0.00000  Uiso   1.00
H2027  H     0.61047   0.73471   0.97672   0.00000  Uiso   1.00
H2028  H     0.61406   0.75863   0.92246   0.00000  Uiso   1.00
C2029  C     0.83291   0.75342   0.83319   0.00000  Uiso   1.00
C2030  C     0.83194   0.91341   0.83357   0.00000  Uiso   1.00
C2031  C     0.73382   0.83409   0.82154   0.00000  Uiso   1.00
C2032  C     0.93277   0.83510   0.84500   0.00000  Uiso   1.00
C2033  C     0.67887   0.83362   0.81498   0.00000  Uiso   1.00
C2034  C     0.98742   0.84014   0.85073   0.00000  Uiso   1.00
C2035  C     0.80195   0.68753   0.79579   0.00000  Uiso   1.00
C2036  C     0.84377   0.98011   0.87522   0.00000  Uiso   1.00
C2037  C     0.80621   0.97807   0.79508   0.00000  Uiso   1.00
C2038  C     0.84844   0.68913   0.87318   0.00000  Uiso   1.00
C2039  C     0.82819   0.95771   0.83449   0.00000  Uiso   1.00
C2040  C     0.82864   0.70945   0.83330   0.00000  Uiso   1.00
C2041  C     0.86639   0.85931   0.69500   0.00000  Uiso   1.00
C2042  C     0.80127   0.80654   0.97209   0.00000  Uiso   1.00
C2043  C     0.86648   0.85887   0.98013   0.00000  Uiso   1.00
C2044  C     0.80148   0.80681   0.68681   0.00000  Uiso   1.00
H2045  H     0.99233   0.82609   0.78105   0.00000  Uiso   1.00
H2046  H     0.67390   0.84894   0.88421   0.00000  Uiso   1.00
H2047  H     0.78917   0.96074   0.76508   0.00000  Uiso   1.00
H2048  H     0.86531   0.70609   0.90353   0.00000  Uiso   1.00
H2049  H     0.89341   0.87863   0.96495   0.00000  Uiso   1.00
H2050  H     0.77720   0.78506   0.70229   0.00000  Uiso   1.00
N2051  N     0.83332   0.83332   0.95240   0.00000  Uiso   1.00
N2052  N     0.83335   0.83334   0.71427   0.00000  Uiso   1.00
O2053  O     0.83333   0.77225   0.87154   0.00000  Uiso   1.00
O2054  O     0.83334   0.89442   0.79513   0.00000  Uiso   1.00
O2055  O     0.83333   0.77226   0.79510   0.00000  Uiso   1.00
O2056  O     0.83334   0.89441   0.87157   0.00000  Uiso   1.00
O2057  O     0.75725   0.83333   0.86261   0.00000  Uiso   1.00
O2058  O     0.90942   0.83334   0.80405   0.00000  Uiso   1.00
O2059  O     0.75725   0.83334   0.78617   0.00000  Uiso   1.00
O2060  O     0.90942   0.83333   0.88050   0.00000  Uiso   1.00
Zn2061 Zn    0.83333   0.83333   0.88437   0.00000  Uiso   1.00
Zn2062 Zn    0.83333   0.83334   0.78229   0.00000  Uiso   1.00
O2063  O     0.77038   0.70672   0.76052   0.00000  Uiso   1.00
C2064  C     0.72487   0.72355   0.77623   0.00000  Uiso   1.00
H2065  H     0.70221   0.73981   0.74717   0.00000  Uiso   1.00
H2066  H     0.73481   0.74755   0.80318   0.00000  Uiso   1.00
C2067  C     0.68909   0.69026   0.79330   0.00000  Uiso   1.00
H2068  H     0.68069   0.99881   0.76709   0.00000  Uiso   1.00
H2069  H     0.70907   0.67588   0.82489   0.00000  Uiso   1.00
C2070  C     0.97100   0.70910   0.80403   0.00000  Uiso   1.00
H2071  H     0.94539   0.68417   0.81489   0.00000  Uiso   1.00
H2072  H     0.94993   0.72438   0.77349   0.00000  Uiso   1.00
H2073  H     0.97890   0.73249   0.83204   0.00000  Uiso   1.00
O2074  O     0.85365   0.96128   0.91721   0.00000  Uiso   1.00
C2075  C     0.80531   0.95561   0.93472   0.00000  Uiso   1.00
H2076  H     0.80809   0.92659   0.95469   0.00000  Uiso   1.00
H2077  H     0.77081   0.95078   0.90785   0.00000  Uiso   1.00
C2078  C     0.79460   0.99199   0.96583   0.00000  Uiso   1.00
H2079  H     0.82991   0.99916   0.99057   0.00000  Uiso   1.00
H2080  H     0.78466   0.68677   0.94503   0.00000  Uiso   1.00
C2081  C     0.74920   0.98155   0.99203   0.00000  Uiso   1.00
H2082  H     0.71310   0.97470   0.96797   0.00000  Uiso   1.00
H2083  H     0.74183   0.67514   0.68053   0.00000  Uiso   1.00
H2084  H     0.75879   0.95416   0.68076   0.00000  Uiso   1.00
O2085  O     0.90302   0.88252   0.72345   0.00000  Uiso   1.00
C2086  C     0.89835   0.92554   0.71410   0.00000  Uiso   1.00
H2087  H     0.89275   0.94193   0.74626   0.00000  Uiso   1.00
H2088  H     0.86397   0.93374   0.68894   0.00000  Uiso   1.00
C2089  C     0.94903   0.94196   0.69872   0.00000  Uiso   1.00
H2090  H     0.98178   0.93819   0.72688   0.00000  Uiso   1.00
H2091  H     0.95867   0.92370   0.66896   0.00000  Uiso   1.00
C2092  C     0.94399   0.98777   0.68573   0.00000  Uiso   1.00
H2093  H     0.91993   0.99084   0.98533   0.00000  Uiso   1.00
H2094  H     0.98322   0.66801   0.68351   0.00000  Uiso   1.00
H2095  H     0.92567   0.67250   0.71149   0.00000  Uiso   1.00
O2096  O     0.77316   0.77609   0.94566   0.00000  Uiso   1.00
C2097  C     0.71863   0.78413   0.94134   0.00000  Uiso   1.00
H2098  H     0.70363   0.78223   0.90457   0.00000  Uiso   1.00
H2099  H     0.70859   0.81556   0.95407   0.00000  Uiso   1.00
C2100  C     0.68959   0.75039   0.96433   0.00000  Uiso   1.00
H2101  H     0.69584   0.71974   0.94837   0.00000  Uiso   1.00
H2102  H     0.70488   0.74901   0.66769   0.00000  Uiso   1.00
C2103  C     0.96404   0.75900   0.95907   0.00000  Uiso   1.00
H2104  H     0.95652   0.78975   0.97434   0.00000  Uiso   1.00
H2105  H     0.94380   0.73471   0.97672   0.00000  Uiso   1.00
H2106  H     0.94739   0.75863   0.92246   0.00000  Uiso   1.00
loop_
_geom_bond_atom_site_label_1
_geom_bond_atom_site_label_2
_geom_bond_distance
_geom_bond_site_symmetry_2
_ccdc_geom_bond_type
C1     O25     1.281   .     A
C1     O27     1.287   .     A
C1     C12     1.416   .     S
C2     O26     1.292   .     A
C2     C11     1.427   .     S
C2     O28     1.282   .     A
C3     O31     1.277   .     A
C3     O29     1.284   .     A
C3     C5      1.400   .     S
C4     O32     1.281   .     A
C4     C6      1.400   .     S
C4     O30     1.280   .     A
C5     C162    1.323   1_455 S
C5     H173    1.089   1_455 S
C6     C83     1.323   .     S
C6     H96     1.086   .     S
C7     C12     1.405   .     A
C7     O35     1.387   .     S
C7     C477    1.380   1_545 S
C8     C11     1.408   .     A
C8     O46     1.382   .     S
C8     C244    1.368   .     S
C9     C11     1.398   .     A
C9     H19     1.083   .     S
C9     C241    1.380   .     S
C10    C12     1.392   .     A
C10    H20     1.084   .     S
C10    C476    1.368   1_545 S
C13    O57     1.385   .     S
C13    N24     1.369   .     A
C13    C1419   1.428   1_554 S
C14    N23     1.374   .     A
C14    O68     1.384   .     S
C14    C718    1.423   .     S
C15    N23     1.365   .     A
C15    H21     1.080   .     S
C15    C715    1.428   .     S
C16    H22     1.080   .     S
C16    N24     1.363   .     A
C16    C1418   1.423   1_554 S
H17    C83     1.089   .     S
H18    C162    1.086   1_455 S
N23    Zn33    2.015   .     S
N24    Zn34    2.015   .     S
O25    Zn33    1.995   .     S
O26    Zn34    1.995   .     S
O27    Zn34    2.002   .     S
O28    Zn33    2.002   .     S
O29    Zn33    1.975   .     S
O30    Zn34    1.975   .     S
O31    Zn34    1.975   .     S
O32    Zn33    1.975   .     S
O35    C36     1.424   .     S
C36    H37     1.110   .     S
C36    H38     1.108   .     S
C36    C39     1.539   .     S
C39    H41     1.111   .     S
C39    H508    1.106   1_545 S
C39    C198    1.528   1_455 S
H40    C273    1.106   .     S
C42    H44     1.111   .     S
C42    H43     1.111   .     S
C42    H45     1.111   .     S
C42    C117    1.528   .     S
O46    C47     1.421   .     S
C47    H49     1.118   .     S
C47    C50     1.531   .     S
C47    H48     1.107   .     S
C50    H51     1.109   .     S
C50    C53     1.523   .     S
C50    H286    1.110   .     S
H52    C518    1.110   1_545 S
C53    H54     1.111   .     S
C53    H991    1.107   .     S
C53    H758    1.111   .     S
H55    C1925   1.107   1_544 S
H56    C1457   1.111   1_554 S
O57    C58     1.415   .     S
C58    C61     1.529   .     S
C58    H60     1.112   .     S
C58    H59     1.111   .     S
C61    C64     1.527   .     S
C61    H62     1.111   .     S
C61    H63     1.110   .     S
C64    H1469   1.108   1_554 S
C64    H300    1.106   .     S
C64    H301    1.110   .     S
H65    C766    1.108   .     S
H66    C532    1.106   1_545 S
H67    C532    1.110   1_545 S
O68    C69     1.416   .     S
C69    H71     1.118   .     S
C69    H70     1.107   .     S
C69    C72     1.529   .     S
C72    H73     1.110   .     S
C72    H776    1.107   .     S
C72    C231    1.528   1_455 S
H74    C1476   1.107   1_554 S
C75    H76     1.111   .     S
C75    H77     1.109   .     S
C75    H78     1.111   .     S
C75    C150    1.528   .     S
C79    O103    1.281   .     A
C79    O105    1.287   .     A
C79    C90     1.416   .     S
C80    O104    1.292   .     A
C80    C89     1.427   .     S
C80    O106    1.282   .     A
C81    O109    1.277   .     A
C81    O107    1.284   .     A
C81    C83     1.400   .     S
C82    O110    1.281   .     A
C82    C84     1.400   .     S
C82    O108    1.280   .     A
C84    C161    1.323   .     S
C84    H174    1.086   .     S
C85    C90     1.405   .     A
C85    O113    1.387   .     S
C85    C555    1.380   1_545 S
C86    C89     1.408   .     A
C86    O124    1.382   .     S
C86    C322    1.368   .     S
C87    C89     1.398   .     A
C87    H97     1.083   .     S
C87    C319    1.380   .     S
C88    C90     1.392   .     A
C88    H98     1.084   .     S
C88    C554    1.368   1_545 S
C91    O135    1.385   .     S
C91    N102    1.369   .     A
C91    C1497   1.428   1_554 S
C92    N101    1.374   .     A
C92    O146    1.384   .     S
C92    C796    1.423   .     S
C93    N101    1.365   .     A
C93    H99     1.080   .     S
C93    C793    1.428   .     S
C94    H100    1.080   .     S
C94    N102    1.363   .     A
C94    C1496   1.423   1_554 S
H95    C161    1.089   .     S
N101   Zn111   2.015   .     S
N102   Zn112   2.015   .     S
O103   Zn111   1.995   .     S
O104   Zn112   1.995   .     S
O105   Zn112   2.002   .     S
O106   Zn111   2.002   .     S
O107   Zn111   1.975   .     S
O108   Zn112   1.975   .     S
O109   Zn112   1.975   .     S
O110   Zn111   1.975   .     S
O113   C114    1.424   .     S
C114   H115    1.110   .     S
C114   H116    1.108   .     S
C114   C117    1.539   .     S
C117   H119    1.111   .     S
C117   H586    1.106   1_545 S
H118   C351    1.106   .     S
C120   H122    1.111   .     S
C120   H121    1.111   .     S
C120   H123    1.111   .     S
C120   C195    1.528   .     S
O124   C125    1.421   .     S
C125   H127    1.118   .     S
C125   C128    1.531   .     S
C125   H126    1.107   .     S
C128   H129    1.109   .     S
C128   C131    1.523   .     S
C128   H364    1.110   .     S
H130   C596    1.110   1_545 S
C131   H132    1.111   .     S
C131   H1069   1.107   .     S
C131   H836    1.111   .     S
H133   C2003   1.107   1_544 S
H134   C1535   1.111   1_554 S
O135   C136    1.415   .     S
C136   C139    1.529   .     S
C136   H138    1.112   .     S
C136   H137    1.111   .     S
C139   C142    1.527   .     S
C139   H140    1.111   .     S
C139   H141    1.110   .     S
C142   H1547   1.108   1_554 S
C142   H378    1.106   .     S
C142   H379    1.110   .     S
H143   C844    1.108   .     S
H144   C610    1.106   1_545 S
H145   C610    1.110   1_545 S
O146   C147    1.416   .     S
C147   H149    1.118   .     S
C147   H148    1.107   .     S
C147   C150    1.529   .     S
C150   H151    1.110   .     S
C150   H854    1.107   .     S
H152   C1554   1.107   1_554 S
C153   H154    1.111   .     S
C153   H155    1.109   .     S
C153   H156    1.111   .     S
C153   C228    1.528   .     S
C157   O181    1.281   .     A
C157   O183    1.287   .     A
C157   C168    1.416   .     S
C158   O182    1.292   .     A
C158   C167    1.427   .     S
C158   O184    1.282   .     A
C159   O187    1.277   .     A
C159   O185    1.284   .     A
C159   C161    1.400   .     S
C160   O188    1.281   .     A
C160   C162    1.400   .     S
C160   O186    1.280   .     A
C162   C5      1.323   1_655 S
C162   H18     1.086   1_655 S
C163   C168    1.405   .     A
C163   O191    1.387   .     S
C163   C633    1.380   1_545 S
C164   C167    1.408   .     A
C164   O202    1.382   .     S
C164   C400    1.368   .     S
C165   C167    1.398   .     A
C165   H175    1.083   .     S
C165   C397    1.380   .     S
C166   C168    1.392   .     A
C166   H176    1.084   .     S
C166   C632    1.368   1_545 S
C169   O213    1.385   .     S
C169   N180    1.369   .     A
C169   C1575   1.428   1_554 S
C170   N179    1.374   .     A
C170   O224    1.384   .     S
C170   C874    1.423   .     S
C171   N179    1.365   .     A
C171   H177    1.080   .     S
C171   C871    1.428   .     S
C172   H178    1.080   .     S
C172   N180    1.363   .     A
C172   C1574   1.423   1_554 S
H173   C5      1.089   1_655 S
N179   Zn189   2.015   .     S
N180   Zn190   2.015   .     S
O181   Zn189   1.995   .     S
O182   Zn190   1.995   .     S
O183   Zn190   2.002   .     S
O184   Zn189   2.002   .     S
O185   Zn189   1.975   .     S
O186   Zn190   1.975   .     S
O187   Zn190   1.975   .     S
O188   Zn189   1.975   .     S
O191   C192    1.424   .     S
C192   H193    1.110   .     S
C192   H194    1.108   .     S
C192   C195    1.539   .     S
C195   H197    1.111   .     S
C195   H664    1.106   1_545 S
H196   C429    1.106   .     S
C198   H200    1.111   .     S
C198   H199    1.111   .     S
C198   H201    1.111   .     S
C198   C39     1.528   1_655 S
O202   C203    1.421   .     S
C203   H205    1.118   .     S
C203   C206    1.531   .     S
C203   H204    1.107   .     S
C206   H207    1.109   .     S
C206   C209    1.523   .     S
C206   H442    1.110   .     S
H208   C674    1.110   1_545 S
C209   H210    1.111   .     S
C209   H1147   1.107   .     S
C209   H914    1.111   .     S
H211   C2081   1.107   1_544 S
H212   C1613   1.111   1_554 S
O213   C214    1.415   .     S
C214   C217    1.529   .     S
C214   H216    1.112   .     S
C214   H215    1.111   .     S
C217   C220    1.527   .     S
C217   H218    1.111   .     S
C217   H219    1.110   .     S
C220   H1625   1.108   1_554 S
C220   H456    1.106   .     S
C220   H457    1.110   .     S
H221   C922    1.108   .     S
H222   C688    1.106   1_545 S
H223   C688    1.110   1_545 S
O224   C225    1.416   .     S
C225   H227    1.118   .     S
C225   H226    1.107   .     S
C225   C228    1.529   .     S
C228   H229    1.110   .     S
C228   H932    1.107   .     S
H230   C1632   1.107   1_554 S
C231   H232    1.111   .     S
C231   H233    1.109   .     S
C231   H234    1.111   .     S
C231   C72     1.528   1_655 S
C235   O259    1.281   .     A
C235   O261    1.287   .     A
C235   C246    1.416   .     S
C236   O260    1.292   .     A
C236   C245    1.427   .     S
C236   O262    1.282   .     A
C237   O265    1.277   .     A
C237   O263    1.284   .     A
C237   C239    1.400   .     S
C238   O266    1.281   .     A
C238   C240    1.400   .     S
C238   O264    1.280   .     A
C239   C396    1.323   1_455 S
C239   H407    1.089   1_455 S
C240   C317    1.323   .     S
C240   H330    1.086   .     S
C241   C246    1.405   .     A
C241   O269    1.387   .     S
C242   C245    1.408   .     A
C242   O280    1.382   .     S
C242   C478    1.368   .     S
C243   C245    1.398   .     A
C243   H253    1.083   .     S
C243   C475    1.380   .     S
C244   C246    1.392   .     A
C244   H254    1.084   .     S
C247   O291    1.385   .     S
C247   N258    1.369   .     A
C247   C1653   1.428   1_554 S
C248   N257    1.374   .     A
C248   O302    1.384   .     S
C248   C952    1.423   .     S
C249   N257    1.365   .     A
C249   H255    1.080   .     S
C249   C949    1.428   .     S
C250   H256    1.080   .     S
C250   N258    1.363   .     A
C250   C1652   1.423   1_554 S
H251   C317    1.089   .     S
H252   C396    1.086   1_455 S
N257   Zn267   2.015   .     S
N258   Zn268   2.015   .     S
O259   Zn267   1.995   .     S
O260   Zn268   1.995   .     S
O261   Zn268   2.002   .     S
O262   Zn267   2.002   .     S
O263   Zn267   1.975   .     S
O264   Zn268   1.975   .     S
O265   Zn268   1.975   .     S
O266   Zn267   1.975   .     S
O269   C270    1.424   .     S
C270   H271    1.110   .     S
C270   H272    1.108   .     S
C270   C273    1.539   .     S
C273   H275    1.111   .     S
C273   C432    1.528   1_455 S
H274   C507    1.106   .     S
C276   H278    1.111   .     S
C276   H277    1.111   .     S
C276   H279    1.111   .     S
C276   C351    1.528   .     S
O280   C281    1.421   .     S
C281   H283    1.118   .     S
C281   C284    1.531   .     S
C281   H282    1.107   .     S
C284   H285    1.109   .     S
C284   C287    1.523   .     S
C284   H520    1.110   .     S
C287   H288    1.111   .     S
C287   H1225   1.107   .     S
C287   H992    1.111   .     S
H289   C1457   1.107   1_554 S
H290   C1691   1.111   1_554 S
O291   C292    1.415   .     S
C292   C295    1.529   .     S
C292   H294    1.112   .     S
C292   H293    1.111   .     S
C295   C298    1.527   .     S
C295   H296    1.111   .     S
C295   H297    1.110   .     S
C298   H1703   1.108   1_554 S
C298   H534    1.106   .     S
C298   H535    1.110   .     S
H299   C1000   1.108   .     S
O302   C303    1.416   .     S
C303   H305    1.118   .     S
C303   H304    1.107   .     S
C303   C306    1.529   .     S
C306   H307    1.110   .     S
C306   H1010   1.107   .     S
C306   C465    1.528   1_455 S
H308   C1710   1.107   1_554 S
C309   H310    1.111   .     S
C309   H311    1.109   .     S
C309   H312    1.111   .     S
C309   C384    1.528   .     S
C313   O337    1.281   .     A
C313   O339    1.287   .     A
C313   C324    1.416   .     S
C314   O338    1.292   .     A
C314   C323    1.427   .     S
C314   O340    1.282   .     A
C315   O343    1.277   .     A
C315   O341    1.284   .     A
C315   C317    1.400   .     S
C316   O344    1.281   .     A
C316   C318    1.400   .     S
C316   O342    1.280   .     A
C318   C395    1.323   .     S
C318   H408    1.086   .     S
C319   C324    1.405   .     A
C319   O347    1.387   .     S
C320   C323    1.408   .     A
C320   O358    1.382   .     S
C320   C556    1.368   .     S
C321   C323    1.398   .     A
C321   H331    1.083   .     S
C321   C553    1.380   .     S
C322   C324    1.392   .     A
C322   H332    1.084   .     S
C325   O369    1.385   .     S
C325   N336    1.369   .     A
C325   C1731   1.428   1_554 S
C326   N335    1.374   .     A
C326   O380    1.384   .     S
C326   C1030   1.423   .     S
C327   N335    1.365   .     A
C327   H333    1.080   .     S
C327   C1027   1.428   .     S
C328   H334    1.080   .     S
C328   N336    1.363   .     A
C328   C1730   1.423   1_554 S
H329   C395    1.089   .     S
N335   Zn345   2.015   .     S
N336   Zn346   2.015   .     S
O337   Zn345   1.995   .     S
O338   Zn346   1.995   .     S
O339   Zn346   2.002   .     S
O340   Zn345   2.002   .     S
O341   Zn345   1.975   .     S
O342   Zn346   1.975   .     S
O343   Zn346   1.975   .     S
O344   Zn345   1.975   .     S
O347   C348    1.424   .     S
C348   H349    1.110   .     S
C348   H350    1.108   .     S
C348   C351    1.539   .     S
C351   H353    1.111   .     S
H352   C585    1.106   .     S
C354   H356    1.111   .     S
C354   H355    1.111   .     S
C354   H357    1.111   .     S
C354   C429    1.528   .     S
O358   C359    1.421   .     S
C359   H361    1.118   .     S
C359   C362    1.531   .     S
C359   H360    1.107   .     S
C362   H363    1.109   .     S
C362   C365    1.523   .     S
C362   H598    1.110   .     S
C365   H366    1.111   .     S
C365   H1303   1.107   .     S
C365   H1070   1.111   .     S
H367   C1535   1.107   1_554 S
H368   C1769   1.111   1_554 S
O369   C370    1.415   .     S
C370   C373    1.529   .     S
C370   H372    1.112   .     S
C370   H371    1.111   .     S
C373   C376    1.527   .     S
C373   H374    1.111   .     S
C373   H375    1.110   .     S
C376   H1781   1.108   1_554 S
C376   H612    1.106   .     S
C376   H613    1.110   .     S
H377   C1078   1.108   .     S
O380   C381    1.416   .     S
C381   H383    1.118   .     S
C381   H382    1.107   .     S
C381   C384    1.529   .     S
C384   H385    1.110   .     S
C384   H1088   1.107   .     S
H386   C1788   1.107   1_554 S
C387   H388    1.111   .     S
C387   H389    1.109   .     S
C387   H390    1.111   .     S
C387   C462    1.528   .     S
C391   O415    1.281   .     A
C391   O417    1.287   .     A
C391   C402    1.416   .     S
C392   O416    1.292   .     A
C392   C401    1.427   .     S
C392   O418    1.282   .     A
C393   O421    1.277   .     A
C393   O419    1.284   .     A
C393   C395    1.400   .     S
C394   O422    1.281   .     A
C394   C396    1.400   .     S
C394   O420    1.280   .     A
C396   C239    1.323   1_655 S
C396   H252    1.086   1_655 S
C397   C402    1.405   .     A
C397   O425    1.387   .     S
C398   C401    1.408   .     A
C398   O436    1.382   .     S
C398   C634    1.368   .     S
C399   C401    1.398   .     A
C399   H409    1.083   .     S
C399   C631    1.380   .     S
C400   C402    1.392   .     A
C400   H410    1.084   .     S
C403   O447    1.385   .     S
C403   N414    1.369   .     A
C403   C1809   1.428   1_554 S
C404   N413    1.374   .     A
C404   O458    1.384   .     S
C404   C1108   1.423   .     S
C405   N413    1.365   .     A
C405   H411    1.080   .     S
C405   C1105   1.428   .     S
C406   H412    1.080   .     S
C406   N414    1.363   .     A
C406   C1808   1.423   1_554 S
H407   C239    1.089   1_655 S
N413   Zn423   2.015   .     S
N414   Zn424   2.015   .     S
O415   Zn423   1.995   .     S
O416   Zn424   1.995   .     S
O417   Zn424   2.002   .     S
O418   Zn423   2.002   .     S
O419   Zn423   1.975   .     S
O420   Zn424   1.975   .     S
O421   Zn424   1.975   .     S
O422   Zn423   1.975   .     S
O425   C426    1.424   .     S
C426   H427    1.110   .     S
C426   H428    1.108   .     S
C426   C429    1.539   .     S
C429   H431    1.111   .     S
H430   C663    1.106   .     S
C432   H434    1.111   .     S
C432   H433    1.111   .     S
C432   H435    1.111   .     S
C432   C273    1.528   1_655 S
O436   C437    1.421   .     S
C437   H439    1.118   .     S
C437   C440    1.531   .     S
C437   H438    1.107   .     S
C440   H441    1.109   .     S
C440   C443    1.523   .     S
C440   H676    1.110   .     S
C443   H444    1.111   .     S
C443   H1381   1.107   .     S
C443   H1148   1.111   .     S
H445   C1613   1.107   1_554 S
H446   C1847   1.111   1_554 S
O447   C448    1.415   .     S
C448   C451    1.529   .     S
C448   H450    1.112   .     S
C448   H449    1.111   .     S
C451   C454    1.527   .     S
C451   H452    1.111   .     S
C451   H453    1.110   .     S
C454   H1859   1.108   1_554 S
C454   H690    1.106   .     S
C454   H691    1.110   .     S
H455   C1156   1.108   .     S
O458   C459    1.416   .     S
C459   H461    1.118   .     S
C459   H460    1.107   .     S
C459   C462    1.529   .     S
C462   H463    1.110   .     S
C462   H1166   1.107   .     S
H464   C1866   1.107   1_554 S
C465   H466    1.111   .     S
C465   H467    1.109   .     S
C465   H468    1.111   .     S
C465   C306    1.528   1_655 S
C469   O493    1.281   .     A
C469   O495    1.287   .     A
C469   C480    1.416   .     S
C470   O494    1.292   .     A
C470   C479    1.427   .     S
C470   O496    1.282   .     A
C471   O499    1.277   .     A
C471   O497    1.284   .     A
C471   C473    1.400   .     S
C472   O500    1.281   .     A
C472   C474    1.400   .     S
C472   O498    1.280   .     A
C473   C630    1.323   1_455 S
C473   H641    1.089   1_455 S
C474   C551    1.323   .     S
C474   H564    1.086   .     S
C475   C480    1.405   .     A
C475   O503    1.387   .     S
C476   C479    1.408   .     A
C476   O514    1.382   .     S
C476   C10     1.368   1_565 S
C477   C479    1.398   .     A
C477   H487    1.083   .     S
C477   C7      1.380   1_565 S
C478   C480    1.392   .     A
C478   H488    1.084   .     S
C481   O525    1.385   .     S
C481   N492    1.369   .     A
C481   C1887   1.428   1_554 S
C482   N491    1.374   .     A
C482   O536    1.384   .     S
C482   C1186   1.423   .     S
C483   N491    1.365   .     A
C483   H489    1.080   .     S
C483   C1183   1.428   .     S
C484   H490    1.080   .     S
C484   N492    1.363   .     A
C484   C1886   1.423   1_554 S
H485   C551    1.089   .     S
H486   C630    1.086   1_455 S
N491   Zn501   2.015   .     S
N492   Zn502   2.015   .     S
O493   Zn501   1.995   .     S
O494   Zn502   1.995   .     S
O495   Zn502   2.002   .     S
O496   Zn501   2.002   .     S
O497   Zn501   1.975   .     S
O498   Zn502   1.975   .     S
O499   Zn502   1.975   .     S
O500   Zn501   1.975   .     S
O503   C504    1.424   .     S
C504   H505    1.110   .     S
C504   H506    1.108   .     S
C504   C507    1.539   .     S
C507   H509    1.111   .     S
C507   C666    1.528   1_455 S
H508   C39     1.106   1_565 S
C510   H512    1.111   .     S
C510   H511    1.111   .     S
C510   H513    1.111   .     S
C510   C585    1.528   .     S
O514   C515    1.421   .     S
C515   H517    1.118   .     S
C515   C518    1.531   .     S
C515   H516    1.107   .     S
C518   H519    1.109   .     S
C518   C521    1.523   .     S
C518   H52     1.110   1_565 S
C521   H522    1.111   .     S
C521   H757    1.107   1_565 S
C521   H1226   1.111   .     S
H523   C1691   1.107   1_554 S
H524   C1925   1.111   1_554 S
O525   C526    1.415   .     S
C526   C529    1.529   .     S
C526   H528    1.112   .     S
C526   H527    1.111   .     S
C529   C532    1.527   .     S
C529   H530    1.111   .     S
C529   H531    1.110   .     S
C532   H1937   1.108   1_554 S
C532   H66     1.106   1_565 S
C532   H67     1.110   1_565 S
H533   C1234   1.108   .     S
O536   C537    1.416   .     S
C537   H539    1.118   .     S
C537   H538    1.107   .     S
C537   C540    1.529   .     S
C540   H541    1.110   .     S
C540   H1244   1.107   .     S
C540   C699    1.528   1_455 S
H542   C1944   1.107   1_554 S
C543   H544    1.111   .     S
C543   H545    1.109   .     S
C543   H546    1.111   .     S
C543   C618    1.528   .     S
C547   O571    1.281   .     A
C547   O573    1.287   .     A
C547   C558    1.416   .     S
C548   O572    1.292   .     A
C548   C557    1.427   .     S
C548   O574    1.282   .     A
C549   O577    1.277   .     A
C549   O575    1.284   .     A
C549   C551    1.400   .     S
C550   O578    1.281   .     A
C550   C552    1.400   .     S
C550   O576    1.280   .     A
C552   C629    1.323   .     S
C552   H642    1.086   .     S
C553   C558    1.405   .     A
C553   O581    1.387   .     S
C554   C557    1.408   .     A
C554   O592    1.382   .     S
C554   C88     1.368   1_565 S
C555   C557    1.398   .     A
C555   H565    1.083   .     S
C555   C85     1.380   1_565 S
C556   C558    1.392   .     A
C556   H566    1.084   .     S
C559   O603    1.385   .     S
C559   N570    1.369   .     A
C559   C1965   1.428   1_554 S
C560   N569    1.374   .     A
C560   O614    1.384   .     S
C560   C1264   1.423   .     S
C561   N569    1.365   .     A
C561   H567    1.080   .     S
C561   C1261   1.428   .     S
C562   H568    1.080   .     S
C562   N570    1.363   .     A
C562   C1964   1.423   1_554 S
H563   C629    1.089   .     S
N569   Zn579   2.015   .     S
N570   Zn580   2.015   .     S
O571   Zn579   1.995   .     S
O572   Zn580   1.995   .     S
O573   Zn580   2.002   .     S
O574   Zn579   2.002   .     S
O575   Zn579   1.975   .     S
O576   Zn580   1.975   .     S
O577   Zn580   1.975   .     S
O578   Zn579   1.975   .     S
O581   C582    1.424   .     S
C582   H583    1.110   .     S
C582   H584    1.108   .     S
C582   C585    1.539   .     S
C585   H587    1.111   .     S
H586   C117    1.106   1_565 S
C588   H590    1.111   .     S
C588   H589    1.111   .     S
C588   H591    1.111   .     S
C588   C663    1.528   .     S
O592   C593    1.421   .     S
C593   H595    1.118   .     S
C593   C596    1.531   .     S
C593   H594    1.107   .     S
C596   H597    1.109   .     S
C596   C599    1.523   .     S
C596   H130    1.110   1_565 S
C599   H600    1.111   .     S
C599   H835    1.107   1_565 S
C599   H1304   1.111   .     S
H601   C1769   1.107   1_554 S
H602   C2003   1.111   1_554 S
O603   C604    1.415   .     S
C604   C607    1.529   .     S
C604   H606    1.112   .     S
C604   H605    1.111   .     S
C607   C610    1.527   .     S
C607   H608    1.111   .     S
C607   H609    1.110   .     S
C610   H2015   1.108   1_554 S
C610   H144    1.106   1_565 S
C610   H145    1.110   1_565 S
H611   C1312   1.108   .     S
O614   C615    1.416   .     S
C615   H617    1.118   .     S
C615   H616    1.107   .     S
C615   C618    1.529   .     S
C618   H619    1.110   .     S
C618   H1322   1.107   .     S
H620   C2022   1.107   1_554 S
C621   H622    1.111   .     S
C621   H623    1.109   .     S
C621   H624    1.111   .     S
C621   C696    1.528   .     S
C625   O649    1.281   .     A
C625   O651    1.287   .     A
C625   C636    1.416   .     S
C626   O650    1.292   .     A
C626   C635    1.427   .     S
C626   O652    1.282   .     A
C627   O655    1.277   .     A
C627   O653    1.284   .     A
C627   C629    1.400   .     S
C628   O656    1.281   .     A
C628   C630    1.400   .     S
C628   O654    1.280   .     A
C630   C473    1.323   1_655 S
C630   H486    1.086   1_655 S
C631   C636    1.405   .     A
C631   O659    1.387   .     S
C632   C635    1.408   .     A
C632   O670    1.382   .     S
C632   C166    1.368   1_565 S
C633   C635    1.398   .     A
C633   H643    1.083   .     S
C633   C163    1.380   1_565 S
C634   C636    1.392   .     A
C634   H644    1.084   .     S
C637   O681    1.385   .     S
C637   N648    1.369   .     A
C637   C2043   1.428   1_554 S
C638   N647    1.374   .     A
C638   O692    1.384   .     S
C638   C1342   1.423   .     S
C639   N647    1.365   .     A
C639   H645    1.080   .     S
C639   C1339   1.428   .     S
C640   H646    1.080   .     S
C640   N648    1.363   .     A
C640   C2042   1.423   1_554 S
H641   C473    1.089   1_655 S
N647   Zn657   2.015   .     S
N648   Zn658   2.015   .     S
O649   Zn657   1.995   .     S
O650   Zn658   1.995   .     S
O651   Zn658   2.002   .     S
O652   Zn657   2.002   .     S
O653   Zn657   1.975   .     S
O654   Zn658   1.975   .     S
O655   Zn658   1.975   .     S
O656   Zn657   1.975   .     S
O659   C660    1.424   .     S
C660   H661    1.110   .     S
C660   H662    1.108   .     S
C660   C663    1.539   .     S
C663   H665    1.111   .     S
H664   C195    1.106   1_565 S
C666   H668    1.111   .     S
C666   H667    1.111   .     S
C666   H669    1.111   .     S
C666   C507    1.528   1_655 S
O670   C671    1.421   .     S
C671   H673    1.118   .     S
C671   C674    1.531   .     S
C671   H672    1.107   .     S
C674   H675    1.109   .     S
C674   C677    1.523   .     S
C674   H208    1.110   1_565 S
C677   H678    1.111   .     S
C677   H913    1.107   1_565 S
C677   H1382   1.111   .     S
H679   C1847   1.107   1_554 S
H680   C2081   1.111   1_554 S
O681   C682    1.415   .     S
C682   C685    1.529   .     S
C682   H684    1.112   .     S
C682   H683    1.111   .     S
C685   C688    1.527   .     S
C685   H686    1.111   .     S
C685   H687    1.110   .     S
C688   H2093   1.108   1_554 S
C688   H222    1.106   1_565 S
C688   H223    1.110   1_565 S
H689   C1390   1.108   .     S
O692   C693    1.416   .     S
C693   H695    1.118   .     S
C693   H694    1.107   .     S
C693   C696    1.529   .     S
C696   H697    1.110   .     S
C696   H1400   1.107   .     S
H698   C2100   1.107   1_554 S
C699   H700    1.111   .     S
C699   H701    1.109   .     S
C699   H702    1.111   .     S
C699   C540    1.528   1_655 S
C703   O727    1.281   .     A
C703   O729    1.287   .     A
C703   C714    1.416   .     S
C704   O728    1.292   .     A
C704   C713    1.427   .     S
C704   O730    1.282   .     A
C705   O733    1.277   .     A
C705   O731    1.284   .     A
C705   C707    1.400   .     S
C706   O734    1.281   .     A
C706   C708    1.400   .     S
C706   O732    1.280   .     A
C707   C864    1.323   1_455 S
C707   H875    1.089   1_455 S
C708   C785    1.323   .     S
C708   H798    1.086   .     S
C709   C714    1.405   .     A
C709   O737    1.387   .     S
C709   C1179   1.380   1_545 S
C710   C713    1.408   .     A
C710   O748    1.382   .     S
C710   C946    1.368   .     S
C711   C713    1.398   .     A
C711   H721    1.083   .     S
C711   C943    1.380   .     S
C712   C714    1.392   .     A
C712   H722    1.084   .     S
C712   C1178   1.368   1_545 S
C715   O759    1.385   .     S
C715   N726    1.369   .     A
C716   N725    1.374   .     A
C716   O770    1.384   .     S
C716   C1420   1.423   .     S
C717   N725    1.365   .     A
C717   H723    1.080   .     S
C717   C1417   1.428   .     S
C718   H724    1.080   .     S
C718   N726    1.363   .     A
H719   C785    1.089   .     S
H720   C864    1.086   1_455 S
N725   Zn735   2.015   .     S
N726   Zn736   2.015   .     S
O727   Zn735   1.995   .     S
O728   Zn736   1.995   .     S
O729   Zn736   2.002   .     S
O730   Zn735   2.002   .     S
O731   Zn735   1.975   .     S
O732   Zn736   1.975   .     S
O733   Zn736   1.975   .     S
O734   Zn735   1.975   .     S
O737   C738    1.424   .     S
C738   H739    1.110   .     S
C738   H740    1.108   .     S
C738   C741    1.539   .     S
C741   H743    1.111   .     S
C741   H1210   1.106   1_545 S
C741   C900    1.528   1_455 S
H742   C975    1.106   .     S
C744   H746    1.111   .     S
C744   H745    1.111   .     S
C744   H747    1.111   .     S
C744   C819    1.528   .     S
O748   C749    1.421   .     S
C749   H751    1.118   .     S
C749   C752    1.531   .     S
C749   H750    1.107   .     S
C752   H753    1.109   .     S
C752   C755    1.523   .     S
C752   H988    1.110   .     S
H754   C1220   1.110   1_545 S
C755   H756    1.111   .     S
C755   H1693   1.107   .     S
C755   H1460   1.111   .     S
H757   C521    1.107   1_545 S
O759   C760    1.415   .     S
C760   C763    1.529   .     S
C760   H762    1.112   .     S
C760   H761    1.111   .     S
C763   C766    1.527   .     S
C763   H764    1.111   .     S
C763   H765    1.110   .     S
C766   H1002   1.106   .     S
C766   H1003   1.110   .     S
H767   C1468   1.108   .     S
H768   C1234   1.106   1_545 S
H769   C1234   1.110   1_545 S
O770   C771    1.416   .     S
C771   H773    1.118   .     S
C771   H772    1.107   .     S
C771   C774    1.529   .     S
C774   H775    1.110   .     S
C774   H1478   1.107   .     S
C774   C933    1.528   1_455 S
C777   H778    1.111   .     S
C777   H779    1.109   .     S
C777   H780    1.111   .     S
C777   C852    1.528   .     S
C781   O805    1.281   .     A
C781   O807    1.287   .     A
C781   C792    1.416   .     S
C782   O806    1.292   .     A
C782   C791    1.427   .     S
C782   O808    1.282   .     A
C783   O811    1.277   .     A
C783   O809    1.284   .     A
C783   C785    1.400   .     S
C784   O812    1.281   .     A
C784   C786    1.400   .     S
C784   O810    1.280   .     A
C786   C863    1.323   .     S
C786   H876    1.086   .     S
C787   C792    1.405   .     A
C787   O815    1.387   .     S
C787   C1257   1.380   1_545 S
C788   C791    1.408   .     A
C788   O826    1.382   .     S
C788   C1024   1.368   .     S
C789   C791    1.398   .     A
C789   H799    1.083   .     S
C789   C1021   1.380   .     S
C790   C792    1.392   .     A
C790   H800    1.084   .     S
C790   C1256   1.368   1_545 S
C793   O837    1.385   .     S
C793   N804    1.369   .     A
C794   N803    1.374   .     A
C794   O848    1.384   .     S
C794   C1498   1.423   .     S
C795   N803    1.365   .     A
C795   H801    1.080   .     S
C795   C1495   1.428   .     S
C796   H802    1.080   .     S
C796   N804    1.363   .     A
H797   C863    1.089   .     S
N803   Zn813   2.015   .     S
N804   Zn814   2.015   .     S
O805   Zn813   1.995   .     S
O806   Zn814   1.995   .     S
O807   Zn814   2.002   .     S
O808   Zn813   2.002   .     S
O809   Zn813   1.975   .     S
O810   Zn814   1.975   .     S
O811   Zn814   1.975   .     S
O812   Zn813   1.975   .     S
O815   C816    1.424   .     S
C816   H817    1.110   .     S
C816   H818    1.108   .     S
C816   C819    1.539   .     S
C819   H821    1.111   .     S
C819   H1288   1.106   1_545 S
H820   C1053   1.106   .     S
C822   H824    1.111   .     S
C822   H823    1.111   .     S
C822   H825    1.111   .     S
C822   C897    1.528   .     S
O826   C827    1.421   .     S
C827   H829    1.118   .     S
C827   C830    1.531   .     S
C827   H828    1.107   .     S
C830   H831    1.109   .     S
C830   C833    1.523   .     S
C830   H1066   1.110   .     S
H832   C1298   1.110   1_545 S
C833   H834    1.111   .     S
C833   H1771   1.107   .     S
C833   H1538   1.111   .     S
H835   C599    1.107   1_545 S
O837   C838    1.415   .     S
C838   C841    1.529   .     S
C838   H840    1.112   .     S
C838   H839    1.111   .     S
C841   C844    1.527   .     S
C841   H842    1.111   .     S
C841   H843    1.110   .     S
C844   H1080   1.106   .     S
C844   H1081   1.110   .     S
H845   C1546   1.108   .     S
H846   C1312   1.106   1_545 S
H847   C1312   1.110   1_545 S
O848   C849    1.416   .     S
C849   H851    1.118   .     S
C849   H850    1.107   .     S
C849   C852    1.529   .     S
C852   H853    1.110   .     S
C852   H1556   1.107   .     S
C855   H856    1.111   .     S
C855   H857    1.109   .     S
C855   H858    1.111   .     S
C855   C930    1.528   .     S
C859   O883    1.281   .     A
C859   O885    1.287   .     A
C859   C870    1.416   .     S
C860   O884    1.292   .     A
C860   C869    1.427   .     S
C860   O886    1.282   .     A
C861   O889    1.277   .     A
C861   O887    1.284   .     A
C861   C863    1.400   .     S
C862   O890    1.281   .     A
C862   C864    1.400   .     S
C862   O888    1.280   .     A
C864   C707    1.323   1_655 S
C864   H720    1.086   1_655 S
C865   C870    1.405   .     A
C865   O893    1.387   .     S
C865   C1335   1.380   1_545 S
C866   C869    1.408   .     A
C866   O904    1.382   .     S
C866   C1102   1.368   .     S
C867   C869    1.398   .     A
C867   H877    1.083   .     S
C867   C1099   1.380   .     S
C868   C870    1.392   .     A
C868   H878    1.084   .     S
C868   C1334   1.368   1_545 S
C871   O915    1.385   .     S
C871   N882    1.369   .     A
C872   N881    1.374   .     A
C872   O926    1.384   .     S
C872   C1576   1.423   .     S
C873   N881    1.365   .     A
C873   H879    1.080   .     S
C873   C1573   1.428   .     S
C874   H880    1.080   .     S
C874   N882    1.363   .     A
H875   C707    1.089   1_655 S
N881   Zn891   2.015   .     S
N882   Zn892   2.015   .     S
O883   Zn891   1.995   .     S
O884   Zn892   1.995   .     S
O885   Zn892   2.002   .     S
O886   Zn891   2.002   .     S
O887   Zn891   1.975   .     S
O888   Zn892   1.975   .     S
O889   Zn892   1.975   .     S
O890   Zn891   1.975   .     S
O893   C894    1.424   .     S
C894   H895    1.110   .     S
C894   H896    1.108   .     S
C894   C897    1.539   .     S
C897   H899    1.111   .     S
C897   H1366   1.106   1_545 S
H898   C1131   1.106   .     S
C900   H902    1.111   .     S
C900   H901    1.111   .     S
C900   H903    1.111   .     S
C900   C741    1.528   1_655 S
O904   C905    1.421   .     S
C905   H907    1.118   .     S
C905   C908    1.531   .     S
C905   H906    1.107   .     S
C908   H909    1.109   .     S
C908   C911    1.523   .     S
C908   H1144   1.110   .     S
H910   C1376   1.110   1_545 S
C911   H912    1.111   .     S
C911   H1849   1.107   .     S
C911   H1616   1.111   .     S
H913   C677    1.107   1_545 S
O915   C916    1.415   .     S
C916   C919    1.529   .     S
C916   H918    1.112   .     S
C916   H917    1.111   .     S
C919   C922    1.527   .     S
C919   H920    1.111   .     S
C919   H921    1.110   .     S
C922   H1158   1.106   .     S
C922   H1159   1.110   .     S
H923   C1624   1.108   .     S
H924   C1390   1.106   1_545 S
H925   C1390   1.110   1_545 S
O926   C927    1.416   .     S
C927   H929    1.118   .     S
C927   H928    1.107   .     S
C927   C930    1.529   .     S
C930   H931    1.110   .     S
C930   H1634   1.107   .     S
C933   H934    1.111   .     S
C933   H935    1.109   .     S
C933   H936    1.111   .     S
C933   C774    1.528   1_655 S
C937   O961    1.281   .     A
C937   O963    1.287   .     A
C937   C948    1.416   .     S
C938   O962    1.292   .     A
C938   C947    1.427   .     S
C938   O964    1.282   .     A
C939   O967    1.277   .     A
C939   O965    1.284   .     A
C939   C941    1.400   .     S
C940   O968    1.281   .     A
C940   C942    1.400   .     S
C940   O966    1.280   .     A
C941   C1098   1.323   1_455 S
C941   H1109   1.089   1_455 S
C942   C1019   1.323   .     S
C942   H1032   1.086   .     S
C943   C948    1.405   .     A
C943   O971    1.387   .     S
C944   C947    1.408   .     A
C944   O982    1.382   .     S
C944   C1180   1.368   .     S
C945   C947    1.398   .     A
C945   H955    1.083   .     S
C945   C1177   1.380   .     S
C946   C948    1.392   .     A
C946   H956    1.084   .     S
C949   O993    1.385   .     S
C949   N960    1.369   .     A
C950   N959    1.374   .     A
C950   O1004   1.384   .     S
C950   C1654   1.423   .     S
C951   N959    1.365   .     A
C951   H957    1.080   .     S
C951   C1651   1.428   .     S
C952   H958    1.080   .     S
C952   N960    1.363   .     A
H953   C1019   1.089   .     S
H954   C1098   1.086   1_455 S
N959   Zn969   2.015   .     S
N960   Zn970   2.015   .     S
O961   Zn969   1.995   .     S
O962   Zn970   1.995   .     S
O963   Zn970   2.002   .     S
O964   Zn969   2.002   .     S
O965   Zn969   1.975   .     S
O966   Zn970   1.975   .     S
O967   Zn970   1.975   .     S
O968   Zn969   1.975   .     S
O971   C972    1.424   .     S
C972   H973    1.110   .     S
C972   H974    1.108   .     S
C972   C975    1.539   .     S
C975   H977    1.111   .     S
C975   C1134   1.528   1_455 S
H976   C1209   1.106   .     S
C978   H980    1.111   .     S
C978   H979    1.111   .     S
C978   H981    1.111   .     S
C978   C1053   1.528   .     S
O982   C983    1.421   .     S
C983   H985    1.118   .     S
C983   C986    1.531   .     S
C983   H984    1.107   .     S
C986   H987    1.109   .     S
C986   C989    1.523   .     S
C986   H1222   1.110   .     S
C989   H990    1.111   .     S
C989   H1927   1.107   .     S
C989   H1694   1.111   .     S
O993   C994    1.415   .     S
C994   C997    1.529   .     S
C994   H996    1.112   .     S
C994   H995    1.111   .     S
C997   C1000   1.527   .     S
C997   H998    1.111   .     S
C997   H999    1.110   .     S
C1000  H1236   1.106   .     S
C1000  H1237   1.110   .     S
H1001  C1702   1.108   .     S
O1004  C1005   1.416   .     S
C1005  H1007   1.118   .     S
C1005  H1006   1.107   .     S
C1005  C1008   1.529   .     S
C1008  H1009   1.110   .     S
C1008  H1712   1.107   .     S
C1008  C1167   1.528   1_455 S
C1011  H1012   1.111   .     S
C1011  H1013   1.109   .     S
C1011  H1014   1.111   .     S
C1011  C1086   1.528   .     S
C1015  O1039   1.281   .     A
C1015  O1041   1.287   .     A
C1015  C1026   1.416   .     S
C1016  O1040   1.292   .     A
C1016  C1025   1.427   .     S
C1016  O1042   1.282   .     A
C1017  O1045   1.277   .     A
C1017  O1043   1.284   .     A
C1017  C1019   1.400   .     S
C1018  O1046   1.281   .     A
C1018  C1020   1.400   .     S
C1018  O1044   1.280   .     A
C1020  C1097   1.323   .     S
C1020  H1110   1.086   .     S
C1021  C1026   1.405   .     A
C1021  O1049   1.387   .     S
C1022  C1025   1.408   .     A
C1022  O1060   1.382   .     S
C1022  C1258   1.368   .     S
C1023  C1025   1.398   .     A
C1023  H1033   1.083   .     S
C1023  C1255   1.380   .     S
C1024  C1026   1.392   .     A
C1024  H1034   1.084   .     S
C1027  O1071   1.385   .     S
C1027  N1038   1.369   .     A
C1028  N1037   1.374   .     A
C1028  O1082   1.384   .     S
C1028  C1732   1.423   .     S
C1029  N1037   1.365   .     A
C1029  H1035   1.080   .     S
C1029  C1729   1.428   .     S
C1030  H1036   1.080   .     S
C1030  N1038   1.363   .     A
H1031  C1097   1.089   .     S
N1037  Zn1047  2.015   .     S
N1038  Zn1048  2.015   .     S
O1039  Zn1047  1.995   .     S
O1040  Zn1048  1.995   .     S
O1041  Zn1048  2.002   .     S
O1042  Zn1047  2.002   .     S
O1043  Zn1047  1.975   .     S
O1044  Zn1048  1.975   .     S
O1045  Zn1048  1.975   .     S
O1046  Zn1047  1.975   .     S
O1049  C1050   1.424   .     S
C1050  H1051   1.110   .     S
C1050  H1052   1.108   .     S
C1050  C1053   1.539   .     S
C1053  H1055   1.111   .     S
H1054  C1287   1.106   .     S
C1056  H1058   1.111   .     S
C1056  H1057   1.111   .     S
C1056  H1059   1.111   .     S
C1056  C1131   1.528   .     S
O1060  C1061   1.421   .     S
C1061  H1063   1.118   .     S
C1061  C1064   1.531   .     S
C1061  H1062   1.107   .     S
C1064  H1065   1.109   .     S
C1064  C1067   1.523   .     S
C1064  H1300   1.110   .     S
C1067  H1068   1.111   .     S
C1067  H2005   1.107   .     S
C1067  H1772   1.111   .     S
O1071  C1072   1.415   .     S
C1072  C1075   1.529   .     S
C1072  H1074   1.112   .     S
C1072  H1073   1.111   .     S
C1075  C1078   1.527   .     S
C1075  H1076   1.111   .     S
C1075  H1077   1.110   .     S
C1078  H1314   1.106   .     S
C1078  H1315   1.110   .     S
H1079  C1780   1.108   .     S
O1082  C1083   1.416   .     S
C1083  H1085   1.118   .     S
C1083  H1084   1.107   .     S
C1083  C1086   1.529   .     S
C1086  H1087   1.110   .     S
C1086  H1790   1.107   .     S
C1089  H1090   1.111   .     S
C1089  H1091   1.109   .     S
C1089  H1092   1.111   .     S
C1089  C1164   1.528   .     S
C1093  O1117   1.281   .     A
C1093  O1119   1.287   .     A
C1093  C1104   1.416   .     S
C1094  O1118   1.292   .     A
C1094  C1103   1.427   .     S
C1094  O1120   1.282   .     A
C1095  O1123   1.277   .     A
C1095  O1121   1.284   .     A
C1095  C1097   1.400   .     S
C1096  O1124   1.281   .     A
C1096  C1098   1.400   .     S
C1096  O1122   1.280   .     A
C1098  C941    1.323   1_655 S
C1098  H954    1.086   1_655 S
C1099  C1104   1.405   .     A
C1099  O1127   1.387   .     S
C1100  C1103   1.408   .     A
C1100  O1138   1.382   .     S
C1100  C1336   1.368   .     S
C1101  C1103   1.398   .     A
C1101  H1111   1.083   .     S
C1101  C1333   1.380   .     S
C1102  C1104   1.392   .     A
C1102  H1112   1.084   .     S
C1105  O1149   1.385   .     S
C1105  N1116   1.369   .     A
C1106  N1115   1.374   .     A
C1106  O1160   1.384   .     S
C1106  C1810   1.423   .     S
C1107  N1115   1.365   .     A
C1107  H1113   1.080   .     S
C1107  C1807   1.428   .     S
C1108  H1114   1.080   .     S
C1108  N1116   1.363   .     A
H1109  C941    1.089   1_655 S
N1115  Zn1125  2.015   .     S
N1116  Zn1126  2.015   .     S
O1117  Zn1125  1.995   .     S
O1118  Zn1126  1.995   .     S
O1119  Zn1126  2.002   .     S
O1120  Zn1125  2.002   .     S
O1121  Zn1125  1.975   .     S
O1122  Zn1126  1.975   .     S
O1123  Zn1126  1.975   .     S
O1124  Zn1125  1.975   .     S
O1127  C1128   1.424   .     S
C1128  H1129   1.110   .     S
C1128  H1130   1.108   .     S
C1128  C1131   1.539   .     S
C1131  H1133   1.111   .     S
H1132  C1365   1.106   .     S
C1134  H1136   1.111   .     S
C1134  H1135   1.111   .     S
C1134  H1137   1.111   .     S
C1134  C975    1.528   1_655 S
O1138  C1139   1.421   .     S
C1139  H1141   1.118   .     S
C1139  C1142   1.531   .     S
C1139  H1140   1.107   .     S
C1142  H1143   1.109   .     S
C1142  C1145   1.523   .     S
C1142  H1378   1.110   .     S
C1145  H1146   1.111   .     S
C1145  H2083   1.107   .     S
C1145  H1850   1.111   .     S
O1149  C1150   1.415   .     S
C1150  C1153   1.529   .     S
C1150  H1152   1.112   .     S
C1150  H1151   1.111   .     S
C1153  C1156   1.527   .     S
C1153  H1154   1.111   .     S
C1153  H1155   1.110   .     S
C1156  H1392   1.106   .     S
C1156  H1393   1.110   .     S
H1157  C1858   1.108   .     S
O1160  C1161   1.416   .     S
C1161  H1163   1.118   .     S
C1161  H1162   1.107   .     S
C1161  C1164   1.529   .     S
C1164  H1165   1.110   .     S
C1164  H1868   1.107   .     S
C1167  H1168   1.111   .     S
C1167  H1169   1.109   .     S
C1167  H1170   1.111   .     S
C1167  C1008   1.528   1_655 S
C1171  O1195   1.281   .     A
C1171  O1197   1.287   .     A
C1171  C1182   1.416   .     S
C1172  O1196   1.292   .     A
C1172  C1181   1.427   .     S
C1172  O1198   1.282   .     A
C1173  O1201   1.277   .     A
C1173  O1199   1.284   .     A
C1173  C1175   1.400   .     S
C1174  O1202   1.281   .     A
C1174  C1176   1.400   .     S
C1174  O1200   1.280   .     A
C1175  C1332   1.323   1_455 S
C1175  H1343   1.089   1_455 S
C1176  C1253   1.323   .     S
C1176  H1266   1.086   .     S
C1177  C1182   1.405   .     A
C1177  O1205   1.387   .     S
C1178  C1181   1.408   .     A
C1178  O1216   1.382   .     S
C1178  C712    1.368   1_565 S
C1179  C1181   1.398   .     A
C1179  H1189   1.083   .     S
C1179  C709    1.380   1_565 S
C1180  C1182   1.392   .     A
C1180  H1190   1.084   .     S
C1183  O1227   1.385   .     S
C1183  N1194   1.369   .     A
C1184  N1193   1.374   .     A
C1184  O1238   1.384   .     S
C1184  C1888   1.423   .     S
C1185  N1193   1.365   .     A
C1185  H1191   1.080   .     S
C1185  C1885   1.428   .     S
C1186  H1192   1.080   .     S
C1186  N1194   1.363   .     A
H1187  C1253   1.089   .     S
H1188  C1332   1.086   1_455 S
N1193  Zn1203  2.015   .     S
N1194  Zn1204  2.015   .     S
O1195  Zn1203  1.995   .     S
O1196  Zn1204  1.995   .     S
O1197  Zn1204  2.002   .     S
O1198  Zn1203  2.002   .     S
O1199  Zn1203  1.975   .     S
O1200  Zn1204  1.975   .     S
O1201  Zn1204  1.975   .     S
O1202  Zn1203  1.975   .     S
O1205  C1206   1.424   .     S
C1206  H1207   1.110   .     S
C1206  H1208   1.108   .     S
C1206  C1209   1.539   .     S
C1209  H1211   1.111   .     S
C1209  C1368   1.528   1_455 S
H1210  C741    1.106   1_565 S
C1212  H1214   1.111   .     S
C1212  H1213   1.111   .     S
C1212  H1215   1.111   .     S
C1212  C1287   1.528   .     S
O1216  C1217   1.421   .     S
C1217  H1219   1.118   .     S
C1217  C1220   1.531   .     S
C1217  H1218   1.107   .     S
C1220  H1221   1.109   .     S
C1220  C1223   1.523   .     S
C1220  H754    1.110   1_565 S
C1223  H1224   1.111   .     S
C1223  H1459   1.107   1_565 S
C1223  H1928   1.111   .     S
O1227  C1228   1.415   .     S
C1228  C1231   1.529   .     S
C1228  H1230   1.112   .     S
C1228  H1229   1.111   .     S
C1231  C1234   1.527   .     S
C1231  H1232   1.111   .     S
C1231  H1233   1.110   .     S
C1234  H768    1.106   1_565 S
C1234  H769    1.110   1_565 S
H1235  C1936   1.108   .     S
O1238  C1239   1.416   .     S
C1239  H1241   1.118   .     S
C1239  H1240   1.107   .     S
C1239  C1242   1.529   .     S
C1242  H1243   1.110   .     S
C1242  H1946   1.107   .     S
C1242  C1401   1.528   1_455 S
C1245  H1246   1.111   .     S
C1245  H1247   1.109   .     S
C1245  H1248   1.111   .     S
C1245  C1320   1.528   .     S
C1249  O1273   1.281   .     A
C1249  O1275   1.287   .     A
C1249  C1260   1.416   .     S
C1250  O1274   1.292   .     A
C1250  C1259   1.427   .     S
C1250  O1276   1.282   .     A
C1251  O1279   1.277   .     A
C1251  O1277   1.284   .     A
C1251  C1253   1.400   .     S
C1252  O1280   1.281   .     A
C1252  C1254   1.400   .     S
C1252  O1278   1.280   .     A
C1254  C1331   1.323   .     S
C1254  H1344   1.086   .     S
C1255  C1260   1.405   .     A
C1255  O1283   1.387   .     S
C1256  C1259   1.408   .     A
C1256  O1294   1.382   .     S
C1256  C790    1.368   1_565 S
C1257  C1259   1.398   .     A
C1257  H1267   1.083   .     S
C1257  C787    1.380   1_565 S
C1258  C1260   1.392   .     A
C1258  H1268   1.084   .     S
C1261  O1305   1.385   .     S
C1261  N1272   1.369   .     A
C1262  N1271   1.374   .     A
C1262  O1316   1.384   .     S
C1262  C1966   1.423   .     S
C1263  N1271   1.365   .     A
C1263  H1269   1.080   .     S
C1263  C1963   1.428   .     S
C1264  H1270   1.080   .     S
C1264  N1272   1.363   .     A
H1265  C1331   1.089   .     S
N1271  Zn1281  2.015   .     S
N1272  Zn1282  2.015   .     S
O1273  Zn1281  1.995   .     S
O1274  Zn1282  1.995   .     S
O1275  Zn1282  2.002   .     S
O1276  Zn1281  2.002   .     S
O1277  Zn1281  1.975   .     S
O1278  Zn1282  1.975   .     S
O1279  Zn1282  1.975   .     S
O1280  Zn1281  1.975   .     S
O1283  C1284   1.424   .     S
C1284  H1285   1.110   .     S
C1284  H1286   1.108   .     S
C1284  C1287   1.539   .     S
C1287  H1289   1.111   .     S
H1288  C819    1.106   1_565 S
C1290  H1292   1.111   .     S
C1290  H1291   1.111   .     S
C1290  H1293   1.111   .     S
C1290  C1365   1.528   .     S
O1294  C1295   1.421   .     S
C1295  H1297   1.118   .     S
C1295  C1298   1.531   .     S
C1295  H1296   1.107   .     S
C1298  H1299   1.109   .     S
C1298  C1301   1.523   .     S
C1298  H832    1.110   1_565 S
C1301  H1302   1.111   .     S
C1301  H1537   1.107   1_565 S
C1301  H2006   1.111   .     S
O1305  C1306   1.415   .     S
C1306  C1309   1.529   .     S
C1306  H1308   1.112   .     S
C1306  H1307   1.111   .     S
C1309  C1312   1.527   .     S
C1309  H1310   1.111   .     S
C1309  H1311   1.110   .     S
C1312  H846    1.106   1_565 S
C1312  H847    1.110   1_565 S
H1313  C2014   1.108   .     S
O1316  C1317   1.416   .     S
C1317  H1319   1.118   .     S
C1317  H1318   1.107   .     S
C1317  C1320   1.529   .     S
C1320  H1321   1.110   .     S
C1320  H2024   1.107   .     S
C1323  H1324   1.111   .     S
C1323  H1325   1.109   .     S
C1323  H1326   1.111   .     S
C1323  C1398   1.528   .     S
C1327  O1351   1.281   .     A
C1327  O1353   1.287   .     A
C1327  C1338   1.416   .     S
C1328  O1352   1.292   .     A
C1328  C1337   1.427   .     S
C1328  O1354   1.282   .     A
C1329  O1357   1.277   .     A
C1329  O1355   1.284   .     A
C1329  C1331   1.400   .     S
C1330  O1358   1.281   .     A
C1330  C1332   1.400   .     S
C1330  O1356   1.280   .     A
C1332  C1175   1.323   1_655 S
C1332  H1188   1.086   1_655 S
C1333  C1338   1.405   .     A
C1333  O1361   1.387   .     S
C1334  C1337   1.408   .     A
C1334  O1372   1.382   .     S
C1334  C868    1.368   1_565 S
C1335  C1337   1.398   .     A
C1335  H1345   1.083   .     S
C1335  C865    1.380   1_565 S
C1336  C1338   1.392   .     A
C1336  H1346   1.084   .     S
C1339  O1383   1.385   .     S
C1339  N1350   1.369   .     A
C1340  N1349   1.374   .     A
C1340  O1394   1.384   .     S
C1340  C2044   1.423   .     S
C1341  N1349   1.365   .     A
C1341  H1347   1.080   .     S
C1341  C2041   1.428   .     S
C1342  H1348   1.080   .     S
C1342  N1350   1.363   .     A
H1343  C1175   1.089   1_655 S
N1349  Zn1359  2.015   .     S
N1350  Zn1360  2.015   .     S
O1351  Zn1359  1.995   .     S
O1352  Zn1360  1.995   .     S
O1353  Zn1360  2.002   .     S
O1354  Zn1359  2.002   .     S
O1355  Zn1359  1.975   .     S
O1356  Zn1360  1.975   .     S
O1357  Zn1360  1.975   .     S
O1358  Zn1359  1.975   .     S
O1361  C1362   1.424   .     S
C1362  H1363   1.110   .     S
C1362  H1364   1.108   .     S
C1362  C1365   1.539   .     S
C1365  H1367   1.111   .     S
H1366  C897    1.106   1_565 S
C1368  H1370   1.111   .     S
C1368  H1369   1.111   .     S
C1368  H1371   1.111   .     S
C1368  C1209   1.528   1_655 S
O1372  C1373   1.421   .     S
C1373  H1375   1.118   .     S
C1373  C1376   1.531   .     S
C1373  H1374   1.107   .     S
C1376  H1377   1.109   .     S
C1376  C1379   1.523   .     S
C1376  H910    1.110   1_565 S
C1379  H1380   1.111   .     S
C1379  H1615   1.107   1_565 S
C1379  H2084   1.111   .     S
O1383  C1384   1.415   .     S
C1384  C1387   1.529   .     S
C1384  H1386   1.112   .     S
C1384  H1385   1.111   .     S
C1387  C1390   1.527   .     S
C1387  H1388   1.111   .     S
C1387  H1389   1.110   .     S
C1390  H924    1.106   1_565 S
C1390  H925    1.110   1_565 S
H1391  C2092   1.108   .     S
O1394  C1395   1.416   .     S
C1395  H1397   1.118   .     S
C1395  H1396   1.107   .     S
C1395  C1398   1.529   .     S
C1398  H1399   1.110   .     S
C1398  H2102   1.107   .     S
C1401  H1402   1.111   .     S
C1401  H1403   1.109   .     S
C1401  H1404   1.111   .     S
C1401  C1242   1.528   1_655 S
C1405  O1429   1.281   .     A
C1405  O1431   1.287   .     A
C1405  C1416   1.416   .     S
C1406  O1430   1.292   .     A
C1406  C1415   1.427   .     S
C1406  O1432   1.282   .     A
C1407  O1435   1.277   .     A
C1407  O1433   1.284   .     A
C1407  C1409   1.400   .     S
C1408  O1436   1.281   .     A
C1408  C1410   1.400   .     S
C1408  O1434   1.280   .     A
C1409  C1566   1.323   1_455 S
C1409  H1577   1.089   1_455 S
C1410  C1487   1.323   .     S
C1410  H1500   1.086   .     S
C1411  C1416   1.405   .     A
C1411  O1439   1.387   .     S
C1411  C1881   1.380   1_545 S
C1412  C1415   1.408   .     A
C1412  O1450   1.382   .     S
C1412  C1648   1.368   .     S
C1413  C1415   1.398   .     A
C1413  H1423   1.083   .     S
C1413  C1645   1.380   .     S
C1414  C1416   1.392   .     A
C1414  H1424   1.084   .     S
C1414  C1880   1.368   1_545 S
C1417  O1461   1.385   .     S
C1417  N1428   1.369   .     A
C1418  N1427   1.374   .     A
C1418  O1472   1.384   .     S
C1418  C16     1.423   1_556 S
C1419  N1427   1.365   .     A
C1419  H1425   1.080   .     S
C1419  C13     1.428   1_556 S
C1420  H1426   1.080   .     S
C1420  N1428   1.363   .     A
H1421  C1487   1.089   .     S
H1422  C1566   1.086   1_455 S
N1427  Zn1437  2.015   .     S
N1428  Zn1438  2.015   .     S
O1429  Zn1437  1.995   .     S
O1430  Zn1438  1.995   .     S
O1431  Zn1438  2.002   .     S
O1432  Zn1437  2.002   .     S
O1433  Zn1437  1.975   .     S
O1434  Zn1438  1.975   .     S
O1435  Zn1438  1.975   .     S
O1436  Zn1437  1.975   .     S
O1439  C1440   1.424   .     S
C1440  H1441   1.110   .     S
C1440  H1442   1.108   .     S
C1440  C1443   1.539   .     S
C1443  H1445   1.111   .     S
C1443  H1912   1.106   1_545 S
C1443  C1602   1.528   1_455 S
H1444  C1677   1.106   .     S
C1446  H1448   1.111   .     S
C1446  H1447   1.111   .     S
C1446  H1449   1.111   .     S
C1446  C1521   1.528   .     S
O1450  C1451   1.421   .     S
C1451  H1453   1.118   .     S
C1451  C1454   1.531   .     S
C1451  H1452   1.107   .     S
C1454  H1455   1.109   .     S
C1454  C1457   1.523   .     S
C1454  H1690   1.110   .     S
H1456  C1922   1.110   1_545 S
C1457  H1458   1.111   .     S
C1457  H289    1.107   1_556 S
C1457  H56     1.111   1_556 S
H1459  C1223   1.107   1_545 S
O1461  C1462   1.415   .     S
C1462  C1465   1.529   .     S
C1462  H1464   1.112   .     S
C1462  H1463   1.111   .     S
C1465  C1468   1.527   .     S
C1465  H1466   1.111   .     S
C1465  H1467   1.110   .     S
C1468  H1704   1.106   .     S
C1468  H1705   1.110   .     S
H1469  C64     1.108   1_556 S
H1470  C1936   1.106   1_545 S
H1471  C1936   1.110   1_545 S
O1472  C1473   1.416   .     S
C1473  H1475   1.118   .     S
C1473  H1474   1.107   .     S
C1473  C1476   1.529   .     S
C1476  H1477   1.110   .     S
C1476  H74     1.107   1_556 S
C1476  C1635   1.528   1_455 S
C1479  H1480   1.111   .     S
C1479  H1481   1.109   .     S
C1479  H1482   1.111   .     S
C1479  C1554   1.528   .     S
C1483  O1507   1.281   .     A
C1483  O1509   1.287   .     A
C1483  C1494   1.416   .     S
C1484  O1508   1.292   .     A
C1484  C1493   1.427   .     S
C1484  O1510   1.282   .     A
C1485  O1513   1.277   .     A
C1485  O1511   1.284   .     A
C1485  C1487   1.400   .     S
C1486  O1514   1.281   .     A
C1486  C1488   1.400   .     S
C1486  O1512   1.280   .     A
C1488  C1565   1.323   .     S
C1488  H1578   1.086   .     S
C1489  C1494   1.405   .     A
C1489  O1517   1.387   .     S
C1489  C1959   1.380   1_545 S
C1490  C1493   1.408   .     A
C1490  O1528   1.382   .     S
C1490  C1726   1.368   .     S
C1491  C1493   1.398   .     A
C1491  H1501   1.083   .     S
C1491  C1723   1.380   .     S
C1492  C1494   1.392   .     A
C1492  H1502   1.084   .     S
C1492  C1958   1.368   1_545 S
C1495  O1539   1.385   .     S
C1495  N1506   1.369   .     A
C1496  N1505   1.374   .     A
C1496  O1550   1.384   .     S
C1496  C94     1.423   1_556 S
C1497  N1505   1.365   .     A
C1497  H1503   1.080   .     S
C1497  C91     1.428   1_556 S
C1498  H1504   1.080   .     S
C1498  N1506   1.363   .     A
H1499  C1565   1.089   .     S
N1505  Zn1515  2.015   .     S
N1506  Zn1516  2.015   .     S
O1507  Zn1515  1.995   .     S
O1508  Zn1516  1.995   .     S
O1509  Zn1516  2.002   .     S
O1510  Zn1515  2.002   .     S
O1511  Zn1515  1.975   .     S
O1512  Zn1516  1.975   .     S
O1513  Zn1516  1.975   .     S
O1514  Zn1515  1.975   .     S
O1517  C1518   1.424   .     S
C1518  H1519   1.110   .     S
C1518  H1520   1.108   .     S
C1518  C1521   1.539   .     S
C1521  H1523   1.111   .     S
C1521  H1990   1.106   1_545 S
H1522  C1755   1.106   .     S
C1524  H1526   1.111   .     S
C1524  H1525   1.111   .     S
C1524  H1527   1.111   .     S
C1524  C1599   1.528   .     S
O1528  C1529   1.421   .     S
C1529  H1531   1.118   .     S
C1529  C1532   1.531   .     S
C1529  H1530   1.107   .     S
C1532  H1533   1.109   .     S
C1532  C1535   1.523   .     S
C1532  H1768   1.110   .     S
H1534  C2000   1.110   1_545 S
C1535  H1536   1.111   .     S
C1535  H367    1.107   1_556 S
C1535  H134    1.111   1_556 S
H1537  C1301   1.107   1_545 S
O1539  C1540   1.415   .     S
C1540  C1543   1.529   .     S
C1540  H1542   1.112   .     S
C1540  H1541   1.111   .     S
C1543  C1546   1.527   .     S
C1543  H1544   1.111   .     S
C1543  H1545   1.110   .     S
C1546  H1782   1.106   .     S
C1546  H1783   1.110   .     S
H1547  C142    1.108   1_556 S
H1548  C2014   1.106   1_545 S
H1549  C2014   1.110   1_545 S
O1550  C1551   1.416   .     S
C1551  H1553   1.118   .     S
C1551  H1552   1.107   .     S
C1551  C1554   1.529   .     S
C1554  H1555   1.110   .     S
C1554  H152    1.107   1_556 S
C1557  H1558   1.111   .     S
C1557  H1559   1.109   .     S
C1557  H1560   1.111   .     S
C1557  C1632   1.528   .     S
C1561  O1585   1.281   .     A
C1561  O1587   1.287   .     A
C1561  C1572   1.416   .     S
C1562  O1586   1.292   .     A
C1562  C1571   1.427   .     S
C1562  O1588   1.282   .     A
C1563  O1591   1.277   .     A
C1563  O1589   1.284   .     A
C1563  C1565   1.400   .     S
C1564  O1592   1.281   .     A
C1564  C1566   1.400   .     S
C1564  O1590   1.280   .     A
C1566  C1409   1.323   1_655 S
C1566  H1422   1.086   1_655 S
C1567  C1572   1.405   .     A
C1567  O1595   1.387   .     S
C1567  C2037   1.380   1_545 S
C1568  C1571   1.408   .     A
C1568  O1606   1.382   .     S
C1568  C1804   1.368   .     S
C1569  C1571   1.398   .     A
C1569  H1579   1.083   .     S
C1569  C1801   1.380   .     S
C1570  C1572   1.392   .     A
C1570  H1580   1.084   .     S
C1570  C2036   1.368   1_545 S
C1573  O1617   1.385   .     S
C1573  N1584   1.369   .     A
C1574  N1583   1.374   .     A
C1574  O1628   1.384   .     S
C1574  C172    1.423   1_556 S
C1575  N1583   1.365   .     A
C1575  H1581   1.080   .     S
C1575  C169    1.428   1_556 S
C1576  H1582   1.080   .     S
C1576  N1584   1.363   .     A
H1577  C1409   1.089   1_655 S
N1583  Zn1593  2.015   .     S
N1584  Zn1594  2.015   .     S
O1585  Zn1593  1.995   .     S
O1586  Zn1594  1.995   .     S
O1587  Zn1594  2.002   .     S
O1588  Zn1593  2.002   .     S
O1589  Zn1593  1.975   .     S
O1590  Zn1594  1.975   .     S
O1591  Zn1594  1.975   .     S
O1592  Zn1593  1.975   .     S
O1595  C1596   1.424   .     S
C1596  H1597   1.110   .     S
C1596  H1598   1.108   .     S
C1596  C1599   1.539   .     S
C1599  H1601   1.111   .     S
C1599  H2068   1.106   1_545 S
H1600  C1833   1.106   .     S
C1602  H1604   1.111   .     S
C1602  H1603   1.111   .     S
C1602  H1605   1.111   .     S
C1602  C1443   1.528   1_655 S
O1606  C1607   1.421   .     S
C1607  H1609   1.118   .     S
C1607  C1610   1.531   .     S
C1607  H1608   1.107   .     S
C1610  H1611   1.109   .     S
C1610  C1613   1.523   .     S
C1610  H1846   1.110   .     S
H1612  C2078   1.110   1_545 S
C1613  H1614   1.111   .     S
C1613  H445    1.107   1_556 S
C1613  H212    1.111   1_556 S
H1615  C1379   1.107   1_545 S
O1617  C1618   1.415   .     S
C1618  C1621   1.529   .     S
C1618  H1620   1.112   .     S
C1618  H1619   1.111   .     S
C1621  C1624   1.527   .     S
C1621  H1622   1.111   .     S
C1621  H1623   1.110   .     S
C1624  H1860   1.106   .     S
C1624  H1861   1.110   .     S
H1625  C220    1.108   1_556 S
H1626  C2092   1.106   1_545 S
H1627  C2092   1.110   1_545 S
O1628  C1629   1.416   .     S
C1629  H1631   1.118   .     S
C1629  H1630   1.107   .     S
C1629  C1632   1.529   .     S
C1632  H1633   1.110   .     S
C1632  H230    1.107   1_556 S
C1635  H1636   1.111   .     S
C1635  H1637   1.109   .     S
C1635  H1638   1.111   .     S
C1635  C1476   1.528   1_655 S
C1639  O1663   1.281   .     A
C1639  O1665   1.287   .     A
C1639  C1650   1.416   .     S
C1640  O1664   1.292   .     A
C1640  C1649   1.427   .     S
C1640  O1666   1.282   .     A
C1641  O1669   1.277   .     A
C1641  O1667   1.284   .     A
C1641  C1643   1.400   .     S
C1642  O1670   1.281   .     A
C1642  C1644   1.400   .     S
C1642  O1668   1.280   .     A
C1643  C1800   1.323   1_455 S
C1643  H1811   1.089   1_455 S
C1644  C1721   1.323   .     S
C1644  H1734   1.086   .     S
C1645  C1650   1.405   .     A
C1645  O1673   1.387   .     S
C1646  C1649   1.408   .     A
C1646  O1684   1.382   .     S
C1646  C1882   1.368   .     S
C1647  C1649   1.398   .     A
C1647  H1657   1.083   .     S
C1647  C1879   1.380   .     S
C1648  C1650   1.392   .     A
C1648  H1658   1.084   .     S
C1651  O1695   1.385   .     S
C1651  N1662   1.369   .     A
C1652  N1661   1.374   .     A
C1652  O1706   1.384   .     S
C1652  C250    1.423   1_556 S
C1653  N1661   1.365   .     A
C1653  H1659   1.080   .     S
C1653  C247    1.428   1_556 S
C1654  H1660   1.080   .     S
C1654  N1662   1.363   .     A
H1655  C1721   1.089   .     S
H1656  C1800   1.086   1_455 S
N1661  Zn1671  2.015   .     S
N1662  Zn1672  2.015   .     S
O1663  Zn1671  1.995   .     S
O1664  Zn1672  1.995   .     S
O1665  Zn1672  2.002   .     S
O1666  Zn1671  2.002   .     S
O1667  Zn1671  1.975   .     S
O1668  Zn1672  1.975   .     S
O1669  Zn1672  1.975   .     S
O1670  Zn1671  1.975   .     S
O1673  C1674   1.424   .     S
C1674  H1675   1.110   .     S
C1674  H1676   1.108   .     S
C1674  C1677   1.539   .     S
C1677  H1679   1.111   .     S
C1677  C1836   1.528   1_455 S
H1678  C1911   1.106   .     S
C1680  H1682   1.111   .     S
C1680  H1681   1.111   .     S
C1680  H1683   1.111   .     S
C1680  C1755   1.528   .     S
O1684  C1685   1.421   .     S
C1685  H1687   1.118   .     S
C1685  C1688   1.531   .     S
C1685  H1686   1.107   .     S
C1688  H1689   1.109   .     S
C1688  C1691   1.523   .     S
C1688  H1924   1.110   .     S
C1691  H1692   1.111   .     S
C1691  H523    1.107   1_556 S
C1691  H290    1.111   1_556 S
O1695  C1696   1.415   .     S
C1696  C1699   1.529   .     S
C1696  H1698   1.112   .     S
C1696  H1697   1.111   .     S
C1699  C1702   1.527   .     S
C1699  H1700   1.111   .     S
C1699  H1701   1.110   .     S
C1702  H1938   1.106   .     S
C1702  H1939   1.110   .     S
H1703  C298    1.108   1_556 S
O1706  C1707   1.416   .     S
C1707  H1709   1.118   .     S
C1707  H1708   1.107   .     S
C1707  C1710   1.529   .     S
C1710  H1711   1.110   .     S
C1710  H308    1.107   1_556 S
C1710  C1869   1.528   1_455 S
C1713  H1714   1.111   .     S
C1713  H1715   1.109   .     S
C1713  H1716   1.111   .     S
C1713  C1788   1.528   .     S
C1717  O1741   1.281   .     A
C1717  O1743   1.287   .     A
C1717  C1728   1.416   .     S
C1718  O1742   1.292   .     A
C1718  C1727   1.427   .     S
C1718  O1744   1.282   .     A
C1719  O1747   1.277   .     A
C1719  O1745   1.284   .     A
C1719  C1721   1.400   .     S
C1720  O1748   1.281   .     A
C1720  C1722   1.400   .     S
C1720  O1746   1.280   .     A
C1722  C1799   1.323   .     S
C1722  H1812   1.086   .     S
C1723  C1728   1.405   .     A
C1723  O1751   1.387   .     S
C1724  C1727   1.408   .     A
C1724  O1762   1.382   .     S
C1724  C1960   1.368   .     S
C1725  C1727   1.398   .     A
C1725  H1735   1.083   .     S
C1725  C1957   1.380   .     S
C1726  C1728   1.392   .     A
C1726  H1736   1.084   .     S
C1729  O1773   1.385   .     S
C1729  N1740   1.369   .     A
C1730  N1739   1.374   .     A
C1730  O1784   1.384   .     S
C1730  C328    1.423   1_556 S
C1731  N1739   1.365   .     A
C1731  H1737   1.080   .     S
C1731  C325    1.428   1_556 S
C1732  H1738   1.080   .     S
C1732  N1740   1.363   .     A
H1733  C1799   1.089   .     S
N1739  Zn1749  2.015   .     S
N1740  Zn1750  2.015   .     S
O1741  Zn1749  1.995   .     S
O1742  Zn1750  1.995   .     S
O1743  Zn1750  2.002   .     S
O1744  Zn1749  2.002   .     S
O1745  Zn1749  1.975   .     S
O1746  Zn1750  1.975   .     S
O1747  Zn1750  1.975   .     S
O1748  Zn1749  1.975   .     S
O1751  C1752   1.424   .     S
C1752  H1753   1.110   .     S
C1752  H1754   1.108   .     S
C1752  C1755   1.539   .     S
C1755  H1757   1.111   .     S
H1756  C1989   1.106   .     S
C1758  H1760   1.111   .     S
C1758  H1759   1.111   .     S
C1758  H1761   1.111   .     S
C1758  C1833   1.528   .     S
O1762  C1763   1.421   .     S
C1763  H1765   1.118   .     S
C1763  C1766   1.531   .     S
C1763  H1764   1.107   .     S
C1766  H1767   1.109   .     S
C1766  C1769   1.523   .     S
C1766  H2002   1.110   .     S
C1769  H1770   1.111   .     S
C1769  H601    1.107   1_556 S
C1769  H368    1.111   1_556 S
O1773  C1774   1.415   .     S
C1774  C1777   1.529   .     S
C1774  H1776   1.112   .     S
C1774  H1775   1.111   .     S
C1777  C1780   1.527   .     S
C1777  H1778   1.111   .     S
C1777  H1779   1.110   .     S
C1780  H2016   1.106   .     S
C1780  H2017   1.110   .     S
H1781  C376    1.108   1_556 S
O1784  C1785   1.416   .     S
C1785  H1787   1.118   .     S
C1785  H1786   1.107   .     S
C1785  C1788   1.529   .     S
C1788  H1789   1.110   .     S
C1788  H386    1.107   1_556 S
C1791  H1792   1.111   .     S
C1791  H1793   1.109   .     S
C1791  H1794   1.111   .     S
C1791  C1866   1.528   .     S
C1795  O1819   1.281   .     A
C1795  O1821   1.287   .     A
C1795  C1806   1.416   .     S
C1796  O1820   1.292   .     A
C1796  C1805   1.427   .     S
C1796  O1822   1.282   .     A
C1797  O1825   1.277   .     A
C1797  O1823   1.284   .     A
C1797  C1799   1.400   .     S
C1798  O1826   1.281   .     A
C1798  C1800   1.400   .     S
C1798  O1824   1.280   .     A
C1800  C1643   1.323   1_655 S
C1800  H1656   1.086   1_655 S
C1801  C1806   1.405   .     A
C1801  O1829   1.387   .     S
C1802  C1805   1.408   .     A
C1802  O1840   1.382   .     S
C1802  C2038   1.368   .     S
C1803  C1805   1.398   .     A
C1803  H1813   1.083   .     S
C1803  C2035   1.380   .     S
C1804  C1806   1.392   .     A
C1804  H1814   1.084   .     S
C1807  O1851   1.385   .     S
C1807  N1818   1.369   .     A
C1808  N1817   1.374   .     A
C1808  O1862   1.384   .     S
C1808  C406    1.423   1_556 S
C1809  N1817   1.365   .     A
C1809  H1815   1.080   .     S
C1809  C403    1.428   1_556 S
C1810  H1816   1.080   .     S
C1810  N1818   1.363   .     A
H1811  C1643   1.089   1_655 S
N1817  Zn1827  2.015   .     S
N1818  Zn1828  2.015   .     S
O1819  Zn1827  1.995   .     S
O1820  Zn1828  1.995   .     S
O1821  Zn1828  2.002   .     S
O1822  Zn1827  2.002   .     S
O1823  Zn1827  1.975   .     S
O1824  Zn1828  1.975   .     S
O1825  Zn1828  1.975   .     S
O1826  Zn1827  1.975   .     S
O1829  C1830   1.424   .     S
C1830  H1831   1.110   .     S
C1830  H1832   1.108   .     S
C1830  C1833   1.539   .     S
C1833  H1835   1.111   .     S
H1834  C2067   1.106   .     S
C1836  H1838   1.111   .     S
C1836  H1837   1.111   .     S
C1836  H1839   1.111   .     S
C1836  C1677   1.528   1_655 S
O1840  C1841   1.421   .     S
C1841  H1843   1.118   .     S
C1841  C1844   1.531   .     S
C1841  H1842   1.107   .     S
C1844  H1845   1.109   .     S
C1844  C1847   1.523   .     S
C1844  H2080   1.110   .     S
C1847  H1848   1.111   .     S
C1847  H679    1.107   1_556 S
C1847  H446    1.111   1_556 S
O1851  C1852   1.415   .     S
C1852  C1855   1.529   .     S
C1852  H1854   1.112   .     S
C1852  H1853   1.111   .     S
C1855  C1858   1.527   .     S
C1855  H1856   1.111   .     S
C1855  H1857   1.110   .     S
C1858  H2094   1.106   .     S
C1858  H2095   1.110   .     S
H1859  C454    1.108   1_556 S
O1862  C1863   1.416   .     S
C1863  H1865   1.118   .     S
C1863  H1864   1.107   .     S
C1863  C1866   1.529   .     S
C1866  H1867   1.110   .     S
C1866  H464    1.107   1_556 S
C1869  H1870   1.111   .     S
C1869  H1871   1.109   .     S
C1869  H1872   1.111   .     S
C1869  C1710   1.528   1_655 S
C1873  O1897   1.281   .     A
C1873  O1899   1.287   .     A
C1873  C1884   1.416   .     S
C1874  O1898   1.292   .     A
C1874  C1883   1.427   .     S
C1874  O1900   1.282   .     A
C1875  O1903   1.277   .     A
C1875  O1901   1.284   .     A
C1875  C1877   1.400   .     S
C1876  O1904   1.281   .     A
C1876  C1878   1.400   .     S
C1876  O1902   1.280   .     A
C1877  C2034   1.323   1_455 S
C1877  H2045   1.089   1_455 S
C1878  C1955   1.323   .     S
C1878  H1968   1.086   .     S
C1879  C1884   1.405   .     A
C1879  O1907   1.387   .     S
C1880  C1883   1.408   .     A
C1880  O1918   1.382   .     S
C1880  C1414   1.368   1_565 S
C1881  C1883   1.398   .     A
C1881  H1891   1.083   .     S
C1881  C1411   1.380   1_565 S
C1882  C1884   1.392   .     A
C1882  H1892   1.084   .     S
C1885  O1929   1.385   .     S
C1885  N1896   1.369   .     A
C1886  N1895   1.374   .     A
C1886  O1940   1.384   .     S
C1886  C484    1.423   1_556 S
C1887  N1895   1.365   .     A
C1887  H1893   1.080   .     S
C1887  C481    1.428   1_556 S
C1888  H1894   1.080   .     S
C1888  N1896   1.363   .     A
H1889  C1955   1.089   .     S
H1890  C2034   1.086   1_455 S
N1895  Zn1905  2.015   .     S
N1896  Zn1906  2.015   .     S
O1897  Zn1905  1.995   .     S
O1898  Zn1906  1.995   .     S
O1899  Zn1906  2.002   .     S
O1900  Zn1905  2.002   .     S
O1901  Zn1905  1.975   .     S
O1902  Zn1906  1.975   .     S
O1903  Zn1906  1.975   .     S
O1904  Zn1905  1.975   .     S
O1907  C1908   1.424   .     S
C1908  H1909   1.110   .     S
C1908  H1910   1.108   .     S
C1908  C1911   1.539   .     S
C1911  H1913   1.111   .     S
C1911  C2070   1.528   1_455 S
H1912  C1443   1.106   1_565 S
C1914  H1916   1.111   .     S
C1914  H1915   1.111   .     S
C1914  H1917   1.111   .     S
C1914  C1989   1.528   .     S
O1918  C1919   1.421   .     S
C1919  H1921   1.118   .     S
C1919  C1922   1.531   .     S
C1919  H1920   1.107   .     S
C1922  H1923   1.109   .     S
C1922  C1925   1.523   .     S
C1922  H1456   1.110   1_565 S
C1925  H1926   1.111   .     S
C1925  H55     1.107   1_566 S
C1925  H524    1.111   1_556 S
O1929  C1930   1.415   .     S
C1930  C1933   1.529   .     S
C1930  H1932   1.112   .     S
C1930  H1931   1.111   .     S
C1933  C1936   1.527   .     S
C1933  H1934   1.111   .     S
C1933  H1935   1.110   .     S
C1936  H1470   1.106   1_565 S
C1936  H1471   1.110   1_565 S
H1937  C532    1.108   1_556 S
O1940  C1941   1.416   .     S
C1941  H1943   1.118   .     S
C1941  H1942   1.107   .     S
C1941  C1944   1.529   .     S
C1944  H1945   1.110   .     S
C1944  H542    1.107   1_556 S
C1944  C2103   1.528   1_455 S
C1947  H1948   1.111   .     S
C1947  H1949   1.109   .     S
C1947  H1950   1.111   .     S
C1947  C2022   1.528   .     S
C1951  O1975   1.281   .     A
C1951  O1977   1.287   .     A
C1951  C1962   1.416   .     S
C1952  O1976   1.292   .     A
C1952  C1961   1.427   .     S
C1952  O1978   1.282   .     A
C1953  O1981   1.277   .     A
C1953  O1979   1.284   .     A
C1953  C1955   1.400   .     S
C1954  O1982   1.281   .     A
C1954  C1956   1.400   .     S
C1954  O1980   1.280   .     A
C1956  C2033   1.323   .     S
C1956  H2046   1.086   .     S
C1957  C1962   1.405   .     A
C1957  O1985   1.387   .     S
C1958  C1961   1.408   .     A
C1958  O1996   1.382   .     S
C1958  C1492   1.368   1_565 S
C1959  C1961   1.398   .     A
C1959  H1969   1.083   .     S
C1959  C1489   1.380   1_565 S
C1960  C1962   1.392   .     A
C1960  H1970   1.084   .     S
C1963  O2007   1.385   .     S
C1963  N1974   1.369   .     A
C1964  N1973   1.374   .     A
C1964  O2018   1.384   .     S
C1964  C562    1.423   1_556 S
C1965  N1973   1.365   .     A
C1965  H1971   1.080   .     S
C1965  C559    1.428   1_556 S
C1966  H1972   1.080   .     S
C1966  N1974   1.363   .     A
H1967  C2033   1.089   .     S
N1973  Zn1983  2.015   .     S
N1974  Zn1984  2.015   .     S
O1975  Zn1983  1.995   .     S
O1976  Zn1984  1.995   .     S
O1977  Zn1984  2.002   .     S
O1978  Zn1983  2.002   .     S
O1979  Zn1983  1.975   .     S
O1980  Zn1984  1.975   .     S
O1981  Zn1984  1.975   .     S
O1982  Zn1983  1.975   .     S
O1985  C1986   1.424   .     S
C1986  H1987   1.110   .     S
C1986  H1988   1.108   .     S
C1986  C1989   1.539   .     S
C1989  H1991   1.111   .     S
H1990  C1521   1.106   1_565 S
C1992  H1994   1.111   .     S
C1992  H1993   1.111   .     S
C1992  H1995   1.111   .     S
C1992  C2067   1.528   .     S
O1996  C1997   1.421   .     S
C1997  H1999   1.118   .     S
C1997  C2000   1.531   .     S
C1997  H1998   1.107   .     S
C2000  H2001   1.109   .     S
C2000  C2003   1.523   .     S
C2000  H1534   1.110   1_565 S
C2003  H2004   1.111   .     S
C2003  H133    1.107   1_566 S
C2003  H602    1.111   1_556 S
O2007  C2008   1.415   .     S
C2008  C2011   1.529   .     S
C2008  H2010   1.112   .     S
C2008  H2009   1.111   .     S
C2011  C2014   1.527   .     S
C2011  H2012   1.111   .     S
C2011  H2013   1.110   .     S
C2014  H1548   1.106   1_565 S
C2014  H1549   1.110   1_565 S
H2015  C610    1.108   1_556 S
O2018  C2019   1.416   .     S
C2019  H2021   1.118   .     S
C2019  H2020   1.107   .     S
C2019  C2022   1.529   .     S
C2022  H2023   1.110   .     S
C2022  H620    1.107   1_556 S
C2025  H2026   1.111   .     S
C2025  H2027   1.109   .     S
C2025  H2028   1.111   .     S
C2025  C2100   1.528   .     S
C2029  O2053   1.281   .     A
C2029  O2055   1.287   .     A
C2029  C2040   1.416   .     S
C2030  O2054   1.292   .     A
C2030  C2039   1.427   .     S
C2030  O2056   1.282   .     A
C2031  O2059   1.277   .     A
C2031  O2057   1.284   .     A
C2031  C2033   1.400   .     S
C2032  O2060   1.281   .     A
C2032  C2034   1.400   .     S
C2032  O2058   1.280   .     A
C2034  C1877   1.323   1_655 S
C2034  H1890   1.086   1_655 S
C2035  C2040   1.405   .     A
C2035  O2063   1.387   .     S
C2036  C2039   1.408   .     A
C2036  O2074   1.382   .     S
C2036  C1570   1.368   1_565 S
C2037  C2039   1.398   .     A
C2037  H2047   1.083   .     S
C2037  C1567   1.380   1_565 S
C2038  C2040   1.392   .     A
C2038  H2048   1.084   .     S
C2041  O2085   1.385   .     S
C2041  N2052   1.369   .     A
C2042  N2051   1.374   .     A
C2042  O2096   1.384   .     S
C2042  C640    1.423   1_556 S
C2043  N2051   1.365   .     A
C2043  H2049   1.080   .     S
C2043  C637    1.428   1_556 S
C2044  H2050   1.080   .     S
C2044  N2052   1.363   .     A
H2045  C1877   1.089   1_655 S
N2051  Zn2061  2.015   .     S
N2052  Zn2062  2.015   .     S
O2053  Zn2061  1.995   .     S
O2054  Zn2062  1.995   .     S
O2055  Zn2062  2.002   .     S
O2056  Zn2061  2.002   .     S
O2057  Zn2061  1.975   .     S
O2058  Zn2062  1.975   .     S
O2059  Zn2062  1.975   .     S
O2060  Zn2061  1.975   .     S
O2063  C2064   1.424   .     S
C2064  H2065   1.110   .     S
C2064  H2066   1.108   .     S
C2064  C2067   1.539   .     S
C2067  H2069   1.111   .     S
H2068  C1599   1.106   1_565 S
C2070  H2072   1.111   .     S
C2070  H2071   1.111   .     S
C2070  H2073   1.111   .     S
C2070  C1911   1.528   1_655 S
O2074  C2075   1.421   .     S
C2075  H2077   1.118   .     S
C2075  C2078   1.531   .     S
C2075  H2076   1.107   .     S
C2078  H2079   1.109   .     S
C2078  C2081   1.523   .     S
C2078  H1612   1.110   1_565 S
C2081  H2082   1.111   .     S
C2081  H211    1.107   1_566 S
C2081  H680    1.111   1_556 S
O2085  C2086   1.415   .     S
C2086  C2089   1.529   .     S
C2086  H2088   1.112   .     S
C2086  H2087   1.111   .     S
C2089  C2092   1.527   .     S
C2089  H2090   1.111   .     S
C2089  H2091   1.110   .     S
C2092  H1626   1.106   1_565 S
C2092  H1627   1.110   1_565 S
H2093  C688    1.108   1_556 S
O2096  C2097   1.416   .     S
C2097  H2099   1.118   .     S
C2097  H2098   1.107   .     S
C2097  C2100   1.529   .     S
C2100  H2101   1.110   .     S
C2100  H698    1.107   1_556 S
C2103  H2104   1.111   .     S
C2103  H2105   1.109   .     S
C2103  H2106   1.111   .     S
C2103  C1944   1.528   1_655 S
