data_str_m3_o1_o18_pcu_sym.118
_audit_creation_date              2020-01-03
_audit_creation_method            'Materials Studio'
_symmetry_space_group_name_H-M    'P1'
_symmetry_Int_Tables_number       1
_symmetry_cell_setting            triclinic
loop_
_symmetry_equiv_pos_as_xyz
  x,y,z
_cell_length_a                    29.5475
_cell_length_b                    32.1511
_cell_length_c                    31.0017
_cell_angle_alpha                 90.0985
_cell_angle_beta                  67.7270
_cell_angle_gamma                 89.9606
loop_
_atom_site_label
_atom_site_type_symbol
_atom_site_fract_x
_atom_site_fract_y
_atom_site_fract_z
_atom_site_U_iso_or_equiv
_atom_site_adp_type
_atom_site_occupancy
C1     C     0.16666   0.24670   0.25004   0.00000  Uiso   1.00
C2     C     0.16669   0.08663   0.24994   0.00000  Uiso   1.00
C3     C     0.10510   0.16343   0.05431   0.00000  Uiso   1.00
C4     C     0.21166   0.12053   0.45599   0.00000  Uiso   1.00
C5     C     0.07132   0.16972   0.03376   0.00000  Uiso   1.00
C6     C     0.24528   0.11429   0.47686   0.00000  Uiso   1.00
C7     C     0.20312   0.31203   0.25953   0.00000  Uiso   1.00
C8     C     0.13026   0.02131   0.24040   0.00000  Uiso   1.00
C9     C     0.20316   0.02131   0.25945   0.00000  Uiso   1.00
C10    C     0.13021   0.31203   0.24047   0.00000  Uiso   1.00
C11    C     0.16672   0.04248   0.24991   0.00000  Uiso   1.00
C12    C     0.16665   0.29086   0.25003   0.00000  Uiso   1.00
C13    C     0.32140   0.14189   0.21981   0.00000  Uiso   1.00
C14    C     0.01195   0.19147   0.28016   0.00000  Uiso   1.00
C15    C     0.03599   0.14189   0.21986   0.00000  Uiso   1.00
C16    C     0.29737   0.19147   0.28010   0.00000  Uiso   1.00
C17    C     0.13610   0.16619   0.33802   0.00000  Uiso   1.00
C18    C     0.19718   0.16615   0.16196   0.00000  Uiso   1.00
C19    C     0.11661   0.16379   0.38873   0.00000  Uiso   1.00
C20    C     0.21543   0.15913   0.11180   0.00000  Uiso   1.00
C21    C     0.05313   0.17697   0.46409   0.00000  Uiso   1.00
C22    C     0.27005   0.12393   0.04268   0.00000  Uiso   1.00
C23    C     0.06868   0.17583   0.41570   0.00000  Uiso   1.00
C24    C     0.25956   0.13837   0.08796   0.00000  Uiso   1.00
C25    C     0.14786   0.15052   0.41012   0.00000  Uiso   1.00
C26    C     0.18297   0.16654   0.08989   0.00000  Uiso   1.00
C27    C     0.13319   0.15094   0.45854   0.00000  Uiso   1.00
C28    C     0.19028   0.14895   0.04665   0.00000  Uiso   1.00
C29    C     0.08544   0.16554   0.48571   0.00000  Uiso   1.00
C30    C     0.23556   0.12904   0.02179   0.00000  Uiso   1.00
C31    C     0.16633   0.14064   0.48013   0.00000  Uiso   1.00
C32    C     0.15384   0.15138   0.02745   0.00000  Uiso   1.00
H33    H     0.03460   0.17952   0.05547   0.00000  Uiso   1.00
H34    H     0.27933   0.09847   0.45731   0.00000  Uiso   1.00
H35    H     0.15122   0.18548   0.10799   0.00000  Uiso   1.00
H36    H     0.18474   0.14225   0.38804   0.00000  Uiso   1.00
H37    H     0.28486   0.13196   0.10487   0.00000  Uiso   1.00
H38    H     0.04406   0.18601   0.39935   0.00000  Uiso   1.00
H39    H     0.09170   0.16727   0.09166   0.00000  Uiso   1.00
H40    H     0.22147   0.10790   0.42137   0.00000  Uiso   1.00
H41    H     0.23128   0.29579   0.26728   0.00000  Uiso   1.00
H42    H     0.10209   0.03755   0.23264   0.00000  Uiso   1.00
H43    H     0.23135   0.03754   0.26716   0.00000  Uiso   1.00
H44    H     0.10202   0.29580   0.23278   0.00000  Uiso   1.00
H45    H     0.06376   0.12207   0.19576   0.00000  Uiso   1.00
H46    H     0.26961   0.21133   0.30415   0.00000  Uiso   1.00
N47    N     0.04759   0.16668   0.25001   0.00000  Uiso   1.00
N48    N     0.28574   0.16666   0.24999   0.00000  Uiso   1.00
O49    O     0.12846   0.22775   0.25000   0.00000  Uiso   1.00
O50    O     0.20488   0.10558   0.24999   0.00000  Uiso   1.00
O51    O     0.20490   0.22774   0.25000   0.00000  Uiso   1.00
O52    O     0.12843   0.10559   0.25000   0.00000  Uiso   1.00
O53    O     0.10661   0.16667   0.31612   0.00000  Uiso   1.00
O54    O     0.22672   0.16666   0.18387   0.00000  Uiso   1.00
O55    O     0.18305   0.16666   0.31612   0.00000  Uiso   1.00
O56    O     0.15028   0.16667   0.18388   0.00000  Uiso   1.00
Zn57   Zn    0.11562   0.16667   0.25000   0.00000  Uiso   1.00
Zn58   Zn    0.21771   0.16666   0.25000   0.00000  Uiso   1.00
F59    F     0.00756   0.19146   0.48948   0.00000  Uiso   1.00
F60    F     0.31286   0.10356   0.02012   0.00000  Uiso   1.00
F61    F     0.31084   0.11707   0.18951   0.00000  Uiso   1.00
F62    F     0.02253   0.21631   0.31043   0.00000  Uiso   1.00
C63    C     0.49999   0.24670   0.25004   0.00000  Uiso   1.00
C64    C     0.50002   0.08663   0.24994   0.00000  Uiso   1.00
C65    C     0.43843   0.16343   0.05431   0.00000  Uiso   1.00
C66    C     0.54499   0.12053   0.45599   0.00000  Uiso   1.00
C67    C     0.40465   0.16972   0.03376   0.00000  Uiso   1.00
C68    C     0.57861   0.11429   0.47686   0.00000  Uiso   1.00
C69    C     0.53645   0.31203   0.25953   0.00000  Uiso   1.00
C70    C     0.46359   0.02131   0.24040   0.00000  Uiso   1.00
C71    C     0.53649   0.02131   0.25945   0.00000  Uiso   1.00
C72    C     0.46355   0.31203   0.24047   0.00000  Uiso   1.00
C73    C     0.50005   0.04248   0.24991   0.00000  Uiso   1.00
C74    C     0.49998   0.29086   0.25003   0.00000  Uiso   1.00
C75    C     0.65473   0.14189   0.21981   0.00000  Uiso   1.00
C76    C     0.34528   0.19147   0.28016   0.00000  Uiso   1.00
C77    C     0.36932   0.14189   0.21986   0.00000  Uiso   1.00
C78    C     0.63070   0.19147   0.28010   0.00000  Uiso   1.00
C79    C     0.46943   0.16619   0.33802   0.00000  Uiso   1.00
C80    C     0.53052   0.16615   0.16196   0.00000  Uiso   1.00
C81    C     0.44994   0.16379   0.38873   0.00000  Uiso   1.00
C82    C     0.54877   0.15913   0.11180   0.00000  Uiso   1.00
C83    C     0.38646   0.17697   0.46409   0.00000  Uiso   1.00
C84    C     0.60338   0.12393   0.04268   0.00000  Uiso   1.00
C85    C     0.40202   0.17583   0.41570   0.00000  Uiso   1.00
C86    C     0.59289   0.13837   0.08796   0.00000  Uiso   1.00
C87    C     0.48119   0.15052   0.41012   0.00000  Uiso   1.00
C88    C     0.51630   0.16654   0.08989   0.00000  Uiso   1.00
C89    C     0.46653   0.15094   0.45854   0.00000  Uiso   1.00
C90    C     0.52362   0.14895   0.04665   0.00000  Uiso   1.00
C91    C     0.41877   0.16554   0.48571   0.00000  Uiso   1.00
C92    C     0.56890   0.12904   0.02179   0.00000  Uiso   1.00
C93    C     0.49966   0.14064   0.48013   0.00000  Uiso   1.00
C94    C     0.48717   0.15138   0.02745   0.00000  Uiso   1.00
H95    H     0.36793   0.17952   0.05547   0.00000  Uiso   1.00
H96    H     0.61266   0.09847   0.45731   0.00000  Uiso   1.00
H97    H     0.48455   0.18548   0.10799   0.00000  Uiso   1.00
H98    H     0.51807   0.14225   0.38804   0.00000  Uiso   1.00
H99    H     0.61819   0.13196   0.10487   0.00000  Uiso   1.00
H100   H     0.37739   0.18601   0.39935   0.00000  Uiso   1.00
H101   H     0.42503   0.16727   0.09166   0.00000  Uiso   1.00
H102   H     0.55480   0.10790   0.42137   0.00000  Uiso   1.00
H103   H     0.56462   0.29579   0.26728   0.00000  Uiso   1.00
H104   H     0.43543   0.03755   0.23264   0.00000  Uiso   1.00
H105   H     0.56468   0.03754   0.26716   0.00000  Uiso   1.00
H106   H     0.43535   0.29580   0.23278   0.00000  Uiso   1.00
H107   H     0.39709   0.12207   0.19576   0.00000  Uiso   1.00
H108   H     0.60294   0.21133   0.30415   0.00000  Uiso   1.00
N109   N     0.38093   0.16668   0.25001   0.00000  Uiso   1.00
N110   N     0.61907   0.16666   0.24999   0.00000  Uiso   1.00
O111   O     0.46179   0.22775   0.25000   0.00000  Uiso   1.00
O112   O     0.53821   0.10558   0.24999   0.00000  Uiso   1.00
O113   O     0.53823   0.22774   0.25000   0.00000  Uiso   1.00
O114   O     0.46177   0.10559   0.25000   0.00000  Uiso   1.00
O115   O     0.43994   0.16667   0.31612   0.00000  Uiso   1.00
O116   O     0.56006   0.16666   0.18387   0.00000  Uiso   1.00
O117   O     0.51639   0.16666   0.31612   0.00000  Uiso   1.00
O118   O     0.48361   0.16667   0.18388   0.00000  Uiso   1.00
Zn119  Zn    0.44896   0.16667   0.25000   0.00000  Uiso   1.00
Zn120  Zn    0.55104   0.16666   0.25000   0.00000  Uiso   1.00
F121   F     0.34090   0.19146   0.48948   0.00000  Uiso   1.00
F122   F     0.64619   0.10356   0.02012   0.00000  Uiso   1.00
F123   F     0.64417   0.11707   0.18951   0.00000  Uiso   1.00
F124   F     0.35586   0.21631   0.31043   0.00000  Uiso   1.00
C125   C     0.83332   0.24670   0.25004   0.00000  Uiso   1.00
C126   C     0.83335   0.08663   0.24994   0.00000  Uiso   1.00
C127   C     0.77177   0.16343   0.05431   0.00000  Uiso   1.00
C128   C     0.87832   0.12053   0.45599   0.00000  Uiso   1.00
C129   C     0.73799   0.16972   0.03376   0.00000  Uiso   1.00
C130   C     0.91194   0.11429   0.47686   0.00000  Uiso   1.00
C131   C     0.86978   0.31203   0.25953   0.00000  Uiso   1.00
C132   C     0.79692   0.02131   0.24040   0.00000  Uiso   1.00
C133   C     0.86982   0.02131   0.25945   0.00000  Uiso   1.00
C134   C     0.79688   0.31203   0.24047   0.00000  Uiso   1.00
C135   C     0.83338   0.04248   0.24991   0.00000  Uiso   1.00
C136   C     0.83331   0.29086   0.25003   0.00000  Uiso   1.00
C137   C     0.98806   0.14189   0.21981   0.00000  Uiso   1.00
C138   C     0.67862   0.19147   0.28016   0.00000  Uiso   1.00
C139   C     0.70265   0.14189   0.21986   0.00000  Uiso   1.00
C140   C     0.96403   0.19147   0.28010   0.00000  Uiso   1.00
C141   C     0.80276   0.16619   0.33802   0.00000  Uiso   1.00
C142   C     0.86385   0.16615   0.16196   0.00000  Uiso   1.00
C143   C     0.78327   0.16379   0.38873   0.00000  Uiso   1.00
C144   C     0.88210   0.15913   0.11180   0.00000  Uiso   1.00
C145   C     0.71979   0.17697   0.46409   0.00000  Uiso   1.00
C146   C     0.93672   0.12393   0.04268   0.00000  Uiso   1.00
C147   C     0.73535   0.17583   0.41570   0.00000  Uiso   1.00
C148   C     0.92623   0.13837   0.08796   0.00000  Uiso   1.00
C149   C     0.81453   0.15052   0.41012   0.00000  Uiso   1.00
C150   C     0.84963   0.16654   0.08989   0.00000  Uiso   1.00
C151   C     0.79986   0.15094   0.45854   0.00000  Uiso   1.00
C152   C     0.85695   0.14895   0.04665   0.00000  Uiso   1.00
C153   C     0.75210   0.16554   0.48571   0.00000  Uiso   1.00
C154   C     0.90223   0.12904   0.02179   0.00000  Uiso   1.00
C155   C     0.83299   0.14064   0.48013   0.00000  Uiso   1.00
C156   C     0.82051   0.15138   0.02745   0.00000  Uiso   1.00
H157   H     0.70127   0.17952   0.05547   0.00000  Uiso   1.00
H158   H     0.94600   0.09847   0.45731   0.00000  Uiso   1.00
H159   H     0.81789   0.18548   0.10799   0.00000  Uiso   1.00
H160   H     0.85140   0.14225   0.38804   0.00000  Uiso   1.00
H161   H     0.95152   0.13196   0.10487   0.00000  Uiso   1.00
H162   H     0.71073   0.18601   0.39935   0.00000  Uiso   1.00
H163   H     0.75837   0.16727   0.09166   0.00000  Uiso   1.00
H164   H     0.88813   0.10790   0.42137   0.00000  Uiso   1.00
H165   H     0.89795   0.29579   0.26728   0.00000  Uiso   1.00
H166   H     0.76876   0.03755   0.23264   0.00000  Uiso   1.00
H167   H     0.89802   0.03754   0.26716   0.00000  Uiso   1.00
H168   H     0.76868   0.29580   0.23278   0.00000  Uiso   1.00
H169   H     0.73043   0.12207   0.19576   0.00000  Uiso   1.00
H170   H     0.93628   0.21133   0.30415   0.00000  Uiso   1.00
N171   N     0.71426   0.16668   0.25001   0.00000  Uiso   1.00
N172   N     0.95241   0.16666   0.24999   0.00000  Uiso   1.00
O173   O     0.79512   0.22775   0.25000   0.00000  Uiso   1.00
O174   O     0.87154   0.10558   0.24999   0.00000  Uiso   1.00
O175   O     0.87157   0.22774   0.25000   0.00000  Uiso   1.00
O176   O     0.79510   0.10559   0.25000   0.00000  Uiso   1.00
O177   O     0.77328   0.16667   0.31612   0.00000  Uiso   1.00
O178   O     0.89339   0.16666   0.18387   0.00000  Uiso   1.00
O179   O     0.84972   0.16666   0.31612   0.00000  Uiso   1.00
O180   O     0.81695   0.16667   0.18388   0.00000  Uiso   1.00
Zn181  Zn    0.78229   0.16667   0.25000   0.00000  Uiso   1.00
Zn182  Zn    0.88438   0.16666   0.25000   0.00000  Uiso   1.00
F183   F     0.67423   0.19146   0.48948   0.00000  Uiso   1.00
F184   F     0.97953   0.10356   0.02012   0.00000  Uiso   1.00
F185   F     0.97750   0.11707   0.18951   0.00000  Uiso   1.00
F186   F     0.68920   0.21631   0.31043   0.00000  Uiso   1.00
C187   C     0.16666   0.58004   0.25004   0.00000  Uiso   1.00
C188   C     0.16669   0.41996   0.24994   0.00000  Uiso   1.00
C189   C     0.10510   0.49676   0.05431   0.00000  Uiso   1.00
C190   C     0.21166   0.45386   0.45599   0.00000  Uiso   1.00
C191   C     0.07132   0.50306   0.03376   0.00000  Uiso   1.00
C192   C     0.24528   0.44762   0.47686   0.00000  Uiso   1.00
C193   C     0.20312   0.64536   0.25953   0.00000  Uiso   1.00
C194   C     0.13026   0.35465   0.24040   0.00000  Uiso   1.00
C195   C     0.20316   0.35464   0.25945   0.00000  Uiso   1.00
C196   C     0.13021   0.64536   0.24047   0.00000  Uiso   1.00
C197   C     0.16672   0.37582   0.24991   0.00000  Uiso   1.00
C198   C     0.16665   0.62419   0.25003   0.00000  Uiso   1.00
C199   C     0.32140   0.47522   0.21981   0.00000  Uiso   1.00
C200   C     0.01195   0.52480   0.28016   0.00000  Uiso   1.00
C201   C     0.03599   0.47523   0.21986   0.00000  Uiso   1.00
C202   C     0.29737   0.52481   0.28010   0.00000  Uiso   1.00
C203   C     0.13610   0.49953   0.33802   0.00000  Uiso   1.00
C204   C     0.19718   0.49948   0.16196   0.00000  Uiso   1.00
C205   C     0.11661   0.49712   0.38873   0.00000  Uiso   1.00
C206   C     0.21543   0.49246   0.11180   0.00000  Uiso   1.00
C207   C     0.05313   0.51031   0.46409   0.00000  Uiso   1.00
C208   C     0.27005   0.45726   0.04268   0.00000  Uiso   1.00
C209   C     0.06868   0.50916   0.41570   0.00000  Uiso   1.00
C210   C     0.25956   0.47170   0.08796   0.00000  Uiso   1.00
C211   C     0.14786   0.48385   0.41012   0.00000  Uiso   1.00
C212   C     0.18297   0.49987   0.08989   0.00000  Uiso   1.00
C213   C     0.13319   0.48427   0.45854   0.00000  Uiso   1.00
C214   C     0.19028   0.48228   0.04665   0.00000  Uiso   1.00
C215   C     0.08544   0.49887   0.48571   0.00000  Uiso   1.00
C216   C     0.23556   0.46237   0.02179   0.00000  Uiso   1.00
C217   C     0.16633   0.47398   0.48013   0.00000  Uiso   1.00
C218   C     0.15384   0.48471   0.02745   0.00000  Uiso   1.00
H219   H     0.03460   0.51285   0.05547   0.00000  Uiso   1.00
H220   H     0.27933   0.43180   0.45731   0.00000  Uiso   1.00
H221   H     0.15122   0.51881   0.10799   0.00000  Uiso   1.00
H222   H     0.18474   0.47558   0.38804   0.00000  Uiso   1.00
H223   H     0.28486   0.46530   0.10487   0.00000  Uiso   1.00
H224   H     0.04406   0.51935   0.39935   0.00000  Uiso   1.00
H225   H     0.09170   0.50060   0.09166   0.00000  Uiso   1.00
H226   H     0.22147   0.44123   0.42137   0.00000  Uiso   1.00
H227   H     0.23128   0.62913   0.26728   0.00000  Uiso   1.00
H228   H     0.10209   0.37088   0.23264   0.00000  Uiso   1.00
H229   H     0.23135   0.37087   0.26716   0.00000  Uiso   1.00
H230   H     0.10202   0.62913   0.23278   0.00000  Uiso   1.00
H231   H     0.06376   0.45541   0.19576   0.00000  Uiso   1.00
H232   H     0.26961   0.54467   0.30415   0.00000  Uiso   1.00
N233   N     0.04759   0.50001   0.25001   0.00000  Uiso   1.00
N234   N     0.28574   0.49999   0.24999   0.00000  Uiso   1.00
O235   O     0.12846   0.56108   0.25000   0.00000  Uiso   1.00
O236   O     0.20488   0.43892   0.24999   0.00000  Uiso   1.00
O237   O     0.20490   0.56107   0.25000   0.00000  Uiso   1.00
O238   O     0.12843   0.43893   0.25000   0.00000  Uiso   1.00
O239   O     0.10661   0.50001   0.31612   0.00000  Uiso   1.00
O240   O     0.22672   0.49999   0.18387   0.00000  Uiso   1.00
O241   O     0.18305   0.50000   0.31612   0.00000  Uiso   1.00
O242   O     0.15028   0.50000   0.18388   0.00000  Uiso   1.00
Zn243  Zn    0.11562   0.50001   0.25000   0.00000  Uiso   1.00
Zn244  Zn    0.21771   0.49999   0.25000   0.00000  Uiso   1.00
F245   F     0.00756   0.52479   0.48948   0.00000  Uiso   1.00
F246   F     0.31286   0.43690   0.02012   0.00000  Uiso   1.00
F247   F     0.31084   0.45040   0.18951   0.00000  Uiso   1.00
F248   F     0.02253   0.54965   0.31043   0.00000  Uiso   1.00
C249   C     0.49999   0.58004   0.25004   0.00000  Uiso   1.00
C250   C     0.50002   0.41996   0.24994   0.00000  Uiso   1.00
C251   C     0.43843   0.49676   0.05431   0.00000  Uiso   1.00
C252   C     0.54499   0.45386   0.45599   0.00000  Uiso   1.00
C253   C     0.40465   0.50306   0.03376   0.00000  Uiso   1.00
C254   C     0.57861   0.44762   0.47686   0.00000  Uiso   1.00
C255   C     0.53645   0.64536   0.25953   0.00000  Uiso   1.00
C256   C     0.46359   0.35465   0.24040   0.00000  Uiso   1.00
C257   C     0.53649   0.35464   0.25945   0.00000  Uiso   1.00
C258   C     0.46355   0.64536   0.24047   0.00000  Uiso   1.00
C259   C     0.50005   0.37582   0.24991   0.00000  Uiso   1.00
C260   C     0.49998   0.62419   0.25003   0.00000  Uiso   1.00
C261   C     0.65473   0.47522   0.21981   0.00000  Uiso   1.00
C262   C     0.34528   0.52480   0.28016   0.00000  Uiso   1.00
C263   C     0.36932   0.47523   0.21986   0.00000  Uiso   1.00
C264   C     0.63070   0.52481   0.28010   0.00000  Uiso   1.00
C265   C     0.46943   0.49953   0.33802   0.00000  Uiso   1.00
C266   C     0.53052   0.49948   0.16196   0.00000  Uiso   1.00
C267   C     0.44994   0.49712   0.38873   0.00000  Uiso   1.00
C268   C     0.54877   0.49246   0.11180   0.00000  Uiso   1.00
C269   C     0.38646   0.51031   0.46409   0.00000  Uiso   1.00
C270   C     0.60338   0.45726   0.04268   0.00000  Uiso   1.00
C271   C     0.40202   0.50916   0.41570   0.00000  Uiso   1.00
C272   C     0.59289   0.47170   0.08796   0.00000  Uiso   1.00
C273   C     0.48119   0.48385   0.41012   0.00000  Uiso   1.00
C274   C     0.51630   0.49987   0.08989   0.00000  Uiso   1.00
C275   C     0.46653   0.48427   0.45854   0.00000  Uiso   1.00
C276   C     0.52362   0.48228   0.04665   0.00000  Uiso   1.00
C277   C     0.41877   0.49887   0.48571   0.00000  Uiso   1.00
C278   C     0.56890   0.46237   0.02179   0.00000  Uiso   1.00
C279   C     0.49966   0.47398   0.48013   0.00000  Uiso   1.00
C280   C     0.48717   0.48471   0.02745   0.00000  Uiso   1.00
H281   H     0.36793   0.51285   0.05547   0.00000  Uiso   1.00
H282   H     0.61266   0.43180   0.45731   0.00000  Uiso   1.00
H283   H     0.48455   0.51881   0.10799   0.00000  Uiso   1.00
H284   H     0.51807   0.47558   0.38804   0.00000  Uiso   1.00
H285   H     0.61819   0.46530   0.10487   0.00000  Uiso   1.00
H286   H     0.37739   0.51935   0.39935   0.00000  Uiso   1.00
H287   H     0.42503   0.50060   0.09166   0.00000  Uiso   1.00
H288   H     0.55480   0.44123   0.42137   0.00000  Uiso   1.00
H289   H     0.56462   0.62913   0.26728   0.00000  Uiso   1.00
H290   H     0.43543   0.37088   0.23264   0.00000  Uiso   1.00
H291   H     0.56468   0.37087   0.26716   0.00000  Uiso   1.00
H292   H     0.43535   0.62913   0.23278   0.00000  Uiso   1.00
H293   H     0.39709   0.45541   0.19576   0.00000  Uiso   1.00
H294   H     0.60294   0.54467   0.30415   0.00000  Uiso   1.00
N295   N     0.38093   0.50001   0.25001   0.00000  Uiso   1.00
N296   N     0.61907   0.49999   0.24999   0.00000  Uiso   1.00
O297   O     0.46179   0.56108   0.25000   0.00000  Uiso   1.00
O298   O     0.53821   0.43892   0.24999   0.00000  Uiso   1.00
O299   O     0.53823   0.56107   0.25000   0.00000  Uiso   1.00
O300   O     0.46177   0.43893   0.25000   0.00000  Uiso   1.00
O301   O     0.43994   0.50001   0.31612   0.00000  Uiso   1.00
O302   O     0.56006   0.49999   0.18387   0.00000  Uiso   1.00
O303   O     0.51639   0.50000   0.31612   0.00000  Uiso   1.00
O304   O     0.48361   0.50000   0.18388   0.00000  Uiso   1.00
Zn305  Zn    0.44896   0.50001   0.25000   0.00000  Uiso   1.00
Zn306  Zn    0.55104   0.49999   0.25000   0.00000  Uiso   1.00
F307   F     0.34090   0.52479   0.48948   0.00000  Uiso   1.00
F308   F     0.64619   0.43690   0.02012   0.00000  Uiso   1.00
F309   F     0.64417   0.45040   0.18951   0.00000  Uiso   1.00
F310   F     0.35586   0.54965   0.31043   0.00000  Uiso   1.00
C311   C     0.83332   0.58004   0.25004   0.00000  Uiso   1.00
C312   C     0.83335   0.41996   0.24994   0.00000  Uiso   1.00
C313   C     0.77177   0.49676   0.05431   0.00000  Uiso   1.00
C314   C     0.87832   0.45386   0.45599   0.00000  Uiso   1.00
C315   C     0.73799   0.50306   0.03376   0.00000  Uiso   1.00
C316   C     0.91194   0.44762   0.47686   0.00000  Uiso   1.00
C317   C     0.86978   0.64536   0.25953   0.00000  Uiso   1.00
C318   C     0.79692   0.35465   0.24040   0.00000  Uiso   1.00
C319   C     0.86982   0.35464   0.25945   0.00000  Uiso   1.00
C320   C     0.79688   0.64536   0.24047   0.00000  Uiso   1.00
C321   C     0.83338   0.37582   0.24991   0.00000  Uiso   1.00
C322   C     0.83331   0.62419   0.25003   0.00000  Uiso   1.00
C323   C     0.98806   0.47522   0.21981   0.00000  Uiso   1.00
C324   C     0.67862   0.52480   0.28016   0.00000  Uiso   1.00
C325   C     0.70265   0.47523   0.21986   0.00000  Uiso   1.00
C326   C     0.96403   0.52481   0.28010   0.00000  Uiso   1.00
C327   C     0.80276   0.49953   0.33802   0.00000  Uiso   1.00
C328   C     0.86385   0.49948   0.16196   0.00000  Uiso   1.00
C329   C     0.78327   0.49712   0.38873   0.00000  Uiso   1.00
C330   C     0.88210   0.49246   0.11180   0.00000  Uiso   1.00
C331   C     0.71979   0.51031   0.46409   0.00000  Uiso   1.00
C332   C     0.93672   0.45726   0.04268   0.00000  Uiso   1.00
C333   C     0.73535   0.50916   0.41570   0.00000  Uiso   1.00
C334   C     0.92623   0.47170   0.08796   0.00000  Uiso   1.00
C335   C     0.81453   0.48385   0.41012   0.00000  Uiso   1.00
C336   C     0.84963   0.49987   0.08989   0.00000  Uiso   1.00
C337   C     0.79986   0.48427   0.45854   0.00000  Uiso   1.00
C338   C     0.85695   0.48228   0.04665   0.00000  Uiso   1.00
C339   C     0.75210   0.49887   0.48571   0.00000  Uiso   1.00
C340   C     0.90223   0.46237   0.02179   0.00000  Uiso   1.00
C341   C     0.83299   0.47398   0.48013   0.00000  Uiso   1.00
C342   C     0.82051   0.48471   0.02745   0.00000  Uiso   1.00
H343   H     0.70127   0.51285   0.05547   0.00000  Uiso   1.00
H344   H     0.94600   0.43180   0.45731   0.00000  Uiso   1.00
H345   H     0.81789   0.51881   0.10799   0.00000  Uiso   1.00
H346   H     0.85140   0.47558   0.38804   0.00000  Uiso   1.00
H347   H     0.95152   0.46530   0.10487   0.00000  Uiso   1.00
H348   H     0.71073   0.51935   0.39935   0.00000  Uiso   1.00
H349   H     0.75837   0.50060   0.09166   0.00000  Uiso   1.00
H350   H     0.88813   0.44123   0.42137   0.00000  Uiso   1.00
H351   H     0.89795   0.62913   0.26728   0.00000  Uiso   1.00
H352   H     0.76876   0.37088   0.23264   0.00000  Uiso   1.00
H353   H     0.89802   0.37087   0.26716   0.00000  Uiso   1.00
H354   H     0.76868   0.62913   0.23278   0.00000  Uiso   1.00
H355   H     0.73043   0.45541   0.19576   0.00000  Uiso   1.00
H356   H     0.93628   0.54467   0.30415   0.00000  Uiso   1.00
N357   N     0.71426   0.50001   0.25001   0.00000  Uiso   1.00
N358   N     0.95241   0.49999   0.24999   0.00000  Uiso   1.00
O359   O     0.79512   0.56108   0.25000   0.00000  Uiso   1.00
O360   O     0.87154   0.43892   0.24999   0.00000  Uiso   1.00
O361   O     0.87157   0.56107   0.25000   0.00000  Uiso   1.00
O362   O     0.79510   0.43893   0.25000   0.00000  Uiso   1.00
O363   O     0.77328   0.50001   0.31612   0.00000  Uiso   1.00
O364   O     0.89339   0.49999   0.18387   0.00000  Uiso   1.00
O365   O     0.84972   0.50000   0.31612   0.00000  Uiso   1.00
O366   O     0.81695   0.50000   0.18388   0.00000  Uiso   1.00
Zn367  Zn    0.78229   0.50001   0.25000   0.00000  Uiso   1.00
Zn368  Zn    0.88438   0.49999   0.25000   0.00000  Uiso   1.00
F369   F     0.67423   0.52479   0.48948   0.00000  Uiso   1.00
F370   F     0.97953   0.43690   0.02012   0.00000  Uiso   1.00
F371   F     0.97750   0.45040   0.18951   0.00000  Uiso   1.00
F372   F     0.68920   0.54965   0.31043   0.00000  Uiso   1.00
C373   C     0.16666   0.91337   0.25004   0.00000  Uiso   1.00
C374   C     0.16669   0.75330   0.24994   0.00000  Uiso   1.00
C375   C     0.10510   0.83010   0.05431   0.00000  Uiso   1.00
C376   C     0.21166   0.78719   0.45599   0.00000  Uiso   1.00
C377   C     0.07132   0.83639   0.03376   0.00000  Uiso   1.00
C378   C     0.24528   0.78096   0.47686   0.00000  Uiso   1.00
C379   C     0.20312   0.97869   0.25953   0.00000  Uiso   1.00
C380   C     0.13026   0.68798   0.24040   0.00000  Uiso   1.00
C381   C     0.20316   0.68797   0.25945   0.00000  Uiso   1.00
C382   C     0.13021   0.97870   0.24047   0.00000  Uiso   1.00
C383   C     0.16672   0.70915   0.24991   0.00000  Uiso   1.00
C384   C     0.16665   0.95752   0.25003   0.00000  Uiso   1.00
C385   C     0.32140   0.80855   0.21981   0.00000  Uiso   1.00
C386   C     0.01195   0.85814   0.28016   0.00000  Uiso   1.00
C387   C     0.03599   0.80856   0.21986   0.00000  Uiso   1.00
C388   C     0.29737   0.85814   0.28010   0.00000  Uiso   1.00
C389   C     0.13610   0.83286   0.33802   0.00000  Uiso   1.00
C390   C     0.19718   0.83282   0.16196   0.00000  Uiso   1.00
C391   C     0.11661   0.83045   0.38873   0.00000  Uiso   1.00
C392   C     0.21543   0.82580   0.11180   0.00000  Uiso   1.00
C393   C     0.05313   0.84364   0.46409   0.00000  Uiso   1.00
C394   C     0.27005   0.79059   0.04268   0.00000  Uiso   1.00
C395   C     0.06868   0.84250   0.41570   0.00000  Uiso   1.00
C396   C     0.25956   0.80504   0.08796   0.00000  Uiso   1.00
C397   C     0.14786   0.81718   0.41012   0.00000  Uiso   1.00
C398   C     0.18297   0.83320   0.08989   0.00000  Uiso   1.00
C399   C     0.13319   0.81760   0.45854   0.00000  Uiso   1.00
C400   C     0.19028   0.81561   0.04665   0.00000  Uiso   1.00
C401   C     0.08544   0.83220   0.48571   0.00000  Uiso   1.00
C402   C     0.23556   0.79571   0.02179   0.00000  Uiso   1.00
C403   C     0.16633   0.80731   0.48013   0.00000  Uiso   1.00
C404   C     0.15384   0.81804   0.02745   0.00000  Uiso   1.00
H405   H     0.03460   0.84619   0.05547   0.00000  Uiso   1.00
H406   H     0.27933   0.76514   0.45731   0.00000  Uiso   1.00
H407   H     0.15122   0.85214   0.10799   0.00000  Uiso   1.00
H408   H     0.18474   0.80892   0.38804   0.00000  Uiso   1.00
H409   H     0.28486   0.79863   0.10487   0.00000  Uiso   1.00
H410   H     0.04406   0.85268   0.39935   0.00000  Uiso   1.00
H411   H     0.09170   0.83393   0.09166   0.00000  Uiso   1.00
H412   H     0.22147   0.77457   0.42137   0.00000  Uiso   1.00
H413   H     0.23128   0.96246   0.26728   0.00000  Uiso   1.00
H414   H     0.10209   0.70421   0.23264   0.00000  Uiso   1.00
H415   H     0.23135   0.70421   0.26716   0.00000  Uiso   1.00
H416   H     0.10202   0.96247   0.23278   0.00000  Uiso   1.00
H417   H     0.06376   0.78874   0.19576   0.00000  Uiso   1.00
H418   H     0.26961   0.87800   0.30415   0.00000  Uiso   1.00
N419   N     0.04759   0.83334   0.25001   0.00000  Uiso   1.00
N420   N     0.28574   0.83332   0.24999   0.00000  Uiso   1.00
O421   O     0.12846   0.89442   0.25000   0.00000  Uiso   1.00
O422   O     0.20488   0.77225   0.24999   0.00000  Uiso   1.00
O423   O     0.20490   0.89441   0.25000   0.00000  Uiso   1.00
O424   O     0.12843   0.77226   0.25000   0.00000  Uiso   1.00
O425   O     0.10661   0.83334   0.31612   0.00000  Uiso   1.00
O426   O     0.22672   0.83333   0.18387   0.00000  Uiso   1.00
O427   O     0.18305   0.83333   0.31612   0.00000  Uiso   1.00
O428   O     0.15028   0.83334   0.18388   0.00000  Uiso   1.00
Zn429  Zn    0.11562   0.83334   0.25000   0.00000  Uiso   1.00
Zn430  Zn    0.21771   0.83333   0.25000   0.00000  Uiso   1.00
F431   F     0.00756   0.85813   0.48948   0.00000  Uiso   1.00
F432   F     0.31286   0.77023   0.02012   0.00000  Uiso   1.00
F433   F     0.31084   0.78374   0.18951   0.00000  Uiso   1.00
F434   F     0.02253   0.88298   0.31043   0.00000  Uiso   1.00
C435   C     0.49999   0.91337   0.25004   0.00000  Uiso   1.00
C436   C     0.50002   0.75330   0.24994   0.00000  Uiso   1.00
C437   C     0.43843   0.83010   0.05431   0.00000  Uiso   1.00
C438   C     0.54499   0.78719   0.45599   0.00000  Uiso   1.00
C439   C     0.40465   0.83639   0.03376   0.00000  Uiso   1.00
C440   C     0.57861   0.78096   0.47686   0.00000  Uiso   1.00
C441   C     0.53645   0.97869   0.25953   0.00000  Uiso   1.00
C442   C     0.46359   0.68798   0.24040   0.00000  Uiso   1.00
C443   C     0.53649   0.68797   0.25945   0.00000  Uiso   1.00
C444   C     0.46355   0.97870   0.24047   0.00000  Uiso   1.00
C445   C     0.50005   0.70915   0.24991   0.00000  Uiso   1.00
C446   C     0.49998   0.95752   0.25003   0.00000  Uiso   1.00
C447   C     0.65473   0.80855   0.21981   0.00000  Uiso   1.00
C448   C     0.34528   0.85814   0.28016   0.00000  Uiso   1.00
C449   C     0.36932   0.80856   0.21986   0.00000  Uiso   1.00
C450   C     0.63070   0.85814   0.28010   0.00000  Uiso   1.00
C451   C     0.46943   0.83286   0.33802   0.00000  Uiso   1.00
C452   C     0.53052   0.83282   0.16196   0.00000  Uiso   1.00
C453   C     0.44994   0.83045   0.38873   0.00000  Uiso   1.00
C454   C     0.54877   0.82580   0.11180   0.00000  Uiso   1.00
C455   C     0.38646   0.84364   0.46409   0.00000  Uiso   1.00
C456   C     0.60338   0.79059   0.04268   0.00000  Uiso   1.00
C457   C     0.40202   0.84250   0.41570   0.00000  Uiso   1.00
C458   C     0.59289   0.80504   0.08796   0.00000  Uiso   1.00
C459   C     0.48119   0.81718   0.41012   0.00000  Uiso   1.00
C460   C     0.51630   0.83320   0.08989   0.00000  Uiso   1.00
C461   C     0.46653   0.81760   0.45854   0.00000  Uiso   1.00
C462   C     0.52362   0.81561   0.04665   0.00000  Uiso   1.00
C463   C     0.41877   0.83220   0.48571   0.00000  Uiso   1.00
C464   C     0.56890   0.79571   0.02179   0.00000  Uiso   1.00
C465   C     0.49966   0.80731   0.48013   0.00000  Uiso   1.00
C466   C     0.48717   0.81804   0.02745   0.00000  Uiso   1.00
H467   H     0.36793   0.84619   0.05547   0.00000  Uiso   1.00
H468   H     0.61266   0.76514   0.45731   0.00000  Uiso   1.00
H469   H     0.48455   0.85214   0.10799   0.00000  Uiso   1.00
H470   H     0.51807   0.80892   0.38804   0.00000  Uiso   1.00
H471   H     0.61819   0.79863   0.10487   0.00000  Uiso   1.00
H472   H     0.37739   0.85268   0.39935   0.00000  Uiso   1.00
H473   H     0.42503   0.83393   0.09166   0.00000  Uiso   1.00
H474   H     0.55480   0.77457   0.42137   0.00000  Uiso   1.00
H475   H     0.56462   0.96246   0.26728   0.00000  Uiso   1.00
H476   H     0.43543   0.70421   0.23264   0.00000  Uiso   1.00
H477   H     0.56468   0.70421   0.26716   0.00000  Uiso   1.00
H478   H     0.43535   0.96247   0.23278   0.00000  Uiso   1.00
H479   H     0.39709   0.78874   0.19576   0.00000  Uiso   1.00
H480   H     0.60294   0.87800   0.30415   0.00000  Uiso   1.00
N481   N     0.38093   0.83334   0.25001   0.00000  Uiso   1.00
N482   N     0.61907   0.83332   0.24999   0.00000  Uiso   1.00
O483   O     0.46179   0.89442   0.25000   0.00000  Uiso   1.00
O484   O     0.53821   0.77225   0.24999   0.00000  Uiso   1.00
O485   O     0.53823   0.89441   0.25000   0.00000  Uiso   1.00
O486   O     0.46177   0.77226   0.25000   0.00000  Uiso   1.00
O487   O     0.43994   0.83334   0.31612   0.00000  Uiso   1.00
O488   O     0.56006   0.83333   0.18387   0.00000  Uiso   1.00
O489   O     0.51639   0.83333   0.31612   0.00000  Uiso   1.00
O490   O     0.48361   0.83334   0.18388   0.00000  Uiso   1.00
Zn491  Zn    0.44896   0.83334   0.25000   0.00000  Uiso   1.00
Zn492  Zn    0.55104   0.83333   0.25000   0.00000  Uiso   1.00
F493   F     0.34090   0.85813   0.48948   0.00000  Uiso   1.00
F494   F     0.64619   0.77023   0.02012   0.00000  Uiso   1.00
F495   F     0.64417   0.78374   0.18951   0.00000  Uiso   1.00
F496   F     0.35586   0.88298   0.31043   0.00000  Uiso   1.00
C497   C     0.83332   0.91337   0.25004   0.00000  Uiso   1.00
C498   C     0.83335   0.75330   0.24994   0.00000  Uiso   1.00
C499   C     0.77177   0.83010   0.05431   0.00000  Uiso   1.00
C500   C     0.87832   0.78719   0.45599   0.00000  Uiso   1.00
C501   C     0.73799   0.83639   0.03376   0.00000  Uiso   1.00
C502   C     0.91194   0.78096   0.47686   0.00000  Uiso   1.00
C503   C     0.86978   0.97869   0.25953   0.00000  Uiso   1.00
C504   C     0.79692   0.68798   0.24040   0.00000  Uiso   1.00
C505   C     0.86982   0.68797   0.25945   0.00000  Uiso   1.00
C506   C     0.79688   0.97870   0.24047   0.00000  Uiso   1.00
C507   C     0.83338   0.70915   0.24991   0.00000  Uiso   1.00
C508   C     0.83331   0.95752   0.25003   0.00000  Uiso   1.00
C509   C     0.98806   0.80855   0.21981   0.00000  Uiso   1.00
C510   C     0.67862   0.85814   0.28016   0.00000  Uiso   1.00
C511   C     0.70265   0.80856   0.21986   0.00000  Uiso   1.00
C512   C     0.96403   0.85814   0.28010   0.00000  Uiso   1.00
C513   C     0.80276   0.83286   0.33802   0.00000  Uiso   1.00
C514   C     0.86385   0.83282   0.16196   0.00000  Uiso   1.00
C515   C     0.78327   0.83045   0.38873   0.00000  Uiso   1.00
C516   C     0.88210   0.82580   0.11180   0.00000  Uiso   1.00
C517   C     0.71979   0.84364   0.46409   0.00000  Uiso   1.00
C518   C     0.93672   0.79059   0.04268   0.00000  Uiso   1.00
C519   C     0.73535   0.84250   0.41570   0.00000  Uiso   1.00
C520   C     0.92623   0.80504   0.08796   0.00000  Uiso   1.00
C521   C     0.81453   0.81718   0.41012   0.00000  Uiso   1.00
C522   C     0.84963   0.83320   0.08989   0.00000  Uiso   1.00
C523   C     0.79986   0.81760   0.45854   0.00000  Uiso   1.00
C524   C     0.85695   0.81561   0.04665   0.00000  Uiso   1.00
C525   C     0.75210   0.83220   0.48571   0.00000  Uiso   1.00
C526   C     0.90223   0.79571   0.02179   0.00000  Uiso   1.00
C527   C     0.83299   0.80731   0.48013   0.00000  Uiso   1.00
C528   C     0.82051   0.81804   0.02745   0.00000  Uiso   1.00
H529   H     0.70127   0.84619   0.05547   0.00000  Uiso   1.00
H530   H     0.94600   0.76514   0.45731   0.00000  Uiso   1.00
H531   H     0.81789   0.85214   0.10799   0.00000  Uiso   1.00
H532   H     0.85140   0.80892   0.38804   0.00000  Uiso   1.00
H533   H     0.95152   0.79863   0.10487   0.00000  Uiso   1.00
H534   H     0.71073   0.85268   0.39935   0.00000  Uiso   1.00
H535   H     0.75837   0.83393   0.09166   0.00000  Uiso   1.00
H536   H     0.88813   0.77457   0.42137   0.00000  Uiso   1.00
H537   H     0.89795   0.96246   0.26728   0.00000  Uiso   1.00
H538   H     0.76876   0.70421   0.23264   0.00000  Uiso   1.00
H539   H     0.89802   0.70421   0.26716   0.00000  Uiso   1.00
H540   H     0.76868   0.96247   0.23278   0.00000  Uiso   1.00
H541   H     0.73043   0.78874   0.19576   0.00000  Uiso   1.00
H542   H     0.93628   0.87800   0.30415   0.00000  Uiso   1.00
N543   N     0.71426   0.83334   0.25001   0.00000  Uiso   1.00
N544   N     0.95241   0.83332   0.24999   0.00000  Uiso   1.00
O545   O     0.79512   0.89442   0.25000   0.00000  Uiso   1.00
O546   O     0.87154   0.77225   0.24999   0.00000  Uiso   1.00
O547   O     0.87157   0.89441   0.25000   0.00000  Uiso   1.00
O548   O     0.79510   0.77226   0.25000   0.00000  Uiso   1.00
O549   O     0.77328   0.83334   0.31612   0.00000  Uiso   1.00
O550   O     0.89339   0.83333   0.18387   0.00000  Uiso   1.00
O551   O     0.84972   0.83333   0.31612   0.00000  Uiso   1.00
O552   O     0.81695   0.83334   0.18388   0.00000  Uiso   1.00
Zn553  Zn    0.78229   0.83334   0.25000   0.00000  Uiso   1.00
Zn554  Zn    0.88438   0.83333   0.25000   0.00000  Uiso   1.00
F555   F     0.67423   0.85813   0.48948   0.00000  Uiso   1.00
F556   F     0.97953   0.77023   0.02012   0.00000  Uiso   1.00
F557   F     0.97750   0.78374   0.18951   0.00000  Uiso   1.00
F558   F     0.68920   0.88298   0.31043   0.00000  Uiso   1.00
C559   C     0.16666   0.24670   0.75004   0.00000  Uiso   1.00
C560   C     0.16669   0.08663   0.74994   0.00000  Uiso   1.00
C561   C     0.10510   0.16343   0.55431   0.00000  Uiso   1.00
C562   C     0.21166   0.12053   0.95599   0.00000  Uiso   1.00
C563   C     0.07132   0.16972   0.53376   0.00000  Uiso   1.00
C564   C     0.24528   0.11429   0.97686   0.00000  Uiso   1.00
C565   C     0.20312   0.31203   0.75953   0.00000  Uiso   1.00
C566   C     0.13026   0.02131   0.74040   0.00000  Uiso   1.00
C567   C     0.20316   0.02131   0.75945   0.00000  Uiso   1.00
C568   C     0.13021   0.31203   0.74047   0.00000  Uiso   1.00
C569   C     0.16672   0.04248   0.74991   0.00000  Uiso   1.00
C570   C     0.16665   0.29086   0.75003   0.00000  Uiso   1.00
C571   C     0.32140   0.14189   0.71981   0.00000  Uiso   1.00
C572   C     0.01195   0.19147   0.78016   0.00000  Uiso   1.00
C573   C     0.03599   0.14189   0.71986   0.00000  Uiso   1.00
C574   C     0.29737   0.19147   0.78010   0.00000  Uiso   1.00
C575   C     0.13610   0.16619   0.83802   0.00000  Uiso   1.00
C576   C     0.19718   0.16615   0.66196   0.00000  Uiso   1.00
C577   C     0.11661   0.16379   0.88873   0.00000  Uiso   1.00
C578   C     0.21543   0.15913   0.61180   0.00000  Uiso   1.00
C579   C     0.05313   0.17697   0.96409   0.00000  Uiso   1.00
C580   C     0.27005   0.12393   0.54268   0.00000  Uiso   1.00
C581   C     0.06868   0.17583   0.91570   0.00000  Uiso   1.00
C582   C     0.25956   0.13837   0.58796   0.00000  Uiso   1.00
C583   C     0.14786   0.15052   0.91012   0.00000  Uiso   1.00
C584   C     0.18297   0.16654   0.58989   0.00000  Uiso   1.00
C585   C     0.13319   0.15094   0.95854   0.00000  Uiso   1.00
C586   C     0.19028   0.14895   0.54665   0.00000  Uiso   1.00
C587   C     0.08544   0.16554   0.98571   0.00000  Uiso   1.00
C588   C     0.23556   0.12904   0.52179   0.00000  Uiso   1.00
C589   C     0.16633   0.14064   0.98013   0.00000  Uiso   1.00
C590   C     0.15384   0.15138   0.52745   0.00000  Uiso   1.00
H591   H     0.03460   0.17952   0.55547   0.00000  Uiso   1.00
H592   H     0.27933   0.09847   0.95731   0.00000  Uiso   1.00
H593   H     0.15122   0.18548   0.60799   0.00000  Uiso   1.00
H594   H     0.18474   0.14225   0.88804   0.00000  Uiso   1.00
H595   H     0.28486   0.13196   0.60487   0.00000  Uiso   1.00
H596   H     0.04406   0.18601   0.89935   0.00000  Uiso   1.00
H597   H     0.09170   0.16727   0.59166   0.00000  Uiso   1.00
H598   H     0.22147   0.10790   0.92137   0.00000  Uiso   1.00
H599   H     0.23128   0.29579   0.76728   0.00000  Uiso   1.00
H600   H     0.10209   0.03755   0.73264   0.00000  Uiso   1.00
H601   H     0.23135   0.03754   0.76716   0.00000  Uiso   1.00
H602   H     0.10202   0.29580   0.73278   0.00000  Uiso   1.00
H603   H     0.06376   0.12207   0.69576   0.00000  Uiso   1.00
H604   H     0.26961   0.21133   0.80415   0.00000  Uiso   1.00
N605   N     0.04759   0.16668   0.75001   0.00000  Uiso   1.00
N606   N     0.28574   0.16666   0.74999   0.00000  Uiso   1.00
O607   O     0.12846   0.22775   0.75000   0.00000  Uiso   1.00
O608   O     0.20488   0.10558   0.74999   0.00000  Uiso   1.00
O609   O     0.20490   0.22774   0.75000   0.00000  Uiso   1.00
O610   O     0.12843   0.10559   0.75000   0.00000  Uiso   1.00
O611   O     0.10661   0.16667   0.81612   0.00000  Uiso   1.00
O612   O     0.22672   0.16666   0.68387   0.00000  Uiso   1.00
O613   O     0.18305   0.16666   0.81612   0.00000  Uiso   1.00
O614   O     0.15028   0.16667   0.68388   0.00000  Uiso   1.00
Zn615  Zn    0.11562   0.16667   0.75000   0.00000  Uiso   1.00
Zn616  Zn    0.21771   0.16666   0.75000   0.00000  Uiso   1.00
F617   F     0.00756   0.19146   0.98948   0.00000  Uiso   1.00
F618   F     0.31286   0.10356   0.52012   0.00000  Uiso   1.00
F619   F     0.31084   0.11707   0.68951   0.00000  Uiso   1.00
F620   F     0.02253   0.21631   0.81043   0.00000  Uiso   1.00
C621   C     0.49999   0.24670   0.75004   0.00000  Uiso   1.00
C622   C     0.50002   0.08663   0.74994   0.00000  Uiso   1.00
C623   C     0.43843   0.16343   0.55431   0.00000  Uiso   1.00
C624   C     0.54499   0.12053   0.95599   0.00000  Uiso   1.00
C625   C     0.40465   0.16972   0.53376   0.00000  Uiso   1.00
C626   C     0.57861   0.11429   0.97686   0.00000  Uiso   1.00
C627   C     0.53645   0.31203   0.75953   0.00000  Uiso   1.00
C628   C     0.46359   0.02131   0.74040   0.00000  Uiso   1.00
C629   C     0.53649   0.02131   0.75945   0.00000  Uiso   1.00
C630   C     0.46355   0.31203   0.74047   0.00000  Uiso   1.00
C631   C     0.50005   0.04248   0.74991   0.00000  Uiso   1.00
C632   C     0.49998   0.29086   0.75003   0.00000  Uiso   1.00
C633   C     0.65473   0.14189   0.71981   0.00000  Uiso   1.00
C634   C     0.34528   0.19147   0.78016   0.00000  Uiso   1.00
C635   C     0.36932   0.14189   0.71986   0.00000  Uiso   1.00
C636   C     0.63070   0.19147   0.78010   0.00000  Uiso   1.00
C637   C     0.46943   0.16619   0.83802   0.00000  Uiso   1.00
C638   C     0.53052   0.16615   0.66196   0.00000  Uiso   1.00
C639   C     0.44994   0.16379   0.88873   0.00000  Uiso   1.00
C640   C     0.54877   0.15913   0.61180   0.00000  Uiso   1.00
C641   C     0.38646   0.17697   0.96409   0.00000  Uiso   1.00
C642   C     0.60338   0.12393   0.54268   0.00000  Uiso   1.00
C643   C     0.40202   0.17583   0.91570   0.00000  Uiso   1.00
C644   C     0.59289   0.13837   0.58796   0.00000  Uiso   1.00
C645   C     0.48119   0.15052   0.91012   0.00000  Uiso   1.00
C646   C     0.51630   0.16654   0.58989   0.00000  Uiso   1.00
C647   C     0.46653   0.15094   0.95854   0.00000  Uiso   1.00
C648   C     0.52362   0.14895   0.54665   0.00000  Uiso   1.00
C649   C     0.41877   0.16554   0.98571   0.00000  Uiso   1.00
C650   C     0.56890   0.12904   0.52179   0.00000  Uiso   1.00
C651   C     0.49966   0.14064   0.98013   0.00000  Uiso   1.00
C652   C     0.48717   0.15138   0.52745   0.00000  Uiso   1.00
H653   H     0.36793   0.17952   0.55547   0.00000  Uiso   1.00
H654   H     0.61266   0.09847   0.95731   0.00000  Uiso   1.00
H655   H     0.48455   0.18548   0.60799   0.00000  Uiso   1.00
H656   H     0.51807   0.14225   0.88804   0.00000  Uiso   1.00
H657   H     0.61819   0.13196   0.60487   0.00000  Uiso   1.00
H658   H     0.37739   0.18601   0.89935   0.00000  Uiso   1.00
H659   H     0.42503   0.16727   0.59166   0.00000  Uiso   1.00
H660   H     0.55480   0.10790   0.92137   0.00000  Uiso   1.00
H661   H     0.56462   0.29579   0.76728   0.00000  Uiso   1.00
H662   H     0.43543   0.03755   0.73264   0.00000  Uiso   1.00
H663   H     0.56468   0.03754   0.76716   0.00000  Uiso   1.00
H664   H     0.43535   0.29580   0.73278   0.00000  Uiso   1.00
H665   H     0.39709   0.12207   0.69576   0.00000  Uiso   1.00
H666   H     0.60294   0.21133   0.80415   0.00000  Uiso   1.00
N667   N     0.38093   0.16668   0.75001   0.00000  Uiso   1.00
N668   N     0.61907   0.16666   0.74999   0.00000  Uiso   1.00
O669   O     0.46179   0.22775   0.75000   0.00000  Uiso   1.00
O670   O     0.53821   0.10558   0.74999   0.00000  Uiso   1.00
O671   O     0.53823   0.22774   0.75000   0.00000  Uiso   1.00
O672   O     0.46177   0.10559   0.75000   0.00000  Uiso   1.00
O673   O     0.43994   0.16667   0.81612   0.00000  Uiso   1.00
O674   O     0.56006   0.16666   0.68387   0.00000  Uiso   1.00
O675   O     0.51639   0.16666   0.81612   0.00000  Uiso   1.00
O676   O     0.48361   0.16667   0.68388   0.00000  Uiso   1.00
Zn677  Zn    0.44896   0.16667   0.75000   0.00000  Uiso   1.00
Zn678  Zn    0.55104   0.16666   0.75000   0.00000  Uiso   1.00
F679   F     0.34090   0.19146   0.98948   0.00000  Uiso   1.00
F680   F     0.64619   0.10356   0.52012   0.00000  Uiso   1.00
F681   F     0.64417   0.11707   0.68951   0.00000  Uiso   1.00
F682   F     0.35586   0.21631   0.81043   0.00000  Uiso   1.00
C683   C     0.83332   0.24670   0.75004   0.00000  Uiso   1.00
C684   C     0.83335   0.08663   0.74994   0.00000  Uiso   1.00
C685   C     0.77177   0.16343   0.55431   0.00000  Uiso   1.00
C686   C     0.87832   0.12053   0.95599   0.00000  Uiso   1.00
C687   C     0.73799   0.16972   0.53376   0.00000  Uiso   1.00
C688   C     0.91194   0.11429   0.97686   0.00000  Uiso   1.00
C689   C     0.86978   0.31203   0.75953   0.00000  Uiso   1.00
C690   C     0.79692   0.02131   0.74040   0.00000  Uiso   1.00
C691   C     0.86982   0.02131   0.75945   0.00000  Uiso   1.00
C692   C     0.79688   0.31203   0.74047   0.00000  Uiso   1.00
C693   C     0.83338   0.04248   0.74991   0.00000  Uiso   1.00
C694   C     0.83331   0.29086   0.75003   0.00000  Uiso   1.00
C695   C     0.98806   0.14189   0.71981   0.00000  Uiso   1.00
C696   C     0.67862   0.19147   0.78016   0.00000  Uiso   1.00
C697   C     0.70265   0.14189   0.71986   0.00000  Uiso   1.00
C698   C     0.96403   0.19147   0.78010   0.00000  Uiso   1.00
C699   C     0.80276   0.16619   0.83802   0.00000  Uiso   1.00
C700   C     0.86385   0.16615   0.66196   0.00000  Uiso   1.00
C701   C     0.78327   0.16379   0.88873   0.00000  Uiso   1.00
C702   C     0.88210   0.15913   0.61180   0.00000  Uiso   1.00
C703   C     0.71979   0.17697   0.96409   0.00000  Uiso   1.00
C704   C     0.93672   0.12393   0.54268   0.00000  Uiso   1.00
C705   C     0.73535   0.17583   0.91570   0.00000  Uiso   1.00
C706   C     0.92623   0.13837   0.58796   0.00000  Uiso   1.00
C707   C     0.81453   0.15052   0.91012   0.00000  Uiso   1.00
C708   C     0.84963   0.16654   0.58989   0.00000  Uiso   1.00
C709   C     0.79986   0.15094   0.95854   0.00000  Uiso   1.00
C710   C     0.85695   0.14895   0.54665   0.00000  Uiso   1.00
C711   C     0.75210   0.16554   0.98571   0.00000  Uiso   1.00
C712   C     0.90223   0.12904   0.52179   0.00000  Uiso   1.00
C713   C     0.83299   0.14064   0.98013   0.00000  Uiso   1.00
C714   C     0.82051   0.15138   0.52745   0.00000  Uiso   1.00
H715   H     0.70127   0.17952   0.55547   0.00000  Uiso   1.00
H716   H     0.94600   0.09847   0.95731   0.00000  Uiso   1.00
H717   H     0.81789   0.18548   0.60799   0.00000  Uiso   1.00
H718   H     0.85140   0.14225   0.88804   0.00000  Uiso   1.00
H719   H     0.95152   0.13196   0.60487   0.00000  Uiso   1.00
H720   H     0.71073   0.18601   0.89935   0.00000  Uiso   1.00
H721   H     0.75837   0.16727   0.59166   0.00000  Uiso   1.00
H722   H     0.88813   0.10790   0.92137   0.00000  Uiso   1.00
H723   H     0.89795   0.29579   0.76728   0.00000  Uiso   1.00
H724   H     0.76876   0.03755   0.73264   0.00000  Uiso   1.00
H725   H     0.89802   0.03754   0.76716   0.00000  Uiso   1.00
H726   H     0.76868   0.29580   0.73278   0.00000  Uiso   1.00
H727   H     0.73043   0.12207   0.69576   0.00000  Uiso   1.00
H728   H     0.93628   0.21133   0.80415   0.00000  Uiso   1.00
N729   N     0.71426   0.16668   0.75001   0.00000  Uiso   1.00
N730   N     0.95241   0.16666   0.74999   0.00000  Uiso   1.00
O731   O     0.79512   0.22775   0.75000   0.00000  Uiso   1.00
O732   O     0.87154   0.10558   0.74999   0.00000  Uiso   1.00
O733   O     0.87157   0.22774   0.75000   0.00000  Uiso   1.00
O734   O     0.79510   0.10559   0.75000   0.00000  Uiso   1.00
O735   O     0.77328   0.16667   0.81612   0.00000  Uiso   1.00
O736   O     0.89339   0.16666   0.68387   0.00000  Uiso   1.00
O737   O     0.84972   0.16666   0.81612   0.00000  Uiso   1.00
O738   O     0.81695   0.16667   0.68388   0.00000  Uiso   1.00
Zn739  Zn    0.78229   0.16667   0.75000   0.00000  Uiso   1.00
Zn740  Zn    0.88438   0.16666   0.75000   0.00000  Uiso   1.00
F741   F     0.67423   0.19146   0.98948   0.00000  Uiso   1.00
F742   F     0.97953   0.10356   0.52012   0.00000  Uiso   1.00
F743   F     0.97750   0.11707   0.68951   0.00000  Uiso   1.00
F744   F     0.68920   0.21631   0.81043   0.00000  Uiso   1.00
C745   C     0.16666   0.58004   0.75004   0.00000  Uiso   1.00
C746   C     0.16669   0.41996   0.74994   0.00000  Uiso   1.00
C747   C     0.10510   0.49676   0.55431   0.00000  Uiso   1.00
C748   C     0.21166   0.45386   0.95599   0.00000  Uiso   1.00
C749   C     0.07132   0.50306   0.53376   0.00000  Uiso   1.00
C750   C     0.24528   0.44762   0.97686   0.00000  Uiso   1.00
C751   C     0.20312   0.64536   0.75953   0.00000  Uiso   1.00
C752   C     0.13026   0.35465   0.74040   0.00000  Uiso   1.00
C753   C     0.20316   0.35464   0.75945   0.00000  Uiso   1.00
C754   C     0.13021   0.64536   0.74047   0.00000  Uiso   1.00
C755   C     0.16672   0.37582   0.74991   0.00000  Uiso   1.00
C756   C     0.16665   0.62419   0.75003   0.00000  Uiso   1.00
C757   C     0.32140   0.47522   0.71981   0.00000  Uiso   1.00
C758   C     0.01195   0.52480   0.78016   0.00000  Uiso   1.00
C759   C     0.03599   0.47523   0.71986   0.00000  Uiso   1.00
C760   C     0.29737   0.52481   0.78010   0.00000  Uiso   1.00
C761   C     0.13610   0.49953   0.83802   0.00000  Uiso   1.00
C762   C     0.19718   0.49948   0.66196   0.00000  Uiso   1.00
C763   C     0.11661   0.49712   0.88873   0.00000  Uiso   1.00
C764   C     0.21543   0.49246   0.61180   0.00000  Uiso   1.00
C765   C     0.05313   0.51031   0.96409   0.00000  Uiso   1.00
C766   C     0.27005   0.45726   0.54268   0.00000  Uiso   1.00
C767   C     0.06868   0.50916   0.91570   0.00000  Uiso   1.00
C768   C     0.25956   0.47170   0.58796   0.00000  Uiso   1.00
C769   C     0.14786   0.48385   0.91012   0.00000  Uiso   1.00
C770   C     0.18297   0.49987   0.58989   0.00000  Uiso   1.00
C771   C     0.13319   0.48427   0.95854   0.00000  Uiso   1.00
C772   C     0.19028   0.48228   0.54665   0.00000  Uiso   1.00
C773   C     0.08544   0.49887   0.98571   0.00000  Uiso   1.00
C774   C     0.23556   0.46237   0.52179   0.00000  Uiso   1.00
C775   C     0.16633   0.47398   0.98013   0.00000  Uiso   1.00
C776   C     0.15384   0.48471   0.52745   0.00000  Uiso   1.00
H777   H     0.03460   0.51285   0.55547   0.00000  Uiso   1.00
H778   H     0.27933   0.43180   0.95731   0.00000  Uiso   1.00
H779   H     0.15122   0.51881   0.60799   0.00000  Uiso   1.00
H780   H     0.18474   0.47558   0.88804   0.00000  Uiso   1.00
H781   H     0.28486   0.46530   0.60487   0.00000  Uiso   1.00
H782   H     0.04406   0.51935   0.89935   0.00000  Uiso   1.00
H783   H     0.09170   0.50060   0.59166   0.00000  Uiso   1.00
H784   H     0.22147   0.44123   0.92137   0.00000  Uiso   1.00
H785   H     0.23128   0.62913   0.76728   0.00000  Uiso   1.00
H786   H     0.10209   0.37088   0.73264   0.00000  Uiso   1.00
H787   H     0.23135   0.37087   0.76716   0.00000  Uiso   1.00
H788   H     0.10202   0.62913   0.73278   0.00000  Uiso   1.00
H789   H     0.06376   0.45541   0.69576   0.00000  Uiso   1.00
H790   H     0.26961   0.54467   0.80415   0.00000  Uiso   1.00
N791   N     0.04759   0.50001   0.75001   0.00000  Uiso   1.00
N792   N     0.28574   0.49999   0.74999   0.00000  Uiso   1.00
O793   O     0.12846   0.56108   0.75000   0.00000  Uiso   1.00
O794   O     0.20488   0.43892   0.74999   0.00000  Uiso   1.00
O795   O     0.20490   0.56107   0.75000   0.00000  Uiso   1.00
O796   O     0.12843   0.43893   0.75000   0.00000  Uiso   1.00
O797   O     0.10661   0.50001   0.81612   0.00000  Uiso   1.00
O798   O     0.22672   0.49999   0.68387   0.00000  Uiso   1.00
O799   O     0.18305   0.50000   0.81612   0.00000  Uiso   1.00
O800   O     0.15028   0.50000   0.68388   0.00000  Uiso   1.00
Zn801  Zn    0.11562   0.50001   0.75000   0.00000  Uiso   1.00
Zn802  Zn    0.21771   0.49999   0.75000   0.00000  Uiso   1.00
F803   F     0.00756   0.52479   0.98948   0.00000  Uiso   1.00
F804   F     0.31286   0.43690   0.52012   0.00000  Uiso   1.00
F805   F     0.31084   0.45040   0.68951   0.00000  Uiso   1.00
F806   F     0.02253   0.54965   0.81043   0.00000  Uiso   1.00
C807   C     0.49999   0.58004   0.75004   0.00000  Uiso   1.00
C808   C     0.50002   0.41996   0.74994   0.00000  Uiso   1.00
C809   C     0.43843   0.49676   0.55431   0.00000  Uiso   1.00
C810   C     0.54499   0.45386   0.95599   0.00000  Uiso   1.00
C811   C     0.40465   0.50306   0.53376   0.00000  Uiso   1.00
C812   C     0.57861   0.44762   0.97686   0.00000  Uiso   1.00
C813   C     0.53645   0.64536   0.75953   0.00000  Uiso   1.00
C814   C     0.46359   0.35465   0.74040   0.00000  Uiso   1.00
C815   C     0.53649   0.35464   0.75945   0.00000  Uiso   1.00
C816   C     0.46355   0.64536   0.74047   0.00000  Uiso   1.00
C817   C     0.50005   0.37582   0.74991   0.00000  Uiso   1.00
C818   C     0.49998   0.62419   0.75003   0.00000  Uiso   1.00
C819   C     0.65473   0.47522   0.71981   0.00000  Uiso   1.00
C820   C     0.34528   0.52480   0.78016   0.00000  Uiso   1.00
C821   C     0.36932   0.47523   0.71986   0.00000  Uiso   1.00
C822   C     0.63070   0.52481   0.78010   0.00000  Uiso   1.00
C823   C     0.46943   0.49953   0.83802   0.00000  Uiso   1.00
C824   C     0.53052   0.49948   0.66196   0.00000  Uiso   1.00
C825   C     0.44994   0.49712   0.88873   0.00000  Uiso   1.00
C826   C     0.54877   0.49246   0.61180   0.00000  Uiso   1.00
C827   C     0.38646   0.51031   0.96409   0.00000  Uiso   1.00
C828   C     0.60338   0.45726   0.54268   0.00000  Uiso   1.00
C829   C     0.40202   0.50916   0.91570   0.00000  Uiso   1.00
C830   C     0.59289   0.47170   0.58796   0.00000  Uiso   1.00
C831   C     0.48119   0.48385   0.91012   0.00000  Uiso   1.00
C832   C     0.51630   0.49987   0.58989   0.00000  Uiso   1.00
C833   C     0.46653   0.48427   0.95854   0.00000  Uiso   1.00
C834   C     0.52362   0.48228   0.54665   0.00000  Uiso   1.00
C835   C     0.41877   0.49887   0.98571   0.00000  Uiso   1.00
C836   C     0.56890   0.46237   0.52179   0.00000  Uiso   1.00
C837   C     0.49966   0.47398   0.98013   0.00000  Uiso   1.00
C838   C     0.48717   0.48471   0.52745   0.00000  Uiso   1.00
H839   H     0.36793   0.51285   0.55547   0.00000  Uiso   1.00
H840   H     0.61266   0.43180   0.95731   0.00000  Uiso   1.00
H841   H     0.48455   0.51881   0.60799   0.00000  Uiso   1.00
H842   H     0.51807   0.47558   0.88804   0.00000  Uiso   1.00
H843   H     0.61819   0.46530   0.60487   0.00000  Uiso   1.00
H844   H     0.37739   0.51935   0.89935   0.00000  Uiso   1.00
H845   H     0.42503   0.50060   0.59166   0.00000  Uiso   1.00
H846   H     0.55480   0.44123   0.92137   0.00000  Uiso   1.00
H847   H     0.56462   0.62913   0.76728   0.00000  Uiso   1.00
H848   H     0.43543   0.37088   0.73264   0.00000  Uiso   1.00
H849   H     0.56468   0.37087   0.76716   0.00000  Uiso   1.00
H850   H     0.43535   0.62913   0.73278   0.00000  Uiso   1.00
H851   H     0.39709   0.45541   0.69576   0.00000  Uiso   1.00
H852   H     0.60294   0.54467   0.80415   0.00000  Uiso   1.00
N853   N     0.38093   0.50001   0.75001   0.00000  Uiso   1.00
N854   N     0.61907   0.49999   0.74999   0.00000  Uiso   1.00
O855   O     0.46179   0.56108   0.75000   0.00000  Uiso   1.00
O856   O     0.53821   0.43892   0.74999   0.00000  Uiso   1.00
O857   O     0.53823   0.56107   0.75000   0.00000  Uiso   1.00
O858   O     0.46177   0.43893   0.75000   0.00000  Uiso   1.00
O859   O     0.43994   0.50001   0.81612   0.00000  Uiso   1.00
O860   O     0.56006   0.49999   0.68387   0.00000  Uiso   1.00
O861   O     0.51639   0.50000   0.81612   0.00000  Uiso   1.00
O862   O     0.48361   0.50000   0.68388   0.00000  Uiso   1.00
Zn863  Zn    0.44896   0.50001   0.75000   0.00000  Uiso   1.00
Zn864  Zn    0.55104   0.49999   0.75000   0.00000  Uiso   1.00
F865   F     0.34090   0.52479   0.98948   0.00000  Uiso   1.00
F866   F     0.64619   0.43690   0.52012   0.00000  Uiso   1.00
F867   F     0.64417   0.45040   0.68951   0.00000  Uiso   1.00
F868   F     0.35586   0.54965   0.81043   0.00000  Uiso   1.00
C869   C     0.83332   0.58004   0.75004   0.00000  Uiso   1.00
C870   C     0.83335   0.41996   0.74994   0.00000  Uiso   1.00
C871   C     0.77177   0.49676   0.55431   0.00000  Uiso   1.00
C872   C     0.87832   0.45386   0.95599   0.00000  Uiso   1.00
C873   C     0.73799   0.50306   0.53376   0.00000  Uiso   1.00
C874   C     0.91194   0.44762   0.97686   0.00000  Uiso   1.00
C875   C     0.86978   0.64536   0.75953   0.00000  Uiso   1.00
C876   C     0.79692   0.35465   0.74040   0.00000  Uiso   1.00
C877   C     0.86982   0.35464   0.75945   0.00000  Uiso   1.00
C878   C     0.79688   0.64536   0.74047   0.00000  Uiso   1.00
C879   C     0.83338   0.37582   0.74991   0.00000  Uiso   1.00
C880   C     0.83331   0.62419   0.75003   0.00000  Uiso   1.00
C881   C     0.98806   0.47522   0.71981   0.00000  Uiso   1.00
C882   C     0.67862   0.52480   0.78016   0.00000  Uiso   1.00
C883   C     0.70265   0.47523   0.71986   0.00000  Uiso   1.00
C884   C     0.96403   0.52481   0.78010   0.00000  Uiso   1.00
C885   C     0.80276   0.49953   0.83802   0.00000  Uiso   1.00
C886   C     0.86385   0.49948   0.66196   0.00000  Uiso   1.00
C887   C     0.78327   0.49712   0.88873   0.00000  Uiso   1.00
C888   C     0.88210   0.49246   0.61180   0.00000  Uiso   1.00
C889   C     0.71979   0.51031   0.96409   0.00000  Uiso   1.00
C890   C     0.93672   0.45726   0.54268   0.00000  Uiso   1.00
C891   C     0.73535   0.50916   0.91570   0.00000  Uiso   1.00
C892   C     0.92623   0.47170   0.58796   0.00000  Uiso   1.00
C893   C     0.81453   0.48385   0.91012   0.00000  Uiso   1.00
C894   C     0.84963   0.49987   0.58989   0.00000  Uiso   1.00
C895   C     0.79986   0.48427   0.95854   0.00000  Uiso   1.00
C896   C     0.85695   0.48228   0.54665   0.00000  Uiso   1.00
C897   C     0.75210   0.49887   0.98571   0.00000  Uiso   1.00
C898   C     0.90223   0.46237   0.52179   0.00000  Uiso   1.00
C899   C     0.83299   0.47398   0.98013   0.00000  Uiso   1.00
C900   C     0.82051   0.48471   0.52745   0.00000  Uiso   1.00
H901   H     0.70127   0.51285   0.55547   0.00000  Uiso   1.00
H902   H     0.94600   0.43180   0.95731   0.00000  Uiso   1.00
H903   H     0.81789   0.51881   0.60799   0.00000  Uiso   1.00
H904   H     0.85140   0.47558   0.88804   0.00000  Uiso   1.00
H905   H     0.95152   0.46530   0.60487   0.00000  Uiso   1.00
H906   H     0.71073   0.51935   0.89935   0.00000  Uiso   1.00
H907   H     0.75837   0.50060   0.59166   0.00000  Uiso   1.00
H908   H     0.88813   0.44123   0.92137   0.00000  Uiso   1.00
H909   H     0.89795   0.62913   0.76728   0.00000  Uiso   1.00
H910   H     0.76876   0.37088   0.73264   0.00000  Uiso   1.00
H911   H     0.89802   0.37087   0.76716   0.00000  Uiso   1.00
H912   H     0.76868   0.62913   0.73278   0.00000  Uiso   1.00
H913   H     0.73043   0.45541   0.69576   0.00000  Uiso   1.00
H914   H     0.93628   0.54467   0.80415   0.00000  Uiso   1.00
N915   N     0.71426   0.50001   0.75001   0.00000  Uiso   1.00
N916   N     0.95241   0.49999   0.74999   0.00000  Uiso   1.00
O917   O     0.79512   0.56108   0.75000   0.00000  Uiso   1.00
O918   O     0.87154   0.43892   0.74999   0.00000  Uiso   1.00
O919   O     0.87157   0.56107   0.75000   0.00000  Uiso   1.00
O920   O     0.79510   0.43893   0.75000   0.00000  Uiso   1.00
O921   O     0.77328   0.50001   0.81612   0.00000  Uiso   1.00
O922   O     0.89339   0.49999   0.68387   0.00000  Uiso   1.00
O923   O     0.84972   0.50000   0.81612   0.00000  Uiso   1.00
O924   O     0.81695   0.50000   0.68388   0.00000  Uiso   1.00
Zn925  Zn    0.78229   0.50001   0.75000   0.00000  Uiso   1.00
Zn926  Zn    0.88438   0.49999   0.75000   0.00000  Uiso   1.00
F927   F     0.67423   0.52479   0.98948   0.00000  Uiso   1.00
F928   F     0.97953   0.43690   0.52012   0.00000  Uiso   1.00
F929   F     0.97750   0.45040   0.68951   0.00000  Uiso   1.00
F930   F     0.68920   0.54965   0.81043   0.00000  Uiso   1.00
C931   C     0.16666   0.91337   0.75004   0.00000  Uiso   1.00
C932   C     0.16669   0.75330   0.74994   0.00000  Uiso   1.00
C933   C     0.10510   0.83010   0.55431   0.00000  Uiso   1.00
C934   C     0.21166   0.78719   0.95599   0.00000  Uiso   1.00
C935   C     0.07132   0.83639   0.53376   0.00000  Uiso   1.00
C936   C     0.24528   0.78096   0.97686   0.00000  Uiso   1.00
C937   C     0.20312   0.97869   0.75953   0.00000  Uiso   1.00
C938   C     0.13026   0.68798   0.74040   0.00000  Uiso   1.00
C939   C     0.20316   0.68797   0.75945   0.00000  Uiso   1.00
C940   C     0.13021   0.97870   0.74047   0.00000  Uiso   1.00
C941   C     0.16672   0.70915   0.74991   0.00000  Uiso   1.00
C942   C     0.16665   0.95752   0.75003   0.00000  Uiso   1.00
C943   C     0.32140   0.80855   0.71981   0.00000  Uiso   1.00
C944   C     0.01195   0.85814   0.78016   0.00000  Uiso   1.00
C945   C     0.03599   0.80856   0.71986   0.00000  Uiso   1.00
C946   C     0.29737   0.85814   0.78010   0.00000  Uiso   1.00
C947   C     0.13610   0.83286   0.83802   0.00000  Uiso   1.00
C948   C     0.19718   0.83282   0.66196   0.00000  Uiso   1.00
C949   C     0.11661   0.83045   0.88873   0.00000  Uiso   1.00
C950   C     0.21543   0.82580   0.61180   0.00000  Uiso   1.00
C951   C     0.05313   0.84364   0.96409   0.00000  Uiso   1.00
C952   C     0.27005   0.79059   0.54268   0.00000  Uiso   1.00
C953   C     0.06868   0.84250   0.91570   0.00000  Uiso   1.00
C954   C     0.25956   0.80504   0.58796   0.00000  Uiso   1.00
C955   C     0.14786   0.81718   0.91012   0.00000  Uiso   1.00
C956   C     0.18297   0.83320   0.58989   0.00000  Uiso   1.00
C957   C     0.13319   0.81760   0.95854   0.00000  Uiso   1.00
C958   C     0.19028   0.81561   0.54665   0.00000  Uiso   1.00
C959   C     0.08544   0.83220   0.98571   0.00000  Uiso   1.00
C960   C     0.23556   0.79571   0.52179   0.00000  Uiso   1.00
C961   C     0.16633   0.80731   0.98013   0.00000  Uiso   1.00
C962   C     0.15384   0.81804   0.52745   0.00000  Uiso   1.00
H963   H     0.03460   0.84619   0.55547   0.00000  Uiso   1.00
H964   H     0.27933   0.76514   0.95731   0.00000  Uiso   1.00
H965   H     0.15122   0.85214   0.60799   0.00000  Uiso   1.00
H966   H     0.18474   0.80892   0.88804   0.00000  Uiso   1.00
H967   H     0.28486   0.79863   0.60487   0.00000  Uiso   1.00
H968   H     0.04406   0.85268   0.89935   0.00000  Uiso   1.00
H969   H     0.09170   0.83393   0.59166   0.00000  Uiso   1.00
H970   H     0.22147   0.77457   0.92137   0.00000  Uiso   1.00
H971   H     0.23128   0.96246   0.76728   0.00000  Uiso   1.00
H972   H     0.10209   0.70421   0.73264   0.00000  Uiso   1.00
H973   H     0.23135   0.70421   0.76716   0.00000  Uiso   1.00
H974   H     0.10202   0.96247   0.73278   0.00000  Uiso   1.00
H975   H     0.06376   0.78874   0.69576   0.00000  Uiso   1.00
H976   H     0.26961   0.87800   0.80415   0.00000  Uiso   1.00
N977   N     0.04759   0.83334   0.75001   0.00000  Uiso   1.00
N978   N     0.28574   0.83332   0.74999   0.00000  Uiso   1.00
O979   O     0.12846   0.89442   0.75000   0.00000  Uiso   1.00
O980   O     0.20488   0.77225   0.74999   0.00000  Uiso   1.00
O981   O     0.20490   0.89441   0.75000   0.00000  Uiso   1.00
O982   O     0.12843   0.77226   0.75000   0.00000  Uiso   1.00
O983   O     0.10661   0.83334   0.81612   0.00000  Uiso   1.00
O984   O     0.22672   0.83333   0.68387   0.00000  Uiso   1.00
O985   O     0.18305   0.83333   0.81612   0.00000  Uiso   1.00
O986   O     0.15028   0.83334   0.68388   0.00000  Uiso   1.00
Zn987  Zn    0.11562   0.83334   0.75000   0.00000  Uiso   1.00
Zn988  Zn    0.21771   0.83333   0.75000   0.00000  Uiso   1.00
F989   F     0.00756   0.85813   0.98948   0.00000  Uiso   1.00
F990   F     0.31286   0.77023   0.52012   0.00000  Uiso   1.00
F991   F     0.31084   0.78374   0.68951   0.00000  Uiso   1.00
F992   F     0.02253   0.88298   0.81043   0.00000  Uiso   1.00
C993   C     0.49999   0.91337   0.75004   0.00000  Uiso   1.00
C994   C     0.50002   0.75330   0.74994   0.00000  Uiso   1.00
C995   C     0.43843   0.83010   0.55431   0.00000  Uiso   1.00
C996   C     0.54499   0.78719   0.95599   0.00000  Uiso   1.00
C997   C     0.40465   0.83639   0.53376   0.00000  Uiso   1.00
C998   C     0.57861   0.78096   0.97686   0.00000  Uiso   1.00
C999   C     0.53645   0.97869   0.75953   0.00000  Uiso   1.00
C1000  C     0.46359   0.68798   0.74040   0.00000  Uiso   1.00
C1001  C     0.53649   0.68797   0.75945   0.00000  Uiso   1.00
C1002  C     0.46355   0.97870   0.74047   0.00000  Uiso   1.00
C1003  C     0.50005   0.70915   0.74991   0.00000  Uiso   1.00
C1004  C     0.49998   0.95752   0.75003   0.00000  Uiso   1.00
C1005  C     0.65473   0.80855   0.71981   0.00000  Uiso   1.00
C1006  C     0.34528   0.85814   0.78016   0.00000  Uiso   1.00
C1007  C     0.36932   0.80856   0.71986   0.00000  Uiso   1.00
C1008  C     0.63070   0.85814   0.78010   0.00000  Uiso   1.00
C1009  C     0.46943   0.83286   0.83802   0.00000  Uiso   1.00
C1010  C     0.53052   0.83282   0.66196   0.00000  Uiso   1.00
C1011  C     0.44994   0.83045   0.88873   0.00000  Uiso   1.00
C1012  C     0.54877   0.82580   0.61180   0.00000  Uiso   1.00
C1013  C     0.38646   0.84364   0.96409   0.00000  Uiso   1.00
C1014  C     0.60338   0.79059   0.54268   0.00000  Uiso   1.00
C1015  C     0.40202   0.84250   0.91570   0.00000  Uiso   1.00
C1016  C     0.59289   0.80504   0.58796   0.00000  Uiso   1.00
C1017  C     0.48119   0.81718   0.91012   0.00000  Uiso   1.00
C1018  C     0.51630   0.83320   0.58989   0.00000  Uiso   1.00
C1019  C     0.46653   0.81760   0.95854   0.00000  Uiso   1.00
C1020  C     0.52362   0.81561   0.54665   0.00000  Uiso   1.00
C1021  C     0.41877   0.83220   0.98571   0.00000  Uiso   1.00
C1022  C     0.56890   0.79571   0.52179   0.00000  Uiso   1.00
C1023  C     0.49966   0.80731   0.98013   0.00000  Uiso   1.00
C1024  C     0.48717   0.81804   0.52745   0.00000  Uiso   1.00
H1025  H     0.36793   0.84619   0.55547   0.00000  Uiso   1.00
H1026  H     0.61266   0.76514   0.95731   0.00000  Uiso   1.00
H1027  H     0.48455   0.85214   0.60799   0.00000  Uiso   1.00
H1028  H     0.51807   0.80892   0.88804   0.00000  Uiso   1.00
H1029  H     0.61819   0.79863   0.60487   0.00000  Uiso   1.00
H1030  H     0.37739   0.85268   0.89935   0.00000  Uiso   1.00
H1031  H     0.42503   0.83393   0.59166   0.00000  Uiso   1.00
H1032  H     0.55480   0.77457   0.92137   0.00000  Uiso   1.00
H1033  H     0.56462   0.96246   0.76728   0.00000  Uiso   1.00
H1034  H     0.43543   0.70421   0.73264   0.00000  Uiso   1.00
H1035  H     0.56468   0.70421   0.76716   0.00000  Uiso   1.00
H1036  H     0.43535   0.96247   0.73278   0.00000  Uiso   1.00
H1037  H     0.39709   0.78874   0.69576   0.00000  Uiso   1.00
H1038  H     0.60294   0.87800   0.80415   0.00000  Uiso   1.00
N1039  N     0.38093   0.83334   0.75001   0.00000  Uiso   1.00
N1040  N     0.61907   0.83332   0.74999   0.00000  Uiso   1.00
O1041  O     0.46179   0.89442   0.75000   0.00000  Uiso   1.00
O1042  O     0.53821   0.77225   0.74999   0.00000  Uiso   1.00
O1043  O     0.53823   0.89441   0.75000   0.00000  Uiso   1.00
O1044  O     0.46177   0.77226   0.75000   0.00000  Uiso   1.00
O1045  O     0.43994   0.83334   0.81612   0.00000  Uiso   1.00
O1046  O     0.56006   0.83333   0.68387   0.00000  Uiso   1.00
O1047  O     0.51639   0.83333   0.81612   0.00000  Uiso   1.00
O1048  O     0.48361   0.83334   0.68388   0.00000  Uiso   1.00
Zn1049 Zn    0.44896   0.83334   0.75000   0.00000  Uiso   1.00
Zn1050 Zn    0.55104   0.83333   0.75000   0.00000  Uiso   1.00
F1051  F     0.34090   0.85813   0.98948   0.00000  Uiso   1.00
F1052  F     0.64619   0.77023   0.52012   0.00000  Uiso   1.00
F1053  F     0.64417   0.78374   0.68951   0.00000  Uiso   1.00
F1054  F     0.35586   0.88298   0.81043   0.00000  Uiso   1.00
C1055  C     0.83332   0.91337   0.75004   0.00000  Uiso   1.00
C1056  C     0.83335   0.75330   0.74994   0.00000  Uiso   1.00
C1057  C     0.77177   0.83010   0.55431   0.00000  Uiso   1.00
C1058  C     0.87832   0.78719   0.95599   0.00000  Uiso   1.00
C1059  C     0.73799   0.83639   0.53376   0.00000  Uiso   1.00
C1060  C     0.91194   0.78096   0.97686   0.00000  Uiso   1.00
C1061  C     0.86978   0.97869   0.75953   0.00000  Uiso   1.00
C1062  C     0.79692   0.68798   0.74040   0.00000  Uiso   1.00
C1063  C     0.86982   0.68797   0.75945   0.00000  Uiso   1.00
C1064  C     0.79688   0.97870   0.74047   0.00000  Uiso   1.00
C1065  C     0.83338   0.70915   0.74991   0.00000  Uiso   1.00
C1066  C     0.83331   0.95752   0.75003   0.00000  Uiso   1.00
C1067  C     0.98806   0.80855   0.71981   0.00000  Uiso   1.00
C1068  C     0.67862   0.85814   0.78016   0.00000  Uiso   1.00
C1069  C     0.70265   0.80856   0.71986   0.00000  Uiso   1.00
C1070  C     0.96403   0.85814   0.78010   0.00000  Uiso   1.00
C1071  C     0.80276   0.83286   0.83802   0.00000  Uiso   1.00
C1072  C     0.86385   0.83282   0.66196   0.00000  Uiso   1.00
C1073  C     0.78327   0.83045   0.88873   0.00000  Uiso   1.00
C1074  C     0.88210   0.82580   0.61180   0.00000  Uiso   1.00
C1075  C     0.71979   0.84364   0.96409   0.00000  Uiso   1.00
C1076  C     0.93672   0.79059   0.54268   0.00000  Uiso   1.00
C1077  C     0.73535   0.84250   0.91570   0.00000  Uiso   1.00
C1078  C     0.92623   0.80504   0.58796   0.00000  Uiso   1.00
C1079  C     0.81453   0.81718   0.91012   0.00000  Uiso   1.00
C1080  C     0.84963   0.83320   0.58989   0.00000  Uiso   1.00
C1081  C     0.79986   0.81760   0.95854   0.00000  Uiso   1.00
C1082  C     0.85695   0.81561   0.54665   0.00000  Uiso   1.00
C1083  C     0.75210   0.83220   0.98571   0.00000  Uiso   1.00
C1084  C     0.90223   0.79571   0.52179   0.00000  Uiso   1.00
C1085  C     0.83299   0.80731   0.98013   0.00000  Uiso   1.00
C1086  C     0.82051   0.81804   0.52745   0.00000  Uiso   1.00
H1087  H     0.70127   0.84619   0.55547   0.00000  Uiso   1.00
H1088  H     0.94600   0.76514   0.95731   0.00000  Uiso   1.00
H1089  H     0.81789   0.85214   0.60799   0.00000  Uiso   1.00
H1090  H     0.85140   0.80892   0.88804   0.00000  Uiso   1.00
H1091  H     0.95152   0.79863   0.60487   0.00000  Uiso   1.00
H1092  H     0.71073   0.85268   0.89935   0.00000  Uiso   1.00
H1093  H     0.75837   0.83393   0.59166   0.00000  Uiso   1.00
H1094  H     0.88813   0.77457   0.92137   0.00000  Uiso   1.00
H1095  H     0.89795   0.96246   0.76728   0.00000  Uiso   1.00
H1096  H     0.76876   0.70421   0.73264   0.00000  Uiso   1.00
H1097  H     0.89802   0.70421   0.76716   0.00000  Uiso   1.00
H1098  H     0.76868   0.96247   0.73278   0.00000  Uiso   1.00
H1099  H     0.73043   0.78874   0.69576   0.00000  Uiso   1.00
H1100  H     0.93628   0.87800   0.80415   0.00000  Uiso   1.00
N1101  N     0.71426   0.83334   0.75001   0.00000  Uiso   1.00
N1102  N     0.95241   0.83332   0.74999   0.00000  Uiso   1.00
O1103  O     0.79512   0.89442   0.75000   0.00000  Uiso   1.00
O1104  O     0.87154   0.77225   0.74999   0.00000  Uiso   1.00
O1105  O     0.87157   0.89441   0.75000   0.00000  Uiso   1.00
O1106  O     0.79510   0.77226   0.75000   0.00000  Uiso   1.00
O1107  O     0.77328   0.83334   0.81612   0.00000  Uiso   1.00
O1108  O     0.89339   0.83333   0.68387   0.00000  Uiso   1.00
O1109  O     0.84972   0.83333   0.81612   0.00000  Uiso   1.00
O1110  O     0.81695   0.83334   0.68388   0.00000  Uiso   1.00
Zn1111 Zn    0.78229   0.83334   0.75000   0.00000  Uiso   1.00
Zn1112 Zn    0.88438   0.83333   0.75000   0.00000  Uiso   1.00
F1113  F     0.67423   0.85813   0.98948   0.00000  Uiso   1.00
F1114  F     0.97953   0.77023   0.52012   0.00000  Uiso   1.00
F1115  F     0.97750   0.78374   0.68951   0.00000  Uiso   1.00
F1116  F     0.68920   0.88298   0.81043   0.00000  Uiso   1.00
loop_
_geom_bond_atom_site_label_1
_geom_bond_atom_site_label_2
_geom_bond_distance
_geom_bond_site_symmetry_2
_ccdc_geom_bond_type
C1     O51     1.283   .     A
C1     C12     1.420   .     S
C1     O49     1.283   .     A
C2     O52     1.283   .     A
C2     C11     1.419   .     S
C2     O50     1.283   .     A
C3     H39     1.079   .     S
C3     C32     1.417   .     A
C3     C5      1.388   .     A
C4     C6      1.390   .     A
C4     C31     1.418   .     A
C4     H40     1.078   .     S
C5     H33     1.084   .     S
C5     C587    1.393   1_554 S
C6     H34     1.084   .     S
C6     C588    1.394   .     S
C7     C12     1.397   .     A
C7     H41     1.084   .     S
C7     C195    1.370   .     S
C8     C11     1.397   .     A
C8     H42     1.084   .     S
C8     C382    1.370   1_545 S
C9     C11     1.397   .     A
C9     H43     1.084   .     S
C9     C379    1.370   1_545 S
C10    C12     1.397   .     A
C10    H44     1.084   .     S
C10    C194    1.370   .     S
C13    N48     1.367   .     A
C13    F61     1.355   .     S
C13    C77     1.417   .     S
C14    N47     1.367   .     A
C14    F62     1.355   .     S
C14    C140    1.417   1_455 S
C15    N47     1.366   .     A
C15    H45     1.082   .     S
C15    C137    1.417   1_455 S
C16    N48     1.366   .     A
C16    H46     1.082   .     S
C16    C76     1.417   .     S
C17    O55     1.293   .     A
C17    O53     1.292   .     A
C17    C19     1.457   .     S
C18    O56     1.292   .     A
C18    C20     1.457   .     S
C18    O54     1.294   .     A
C19    C23     1.398   .     A
C19    C25     1.392   .     A
C20    C26     1.390   .     A
C20    C24     1.399   .     A
C21    C29     1.407   .     A
C21    F59     1.358   .     S
C21    C23     1.393   .     A
C22    F60     1.358   .     S
C22    C24     1.396   .     A
C22    C30     1.409   .     A
C23    H38     1.083   .     S
C24    H37     1.083   .     S
C25    H36     1.077   .     S
C25    C27     1.396   .     A
C26    C28     1.393   .     A
C26    H35     1.079   .     S
C27    C29     1.421   .     A
C27    C31     1.419   .     A
C28    C30     1.417   .     A
C28    C32     1.416   .     A
C29    C563    1.393   .     S
C30    C564    1.394   1_554 S
C31    C590    1.413   .     S
C32    C589    1.413   1_554 S
N47    Zn57    2.010   .     S
N48    Zn58    2.010   .     S
O49    Zn57    2.000   .     S
O50    Zn58    2.000   .     S
O51    Zn58    2.000   .     S
O52    Zn57    2.000   .     S
O53    Zn57    1.965   .     S
O54    Zn58    1.965   .     S
O55    Zn58    1.913   .     S
O56    Zn57    1.913   .     S
C63    O113    1.283   .     A
C63    C74     1.420   .     S
C63    O111    1.283   .     A
C64    O114    1.283   .     A
C64    C73     1.419   .     S
C64    O112    1.283   .     A
C65    H101    1.079   .     S
C65    C94     1.417   .     A
C65    C67     1.388   .     A
C66    C68     1.390   .     A
C66    C93     1.418   .     A
C66    H102    1.078   .     S
C67    H95     1.084   .     S
C67    C649    1.393   1_554 S
C68    H96     1.084   .     S
C68    C650    1.394   .     S
C69    C74     1.397   .     A
C69    H103    1.084   .     S
C69    C257    1.370   .     S
C70    C73     1.397   .     A
C70    H104    1.084   .     S
C70    C444    1.370   1_545 S
C71    C73     1.397   .     A
C71    H105    1.084   .     S
C71    C441    1.370   1_545 S
C72    C74     1.397   .     A
C72    H106    1.084   .     S
C72    C256    1.370   .     S
C75    N110    1.367   .     A
C75    F123    1.355   .     S
C75    C139    1.417   .     S
C76    N109    1.367   .     A
C76    F124    1.355   .     S
C77    N109    1.366   .     A
C77    H107    1.082   .     S
C78    N110    1.366   .     A
C78    H108    1.082   .     S
C78    C138    1.417   .     S
C79    O117    1.293   .     A
C79    O115    1.292   .     A
C79    C81     1.457   .     S
C80    O118    1.292   .     A
C80    C82     1.457   .     S
C80    O116    1.294   .     A
C81    C85     1.398   .     A
C81    C87     1.392   .     A
C82    C88     1.390   .     A
C82    C86     1.399   .     A
C83    C91     1.407   .     A
C83    F121    1.358   .     S
C83    C85     1.393   .     A
C84    F122    1.358   .     S
C84    C86     1.396   .     A
C84    C92     1.409   .     A
C85    H100    1.083   .     S
C86    H99     1.083   .     S
C87    H98     1.077   .     S
C87    C89     1.396   .     A
C88    C90     1.393   .     A
C88    H97     1.079   .     S
C89    C91     1.421   .     A
C89    C93     1.419   .     A
C90    C92     1.417   .     A
C90    C94     1.416   .     A
C91    C625    1.393   .     S
C92    C626    1.394   1_554 S
C93    C652    1.413   .     S
C94    C651    1.413   1_554 S
N109   Zn119   2.010   .     S
N110   Zn120   2.010   .     S
O111   Zn119   2.000   .     S
O112   Zn120   2.000   .     S
O113   Zn120   2.000   .     S
O114   Zn119   2.000   .     S
O115   Zn119   1.965   .     S
O116   Zn120   1.965   .     S
O117   Zn120   1.913   .     S
O118   Zn119   1.913   .     S
C125   O175    1.283   .     A
C125   C136    1.420   .     S
C125   O173    1.283   .     A
C126   O176    1.283   .     A
C126   C135    1.419   .     S
C126   O174    1.283   .     A
C127   H163    1.079   .     S
C127   C156    1.417   .     A
C127   C129    1.388   .     A
C128   C130    1.390   .     A
C128   C155    1.418   .     A
C128   H164    1.078   .     S
C129   H157    1.084   .     S
C129   C711    1.393   1_554 S
C130   H158    1.084   .     S
C130   C712    1.394   .     S
C131   C136    1.397   .     A
C131   H165    1.084   .     S
C131   C319    1.370   .     S
C132   C135    1.397   .     A
C132   H166    1.084   .     S
C132   C506    1.370   1_545 S
C133   C135    1.397   .     A
C133   H167    1.084   .     S
C133   C503    1.370   1_545 S
C134   C136    1.397   .     A
C134   H168    1.084   .     S
C134   C318    1.370   .     S
C137   N172    1.367   .     A
C137   F185    1.355   .     S
C137   C15     1.417   1_655 S
C138   N171    1.367   .     A
C138   F186    1.355   .     S
C139   N171    1.366   .     A
C139   H169    1.082   .     S
C140   N172    1.366   .     A
C140   H170    1.082   .     S
C140   C14     1.417   1_655 S
C141   O179    1.293   .     A
C141   O177    1.292   .     A
C141   C143    1.457   .     S
C142   O180    1.292   .     A
C142   C144    1.457   .     S
C142   O178    1.294   .     A
C143   C147    1.398   .     A
C143   C149    1.392   .     A
C144   C150    1.390   .     A
C144   C148    1.399   .     A
C145   C153    1.407   .     A
C145   F183    1.358   .     S
C145   C147    1.393   .     A
C146   F184    1.358   .     S
C146   C148    1.396   .     A
C146   C154    1.409   .     A
C147   H162    1.083   .     S
C148   H161    1.083   .     S
C149   H160    1.077   .     S
C149   C151    1.396   .     A
C150   C152    1.393   .     A
C150   H159    1.079   .     S
C151   C153    1.421   .     A
C151   C155    1.419   .     A
C152   C154    1.417   .     A
C152   C156    1.416   .     A
C153   C687    1.393   .     S
C154   C688    1.394   1_554 S
C155   C714    1.413   .     S
C156   C713    1.413   1_554 S
N171   Zn181   2.010   .     S
N172   Zn182   2.010   .     S
O173   Zn181   2.000   .     S
O174   Zn182   2.000   .     S
O175   Zn182   2.000   .     S
O176   Zn181   2.000   .     S
O177   Zn181   1.965   .     S
O178   Zn182   1.965   .     S
O179   Zn182   1.913   .     S
O180   Zn181   1.913   .     S
C187   O237    1.283   .     A
C187   C198    1.420   .     S
C187   O235    1.283   .     A
C188   O238    1.283   .     A
C188   C197    1.419   .     S
C188   O236    1.283   .     A
C189   H225    1.079   .     S
C189   C218    1.417   .     A
C189   C191    1.388   .     A
C190   C192    1.390   .     A
C190   C217    1.418   .     A
C190   H226    1.078   .     S
C191   H219    1.084   .     S
C191   C773    1.393   1_554 S
C192   H220    1.084   .     S
C192   C774    1.394   .     S
C193   C198    1.397   .     A
C193   H227    1.084   .     S
C193   C381    1.370   .     S
C194   C197    1.397   .     A
C194   H228    1.084   .     S
C195   C197    1.397   .     A
C195   H229    1.084   .     S
C196   C198    1.397   .     A
C196   H230    1.084   .     S
C196   C380    1.370   .     S
C199   N234    1.367   .     A
C199   F247    1.355   .     S
C199   C263    1.417   .     S
C200   N233    1.367   .     A
C200   F248    1.355   .     S
C200   C326    1.417   1_455 S
C201   N233    1.366   .     A
C201   H231    1.082   .     S
C201   C323    1.417   1_455 S
C202   N234    1.366   .     A
C202   H232    1.082   .     S
C202   C262    1.417   .     S
C203   O241    1.293   .     A
C203   O239    1.292   .     A
C203   C205    1.457   .     S
C204   O242    1.292   .     A
C204   C206    1.457   .     S
C204   O240    1.294   .     A
C205   C209    1.398   .     A
C205   C211    1.392   .     A
C206   C212    1.390   .     A
C206   C210    1.399   .     A
C207   C215    1.407   .     A
C207   F245    1.358   .     S
C207   C209    1.393   .     A
C208   F246    1.358   .     S
C208   C210    1.396   .     A
C208   C216    1.409   .     A
C209   H224    1.083   .     S
C210   H223    1.083   .     S
C211   H222    1.077   .     S
C211   C213    1.396   .     A
C212   C214    1.393   .     A
C212   H221    1.079   .     S
C213   C215    1.421   .     A
C213   C217    1.419   .     A
C214   C216    1.417   .     A
C214   C218    1.416   .     A
C215   C749    1.393   .     S
C216   C750    1.394   1_554 S
C217   C776    1.413   .     S
C218   C775    1.413   1_554 S
N233   Zn243   2.010   .     S
N234   Zn244   2.010   .     S
O235   Zn243   2.000   .     S
O236   Zn244   2.000   .     S
O237   Zn244   2.000   .     S
O238   Zn243   2.000   .     S
O239   Zn243   1.965   .     S
O240   Zn244   1.965   .     S
O241   Zn244   1.913   .     S
O242   Zn243   1.913   .     S
C249   O299    1.283   .     A
C249   C260    1.420   .     S
C249   O297    1.283   .     A
C250   O300    1.283   .     A
C250   C259    1.419   .     S
C250   O298    1.283   .     A
C251   H287    1.079   .     S
C251   C280    1.417   .     A
C251   C253    1.388   .     A
C252   C254    1.390   .     A
C252   C279    1.418   .     A
C252   H288    1.078   .     S
C253   H281    1.084   .     S
C253   C835    1.393   1_554 S
C254   H282    1.084   .     S
C254   C836    1.394   .     S
C255   C260    1.397   .     A
C255   H289    1.084   .     S
C255   C443    1.370   .     S
C256   C259    1.397   .     A
C256   H290    1.084   .     S
C257   C259    1.397   .     A
C257   H291    1.084   .     S
C258   C260    1.397   .     A
C258   H292    1.084   .     S
C258   C442    1.370   .     S
C261   N296    1.367   .     A
C261   F309    1.355   .     S
C261   C325    1.417   .     S
C262   N295    1.367   .     A
C262   F310    1.355   .     S
C263   N295    1.366   .     A
C263   H293    1.082   .     S
C264   N296    1.366   .     A
C264   H294    1.082   .     S
C264   C324    1.417   .     S
C265   O303    1.293   .     A
C265   O301    1.292   .     A
C265   C267    1.457   .     S
C266   O304    1.292   .     A
C266   C268    1.457   .     S
C266   O302    1.294   .     A
C267   C271    1.398   .     A
C267   C273    1.392   .     A
C268   C274    1.390   .     A
C268   C272    1.399   .     A
C269   C277    1.407   .     A
C269   F307    1.358   .     S
C269   C271    1.393   .     A
C270   F308    1.358   .     S
C270   C272    1.396   .     A
C270   C278    1.409   .     A
C271   H286    1.083   .     S
C272   H285    1.083   .     S
C273   H284    1.077   .     S
C273   C275    1.396   .     A
C274   C276    1.393   .     A
C274   H283    1.079   .     S
C275   C277    1.421   .     A
C275   C279    1.419   .     A
C276   C278    1.417   .     A
C276   C280    1.416   .     A
C277   C811    1.393   .     S
C278   C812    1.394   1_554 S
C279   C838    1.413   .     S
C280   C837    1.413   1_554 S
N295   Zn305   2.010   .     S
N296   Zn306   2.010   .     S
O297   Zn305   2.000   .     S
O298   Zn306   2.000   .     S
O299   Zn306   2.000   .     S
O300   Zn305   2.000   .     S
O301   Zn305   1.965   .     S
O302   Zn306   1.965   .     S
O303   Zn306   1.913   .     S
O304   Zn305   1.913   .     S
C311   O361    1.283   .     A
C311   C322    1.420   .     S
C311   O359    1.283   .     A
C312   O362    1.283   .     A
C312   C321    1.419   .     S
C312   O360    1.283   .     A
C313   H349    1.079   .     S
C313   C342    1.417   .     A
C313   C315    1.388   .     A
C314   C316    1.390   .     A
C314   C341    1.418   .     A
C314   H350    1.078   .     S
C315   H343    1.084   .     S
C315   C897    1.393   1_554 S
C316   H344    1.084   .     S
C316   C898    1.394   .     S
C317   C322    1.397   .     A
C317   H351    1.084   .     S
C317   C505    1.370   .     S
C318   C321    1.397   .     A
C318   H352    1.084   .     S
C319   C321    1.397   .     A
C319   H353    1.084   .     S
C320   C322    1.397   .     A
C320   H354    1.084   .     S
C320   C504    1.370   .     S
C323   N358    1.367   .     A
C323   F371    1.355   .     S
C323   C201    1.417   1_655 S
C324   N357    1.367   .     A
C324   F372    1.355   .     S
C325   N357    1.366   .     A
C325   H355    1.082   .     S
C326   N358    1.366   .     A
C326   H356    1.082   .     S
C326   C200    1.417   1_655 S
C327   O365    1.293   .     A
C327   O363    1.292   .     A
C327   C329    1.457   .     S
C328   O366    1.292   .     A
C328   C330    1.457   .     S
C328   O364    1.294   .     A
C329   C333    1.398   .     A
C329   C335    1.392   .     A
C330   C336    1.390   .     A
C330   C334    1.399   .     A
C331   C339    1.407   .     A
C331   F369    1.358   .     S
C331   C333    1.393   .     A
C332   F370    1.358   .     S
C332   C334    1.396   .     A
C332   C340    1.409   .     A
C333   H348    1.083   .     S
C334   H347    1.083   .     S
C335   H346    1.077   .     S
C335   C337    1.396   .     A
C336   C338    1.393   .     A
C336   H345    1.079   .     S
C337   C339    1.421   .     A
C337   C341    1.419   .     A
C338   C340    1.417   .     A
C338   C342    1.416   .     A
C339   C873    1.393   .     S
C340   C874    1.394   1_554 S
C341   C900    1.413   .     S
C342   C899    1.413   1_554 S
N357   Zn367   2.010   .     S
N358   Zn368   2.010   .     S
O359   Zn367   2.000   .     S
O360   Zn368   2.000   .     S
O361   Zn368   2.000   .     S
O362   Zn367   2.000   .     S
O363   Zn367   1.965   .     S
O364   Zn368   1.965   .     S
O365   Zn368   1.913   .     S
O366   Zn367   1.913   .     S
C373   O423    1.283   .     A
C373   C384    1.420   .     S
C373   O421    1.283   .     A
C374   O424    1.283   .     A
C374   C383    1.419   .     S
C374   O422    1.283   .     A
C375   H411    1.079   .     S
C375   C404    1.417   .     A
C375   C377    1.388   .     A
C376   C378    1.390   .     A
C376   C403    1.418   .     A
C376   H412    1.078   .     S
C377   H405    1.084   .     S
C377   C959    1.393   1_554 S
C378   H406    1.084   .     S
C378   C960    1.394   .     S
C379   C384    1.397   .     A
C379   H413    1.084   .     S
C379   C9      1.370   1_565 S
C380   C383    1.397   .     A
C380   H414    1.084   .     S
C381   C383    1.397   .     A
C381   H415    1.084   .     S
C382   C384    1.397   .     A
C382   H416    1.084   .     S
C382   C8      1.370   1_565 S
C385   N420    1.367   .     A
C385   F433    1.355   .     S
C385   C449    1.417   .     S
C386   N419    1.367   .     A
C386   F434    1.355   .     S
C386   C512    1.417   1_455 S
C387   N419    1.366   .     A
C387   H417    1.082   .     S
C387   C509    1.417   1_455 S
C388   N420    1.366   .     A
C388   H418    1.082   .     S
C388   C448    1.417   .     S
C389   O427    1.293   .     A
C389   O425    1.292   .     A
C389   C391    1.457   .     S
C390   O428    1.292   .     A
C390   C392    1.457   .     S
C390   O426    1.294   .     A
C391   C395    1.398   .     A
C391   C397    1.392   .     A
C392   C398    1.390   .     A
C392   C396    1.399   .     A
C393   C401    1.407   .     A
C393   F431    1.358   .     S
C393   C395    1.393   .     A
C394   F432    1.358   .     S
C394   C396    1.396   .     A
C394   C402    1.409   .     A
C395   H410    1.083   .     S
C396   H409    1.083   .     S
C397   H408    1.077   .     S
C397   C399    1.396   .     A
C398   C400    1.393   .     A
C398   H407    1.079   .     S
C399   C401    1.421   .     A
C399   C403    1.419   .     A
C400   C402    1.417   .     A
C400   C404    1.416   .     A
C401   C935    1.393   .     S
C402   C936    1.394   1_554 S
C403   C962    1.413   .     S
C404   C961    1.413   1_554 S
N419   Zn429   2.010   .     S
N420   Zn430   2.010   .     S
O421   Zn429   2.000   .     S
O422   Zn430   2.000   .     S
O423   Zn430   2.000   .     S
O424   Zn429   2.000   .     S
O425   Zn429   1.965   .     S
O426   Zn430   1.965   .     S
O427   Zn430   1.913   .     S
O428   Zn429   1.913   .     S
C435   O485    1.283   .     A
C435   C446    1.420   .     S
C435   O483    1.283   .     A
C436   O486    1.283   .     A
C436   C445    1.419   .     S
C436   O484    1.283   .     A
C437   H473    1.079   .     S
C437   C466    1.417   .     A
C437   C439    1.388   .     A
C438   C440    1.390   .     A
C438   C465    1.418   .     A
C438   H474    1.078   .     S
C439   H467    1.084   .     S
C439   C1021   1.393   1_554 S
C440   H468    1.084   .     S
C440   C1022   1.394   .     S
C441   C446    1.397   .     A
C441   H475    1.084   .     S
C441   C71     1.370   1_565 S
C442   C445    1.397   .     A
C442   H476    1.084   .     S
C443   C445    1.397   .     A
C443   H477    1.084   .     S
C444   C446    1.397   .     A
C444   H478    1.084   .     S
C444   C70     1.370   1_565 S
C447   N482    1.367   .     A
C447   F495    1.355   .     S
C447   C511    1.417   .     S
C448   N481    1.367   .     A
C448   F496    1.355   .     S
C449   N481    1.366   .     A
C449   H479    1.082   .     S
C450   N482    1.366   .     A
C450   H480    1.082   .     S
C450   C510    1.417   .     S
C451   O489    1.293   .     A
C451   O487    1.292   .     A
C451   C453    1.457   .     S
C452   O490    1.292   .     A
C452   C454    1.457   .     S
C452   O488    1.294   .     A
C453   C457    1.398   .     A
C453   C459    1.392   .     A
C454   C460    1.390   .     A
C454   C458    1.399   .     A
C455   C463    1.407   .     A
C455   F493    1.358   .     S
C455   C457    1.393   .     A
C456   F494    1.358   .     S
C456   C458    1.396   .     A
C456   C464    1.409   .     A
C457   H472    1.083   .     S
C458   H471    1.083   .     S
C459   H470    1.077   .     S
C459   C461    1.396   .     A
C460   C462    1.393   .     A
C460   H469    1.079   .     S
C461   C463    1.421   .     A
C461   C465    1.419   .     A
C462   C464    1.417   .     A
C462   C466    1.416   .     A
C463   C997    1.393   .     S
C464   C998    1.394   1_554 S
C465   C1024   1.413   .     S
C466   C1023   1.413   1_554 S
N481   Zn491   2.010   .     S
N482   Zn492   2.010   .     S
O483   Zn491   2.000   .     S
O484   Zn492   2.000   .     S
O485   Zn492   2.000   .     S
O486   Zn491   2.000   .     S
O487   Zn491   1.965   .     S
O488   Zn492   1.965   .     S
O489   Zn492   1.913   .     S
O490   Zn491   1.913   .     S
C497   O547    1.283   .     A
C497   C508    1.420   .     S
C497   O545    1.283   .     A
C498   O548    1.283   .     A
C498   C507    1.419   .     S
C498   O546    1.283   .     A
C499   H535    1.079   .     S
C499   C528    1.417   .     A
C499   C501    1.388   .     A
C500   C502    1.390   .     A
C500   C527    1.418   .     A
C500   H536    1.078   .     S
C501   H529    1.084   .     S
C501   C1083   1.393   1_554 S
C502   H530    1.084   .     S
C502   C1084   1.394   .     S
C503   C508    1.397   .     A
C503   H537    1.084   .     S
C503   C133    1.370   1_565 S
C504   C507    1.397   .     A
C504   H538    1.084   .     S
C505   C507    1.397   .     A
C505   H539    1.084   .     S
C506   C508    1.397   .     A
C506   H540    1.084   .     S
C506   C132    1.370   1_565 S
C509   N544    1.367   .     A
C509   F557    1.355   .     S
C509   C387    1.417   1_655 S
C510   N543    1.367   .     A
C510   F558    1.355   .     S
C511   N543    1.366   .     A
C511   H541    1.082   .     S
C512   N544    1.366   .     A
C512   H542    1.082   .     S
C512   C386    1.417   1_655 S
C513   O551    1.293   .     A
C513   O549    1.292   .     A
C513   C515    1.457   .     S
C514   O552    1.292   .     A
C514   C516    1.457   .     S
C514   O550    1.294   .     A
C515   C519    1.398   .     A
C515   C521    1.392   .     A
C516   C522    1.390   .     A
C516   C520    1.399   .     A
C517   C525    1.407   .     A
C517   F555    1.358   .     S
C517   C519    1.393   .     A
C518   F556    1.358   .     S
C518   C520    1.396   .     A
C518   C526    1.409   .     A
C519   H534    1.083   .     S
C520   H533    1.083   .     S
C521   H532    1.077   .     S
C521   C523    1.396   .     A
C522   C524    1.393   .     A
C522   H531    1.079   .     S
C523   C525    1.421   .     A
C523   C527    1.419   .     A
C524   C526    1.417   .     A
C524   C528    1.416   .     A
C525   C1059   1.393   .     S
C526   C1060   1.394   1_554 S
C527   C1086   1.413   .     S
C528   C1085   1.413   1_554 S
N543   Zn553   2.010   .     S
N544   Zn554   2.010   .     S
O545   Zn553   2.000   .     S
O546   Zn554   2.000   .     S
O547   Zn554   2.000   .     S
O548   Zn553   2.000   .     S
O549   Zn553   1.965   .     S
O550   Zn554   1.965   .     S
O551   Zn554   1.913   .     S
O552   Zn553   1.913   .     S
C559   O609    1.283   .     A
C559   C570    1.420   .     S
C559   O607    1.283   .     A
C560   O610    1.283   .     A
C560   C569    1.419   .     S
C560   O608    1.283   .     A
C561   H597    1.079   .     S
C561   C590    1.417   .     A
C561   C563    1.388   .     A
C562   C564    1.390   .     A
C562   C589    1.418   .     A
C562   H598    1.078   .     S
C563   H591    1.084   .     S
C564   H592    1.084   .     S
C564   C30     1.394   1_556 S
C565   C570    1.397   .     A
C565   H599    1.084   .     S
C565   C753    1.370   .     S
C566   C569    1.397   .     A
C566   H600    1.084   .     S
C566   C940    1.370   1_545 S
C567   C569    1.397   .     A
C567   H601    1.084   .     S
C567   C937    1.370   1_545 S
C568   C570    1.397   .     A
C568   H602    1.084   .     S
C568   C752    1.370   .     S
C571   N606    1.367   .     A
C571   F619    1.355   .     S
C571   C635    1.417   .     S
C572   N605    1.367   .     A
C572   F620    1.355   .     S
C572   C698    1.417   1_455 S
C573   N605    1.366   .     A
C573   H603    1.082   .     S
C573   C695    1.417   1_455 S
C574   N606    1.366   .     A
C574   H604    1.082   .     S
C574   C634    1.417   .     S
C575   O613    1.293   .     A
C575   O611    1.292   .     A
C575   C577    1.457   .     S
C576   O614    1.292   .     A
C576   C578    1.457   .     S
C576   O612    1.294   .     A
C577   C581    1.398   .     A
C577   C583    1.392   .     A
C578   C584    1.390   .     A
C578   C582    1.399   .     A
C579   C587    1.407   .     A
C579   F617    1.358   .     S
C579   C581    1.393   .     A
C580   F618    1.358   .     S
C580   C582    1.396   .     A
C580   C588    1.409   .     A
C581   H596    1.083   .     S
C582   H595    1.083   .     S
C583   H594    1.077   .     S
C583   C585    1.396   .     A
C584   C586    1.393   .     A
C584   H593    1.079   .     S
C585   C587    1.421   .     A
C585   C589    1.419   .     A
C586   C588    1.417   .     A
C586   C590    1.416   .     A
C587   C5      1.393   1_556 S
C589   C32     1.413   1_556 S
N605   Zn615   2.010   .     S
N606   Zn616   2.010   .     S
O607   Zn615   2.000   .     S
O608   Zn616   2.000   .     S
O609   Zn616   2.000   .     S
O610   Zn615   2.000   .     S
O611   Zn615   1.965   .     S
O612   Zn616   1.965   .     S
O613   Zn616   1.913   .     S
O614   Zn615   1.913   .     S
C621   O671    1.283   .     A
C621   C632    1.420   .     S
C621   O669    1.283   .     A
C622   O672    1.283   .     A
C622   C631    1.419   .     S
C622   O670    1.283   .     A
C623   H659    1.079   .     S
C623   C652    1.417   .     A
C623   C625    1.388   .     A
C624   C626    1.390   .     A
C624   C651    1.418   .     A
C624   H660    1.078   .     S
C625   H653    1.084   .     S
C626   H654    1.084   .     S
C626   C92     1.394   1_556 S
C627   C632    1.397   .     A
C627   H661    1.084   .     S
C627   C815    1.370   .     S
C628   C631    1.397   .     A
C628   H662    1.084   .     S
C628   C1002   1.370   1_545 S
C629   C631    1.397   .     A
C629   H663    1.084   .     S
C629   C999    1.370   1_545 S
C630   C632    1.397   .     A
C630   H664    1.084   .     S
C630   C814    1.370   .     S
C633   N668    1.367   .     A
C633   F681    1.355   .     S
C633   C697    1.417   .     S
C634   N667    1.367   .     A
C634   F682    1.355   .     S
C635   N667    1.366   .     A
C635   H665    1.082   .     S
C636   N668    1.366   .     A
C636   H666    1.082   .     S
C636   C696    1.417   .     S
C637   O675    1.293   .     A
C637   O673    1.292   .     A
C637   C639    1.457   .     S
C638   O676    1.292   .     A
C638   C640    1.457   .     S
C638   O674    1.294   .     A
C639   C643    1.398   .     A
C639   C645    1.392   .     A
C640   C646    1.390   .     A
C640   C644    1.399   .     A
C641   C649    1.407   .     A
C641   F679    1.358   .     S
C641   C643    1.393   .     A
C642   F680    1.358   .     S
C642   C644    1.396   .     A
C642   C650    1.409   .     A
C643   H658    1.083   .     S
C644   H657    1.083   .     S
C645   H656    1.077   .     S
C645   C647    1.396   .     A
C646   C648    1.393   .     A
C646   H655    1.079   .     S
C647   C649    1.421   .     A
C647   C651    1.419   .     A
C648   C650    1.417   .     A
C648   C652    1.416   .     A
C649   C67     1.393   1_556 S
C651   C94     1.413   1_556 S
N667   Zn677   2.010   .     S
N668   Zn678   2.010   .     S
O669   Zn677   2.000   .     S
O670   Zn678   2.000   .     S
O671   Zn678   2.000   .     S
O672   Zn677   2.000   .     S
O673   Zn677   1.965   .     S
O674   Zn678   1.965   .     S
O675   Zn678   1.913   .     S
O676   Zn677   1.913   .     S
C683   O733    1.283   .     A
C683   C694    1.420   .     S
C683   O731    1.283   .     A
C684   O734    1.283   .     A
C684   C693    1.419   .     S
C684   O732    1.283   .     A
C685   H721    1.079   .     S
C685   C714    1.417   .     A
C685   C687    1.388   .     A
C686   C688    1.390   .     A
C686   C713    1.418   .     A
C686   H722    1.078   .     S
C687   H715    1.084   .     S
C688   H716    1.084   .     S
C688   C154    1.394   1_556 S
C689   C694    1.397   .     A
C689   H723    1.084   .     S
C689   C877    1.370   .     S
C690   C693    1.397   .     A
C690   H724    1.084   .     S
C690   C1064   1.370   1_545 S
C691   C693    1.397   .     A
C691   H725    1.084   .     S
C691   C1061   1.370   1_545 S
C692   C694    1.397   .     A
C692   H726    1.084   .     S
C692   C876    1.370   .     S
C695   N730    1.367   .     A
C695   F743    1.355   .     S
C695   C573    1.417   1_655 S
C696   N729    1.367   .     A
C696   F744    1.355   .     S
C697   N729    1.366   .     A
C697   H727    1.082   .     S
C698   N730    1.366   .     A
C698   H728    1.082   .     S
C698   C572    1.417   1_655 S
C699   O737    1.293   .     A
C699   O735    1.292   .     A
C699   C701    1.457   .     S
C700   O738    1.292   .     A
C700   C702    1.457   .     S
C700   O736    1.294   .     A
C701   C705    1.398   .     A
C701   C707    1.392   .     A
C702   C708    1.390   .     A
C702   C706    1.399   .     A
C703   C711    1.407   .     A
C703   F741    1.358   .     S
C703   C705    1.393   .     A
C704   F742    1.358   .     S
C704   C706    1.396   .     A
C704   C712    1.409   .     A
C705   H720    1.083   .     S
C706   H719    1.083   .     S
C707   H718    1.077   .     S
C707   C709    1.396   .     A
C708   C710    1.393   .     A
C708   H717    1.079   .     S
C709   C711    1.421   .     A
C709   C713    1.419   .     A
C710   C712    1.417   .     A
C710   C714    1.416   .     A
C711   C129    1.393   1_556 S
C713   C156    1.413   1_556 S
N729   Zn739   2.010   .     S
N730   Zn740   2.010   .     S
O731   Zn739   2.000   .     S
O732   Zn740   2.000   .     S
O733   Zn740   2.000   .     S
O734   Zn739   2.000   .     S
O735   Zn739   1.965   .     S
O736   Zn740   1.965   .     S
O737   Zn740   1.913   .     S
O738   Zn739   1.913   .     S
C745   O795    1.283   .     A
C745   C756    1.420   .     S
C745   O793    1.283   .     A
C746   O796    1.283   .     A
C746   C755    1.419   .     S
C746   O794    1.283   .     A
C747   H783    1.079   .     S
C747   C776    1.417   .     A
C747   C749    1.388   .     A
C748   C750    1.390   .     A
C748   C775    1.418   .     A
C748   H784    1.078   .     S
C749   H777    1.084   .     S
C750   H778    1.084   .     S
C750   C216    1.394   1_556 S
C751   C756    1.397   .     A
C751   H785    1.084   .     S
C751   C939    1.370   .     S
C752   C755    1.397   .     A
C752   H786    1.084   .     S
C753   C755    1.397   .     A
C753   H787    1.084   .     S
C754   C756    1.397   .     A
C754   H788    1.084   .     S
C754   C938    1.370   .     S
C757   N792    1.367   .     A
C757   F805    1.355   .     S
C757   C821    1.417   .     S
C758   N791    1.367   .     A
C758   F806    1.355   .     S
C758   C884    1.417   1_455 S
C759   N791    1.366   .     A
C759   H789    1.082   .     S
C759   C881    1.417   1_455 S
C760   N792    1.366   .     A
C760   H790    1.082   .     S
C760   C820    1.417   .     S
C761   O799    1.293   .     A
C761   O797    1.292   .     A
C761   C763    1.457   .     S
C762   O800    1.292   .     A
C762   C764    1.457   .     S
C762   O798    1.294   .     A
C763   C767    1.398   .     A
C763   C769    1.392   .     A
C764   C770    1.390   .     A
C764   C768    1.399   .     A
C765   C773    1.407   .     A
C765   F803    1.358   .     S
C765   C767    1.393   .     A
C766   F804    1.358   .     S
C766   C768    1.396   .     A
C766   C774    1.409   .     A
C767   H782    1.083   .     S
C768   H781    1.083   .     S
C769   H780    1.077   .     S
C769   C771    1.396   .     A
C770   C772    1.393   .     A
C770   H779    1.079   .     S
C771   C773    1.421   .     A
C771   C775    1.419   .     A
C772   C774    1.417   .     A
C772   C776    1.416   .     A
C773   C191    1.393   1_556 S
C775   C218    1.413   1_556 S
N791   Zn801   2.010   .     S
N792   Zn802   2.010   .     S
O793   Zn801   2.000   .     S
O794   Zn802   2.000   .     S
O795   Zn802   2.000   .     S
O796   Zn801   2.000   .     S
O797   Zn801   1.965   .     S
O798   Zn802   1.965   .     S
O799   Zn802   1.913   .     S
O800   Zn801   1.913   .     S
C807   O857    1.283   .     A
C807   C818    1.420   .     S
C807   O855    1.283   .     A
C808   O858    1.283   .     A
C808   C817    1.419   .     S
C808   O856    1.283   .     A
C809   H845    1.079   .     S
C809   C838    1.417   .     A
C809   C811    1.388   .     A
C810   C812    1.390   .     A
C810   C837    1.418   .     A
C810   H846    1.078   .     S
C811   H839    1.084   .     S
C812   H840    1.084   .     S
C812   C278    1.394   1_556 S
C813   C818    1.397   .     A
C813   H847    1.084   .     S
C813   C1001   1.370   .     S
C814   C817    1.397   .     A
C814   H848    1.084   .     S
C815   C817    1.397   .     A
C815   H849    1.084   .     S
C816   C818    1.397   .     A
C816   H850    1.084   .     S
C816   C1000   1.370   .     S
C819   N854    1.367   .     A
C819   F867    1.355   .     S
C819   C883    1.417   .     S
C820   N853    1.367   .     A
C820   F868    1.355   .     S
C821   N853    1.366   .     A
C821   H851    1.082   .     S
C822   N854    1.366   .     A
C822   H852    1.082   .     S
C822   C882    1.417   .     S
C823   O861    1.293   .     A
C823   O859    1.292   .     A
C823   C825    1.457   .     S
C824   O862    1.292   .     A
C824   C826    1.457   .     S
C824   O860    1.294   .     A
C825   C829    1.398   .     A
C825   C831    1.392   .     A
C826   C832    1.390   .     A
C826   C830    1.399   .     A
C827   C835    1.407   .     A
C827   F865    1.358   .     S
C827   C829    1.393   .     A
C828   F866    1.358   .     S
C828   C830    1.396   .     A
C828   C836    1.409   .     A
C829   H844    1.083   .     S
C830   H843    1.083   .     S
C831   H842    1.077   .     S
C831   C833    1.396   .     A
C832   C834    1.393   .     A
C832   H841    1.079   .     S
C833   C835    1.421   .     A
C833   C837    1.419   .     A
C834   C836    1.417   .     A
C834   C838    1.416   .     A
C835   C253    1.393   1_556 S
C837   C280    1.413   1_556 S
N853   Zn863   2.010   .     S
N854   Zn864   2.010   .     S
O855   Zn863   2.000   .     S
O856   Zn864   2.000   .     S
O857   Zn864   2.000   .     S
O858   Zn863   2.000   .     S
O859   Zn863   1.965   .     S
O860   Zn864   1.965   .     S
O861   Zn864   1.913   .     S
O862   Zn863   1.913   .     S
C869   O919    1.283   .     A
C869   C880    1.420   .     S
C869   O917    1.283   .     A
C870   O920    1.283   .     A
C870   C879    1.419   .     S
C870   O918    1.283   .     A
C871   H907    1.079   .     S
C871   C900    1.417   .     A
C871   C873    1.388   .     A
C872   C874    1.390   .     A
C872   C899    1.418   .     A
C872   H908    1.078   .     S
C873   H901    1.084   .     S
C874   H902    1.084   .     S
C874   C340    1.394   1_556 S
C875   C880    1.397   .     A
C875   H909    1.084   .     S
C875   C1063   1.370   .     S
C876   C879    1.397   .     A
C876   H910    1.084   .     S
C877   C879    1.397   .     A
C877   H911    1.084   .     S
C878   C880    1.397   .     A
C878   H912    1.084   .     S
C878   C1062   1.370   .     S
C881   N916    1.367   .     A
C881   F929    1.355   .     S
C881   C759    1.417   1_655 S
C882   N915    1.367   .     A
C882   F930    1.355   .     S
C883   N915    1.366   .     A
C883   H913    1.082   .     S
C884   N916    1.366   .     A
C884   H914    1.082   .     S
C884   C758    1.417   1_655 S
C885   O923    1.293   .     A
C885   O921    1.292   .     A
C885   C887    1.457   .     S
C886   O924    1.292   .     A
C886   C888    1.457   .     S
C886   O922    1.294   .     A
C887   C891    1.398   .     A
C887   C893    1.392   .     A
C888   C894    1.390   .     A
C888   C892    1.399   .     A
C889   C897    1.407   .     A
C889   F927    1.358   .     S
C889   C891    1.393   .     A
C890   F928    1.358   .     S
C890   C892    1.396   .     A
C890   C898    1.409   .     A
C891   H906    1.083   .     S
C892   H905    1.083   .     S
C893   H904    1.077   .     S
C893   C895    1.396   .     A
C894   C896    1.393   .     A
C894   H903    1.079   .     S
C895   C897    1.421   .     A
C895   C899    1.419   .     A
C896   C898    1.417   .     A
C896   C900    1.416   .     A
C897   C315    1.393   1_556 S
C899   C342    1.413   1_556 S
N915   Zn925   2.010   .     S
N916   Zn926   2.010   .     S
O917   Zn925   2.000   .     S
O918   Zn926   2.000   .     S
O919   Zn926   2.000   .     S
O920   Zn925   2.000   .     S
O921   Zn925   1.965   .     S
O922   Zn926   1.965   .     S
O923   Zn926   1.913   .     S
O924   Zn925   1.913   .     S
C931   O981    1.283   .     A
C931   C942    1.420   .     S
C931   O979    1.283   .     A
C932   O982    1.283   .     A
C932   C941    1.419   .     S
C932   O980    1.283   .     A
C933   H969    1.079   .     S
C933   C962    1.417   .     A
C933   C935    1.388   .     A
C934   C936    1.390   .     A
C934   C961    1.418   .     A
C934   H970    1.078   .     S
C935   H963    1.084   .     S
C936   H964    1.084   .     S
C936   C402    1.394   1_556 S
C937   C942    1.397   .     A
C937   H971    1.084   .     S
C937   C567    1.370   1_565 S
C938   C941    1.397   .     A
C938   H972    1.084   .     S
C939   C941    1.397   .     A
C939   H973    1.084   .     S
C940   C942    1.397   .     A
C940   H974    1.084   .     S
C940   C566    1.370   1_565 S
C943   N978    1.367   .     A
C943   F991    1.355   .     S
C943   C1007   1.417   .     S
C944   N977    1.367   .     A
C944   F992    1.355   .     S
C944   C1070   1.417   1_455 S
C945   N977    1.366   .     A
C945   H975    1.082   .     S
C945   C1067   1.417   1_455 S
C946   N978    1.366   .     A
C946   H976    1.082   .     S
C946   C1006   1.417   .     S
C947   O985    1.293   .     A
C947   O983    1.292   .     A
C947   C949    1.457   .     S
C948   O986    1.292   .     A
C948   C950    1.457   .     S
C948   O984    1.294   .     A
C949   C953    1.398   .     A
C949   C955    1.392   .     A
C950   C956    1.390   .     A
C950   C954    1.399   .     A
C951   C959    1.407   .     A
C951   F989    1.358   .     S
C951   C953    1.393   .     A
C952   F990    1.358   .     S
C952   C954    1.396   .     A
C952   C960    1.409   .     A
C953   H968    1.083   .     S
C954   H967    1.083   .     S
C955   H966    1.077   .     S
C955   C957    1.396   .     A
C956   C958    1.393   .     A
C956   H965    1.079   .     S
C957   C959    1.421   .     A
C957   C961    1.419   .     A
C958   C960    1.417   .     A
C958   C962    1.416   .     A
C959   C377    1.393   1_556 S
C961   C404    1.413   1_556 S
N977   Zn987   2.010   .     S
N978   Zn988   2.010   .     S
O979   Zn987   2.000   .     S
O980   Zn988   2.000   .     S
O981   Zn988   2.000   .     S
O982   Zn987   2.000   .     S
O983   Zn987   1.965   .     S
O984   Zn988   1.965   .     S
O985   Zn988   1.913   .     S
O986   Zn987   1.913   .     S
C993   O1043   1.283   .     A
C993   C1004   1.420   .     S
C993   O1041   1.283   .     A
C994   O1044   1.283   .     A
C994   C1003   1.419   .     S
C994   O1042   1.283   .     A
C995   H1031   1.079   .     S
C995   C1024   1.417   .     A
C995   C997    1.388   .     A
C996   C998    1.390   .     A
C996   C1023   1.418   .     A
C996   H1032   1.078   .     S
C997   H1025   1.084   .     S
C998   H1026   1.084   .     S
C998   C464    1.394   1_556 S
C999   C1004   1.397   .     A
C999   H1033   1.084   .     S
C999   C629    1.370   1_565 S
C1000  C1003   1.397   .     A
C1000  H1034   1.084   .     S
C1001  C1003   1.397   .     A
C1001  H1035   1.084   .     S
C1002  C1004   1.397   .     A
C1002  H1036   1.084   .     S
C1002  C628    1.370   1_565 S
C1005  N1040   1.367   .     A
C1005  F1053   1.355   .     S
C1005  C1069   1.417   .     S
C1006  N1039   1.367   .     A
C1006  F1054   1.355   .     S
C1007  N1039   1.366   .     A
C1007  H1037   1.082   .     S
C1008  N1040   1.366   .     A
C1008  H1038   1.082   .     S
C1008  C1068   1.417   .     S
C1009  O1047   1.293   .     A
C1009  O1045   1.292   .     A
C1009  C1011   1.457   .     S
C1010  O1048   1.292   .     A
C1010  C1012   1.457   .     S
C1010  O1046   1.294   .     A
C1011  C1015   1.398   .     A
C1011  C1017   1.392   .     A
C1012  C1018   1.390   .     A
C1012  C1016   1.399   .     A
C1013  C1021   1.407   .     A
C1013  F1051   1.358   .     S
C1013  C1015   1.393   .     A
C1014  F1052   1.358   .     S
C1014  C1016   1.396   .     A
C1014  C1022   1.409   .     A
C1015  H1030   1.083   .     S
C1016  H1029   1.083   .     S
C1017  H1028   1.077   .     S
C1017  C1019   1.396   .     A
C1018  C1020   1.393   .     A
C1018  H1027   1.079   .     S
C1019  C1021   1.421   .     A
C1019  C1023   1.419   .     A
C1020  C1022   1.417   .     A
C1020  C1024   1.416   .     A
C1021  C439    1.393   1_556 S
C1023  C466    1.413   1_556 S
N1039  Zn1049  2.010   .     S
N1040  Zn1050  2.010   .     S
O1041  Zn1049  2.000   .     S
O1042  Zn1050  2.000   .     S
O1043  Zn1050  2.000   .     S
O1044  Zn1049  2.000   .     S
O1045  Zn1049  1.965   .     S
O1046  Zn1050  1.965   .     S
O1047  Zn1050  1.913   .     S
O1048  Zn1049  1.913   .     S
C1055  O1105   1.283   .     A
C1055  C1066   1.420   .     S
C1055  O1103   1.283   .     A
C1056  O1106   1.283   .     A
C1056  C1065   1.419   .     S
C1056  O1104   1.283   .     A
C1057  H1093   1.079   .     S
C1057  C1086   1.417   .     A
C1057  C1059   1.388   .     A
C1058  C1060   1.390   .     A
C1058  C1085   1.418   .     A
C1058  H1094   1.078   .     S
C1059  H1087   1.084   .     S
C1060  H1088   1.084   .     S
C1060  C526    1.394   1_556 S
C1061  C1066   1.397   .     A
C1061  H1095   1.084   .     S
C1061  C691    1.370   1_565 S
C1062  C1065   1.397   .     A
C1062  H1096   1.084   .     S
C1063  C1065   1.397   .     A
C1063  H1097   1.084   .     S
C1064  C1066   1.397   .     A
C1064  H1098   1.084   .     S
C1064  C690    1.370   1_565 S
C1067  N1102   1.367   .     A
C1067  F1115   1.355   .     S
C1067  C945    1.417   1_655 S
C1068  N1101   1.367   .     A
C1068  F1116   1.355   .     S
C1069  N1101   1.366   .     A
C1069  H1099   1.082   .     S
C1070  N1102   1.366   .     A
C1070  H1100   1.082   .     S
C1070  C944    1.417   1_655 S
C1071  O1109   1.293   .     A
C1071  O1107   1.292   .     A
C1071  C1073   1.457   .     S
C1072  O1110   1.292   .     A
C1072  C1074   1.457   .     S
C1072  O1108   1.294   .     A
C1073  C1077   1.398   .     A
C1073  C1079   1.392   .     A
C1074  C1080   1.390   .     A
C1074  C1078   1.399   .     A
C1075  C1083   1.407   .     A
C1075  F1113   1.358   .     S
C1075  C1077   1.393   .     A
C1076  F1114   1.358   .     S
C1076  C1078   1.396   .     A
C1076  C1084   1.409   .     A
C1077  H1092   1.083   .     S
C1078  H1091   1.083   .     S
C1079  H1090   1.077   .     S
C1079  C1081   1.396   .     A
C1080  C1082   1.393   .     A
C1080  H1089   1.079   .     S
C1081  C1083   1.421   .     A
C1081  C1085   1.419   .     A
C1082  C1084   1.417   .     A
C1082  C1086   1.416   .     A
C1083  C501    1.393   1_556 S
C1085  C528    1.413   1_556 S
N1101  Zn1111  2.010   .     S
N1102  Zn1112  2.010   .     S
O1103  Zn1111  2.000   .     S
O1104  Zn1112  2.000   .     S
O1105  Zn1112  2.000   .     S
O1106  Zn1111  2.000   .     S
O1107  Zn1111  1.965   .     S
O1108  Zn1112  1.965   .     S
O1109  Zn1112  1.913   .     S
O1110  Zn1111  1.913   .     S
