data_str_m3_o10_o17_pcu_sym.31
_audit_creation_date              2020-01-03
_audit_creation_method            'Materials Studio'
_symmetry_space_group_name_H-M    'P1'
_symmetry_Int_Tables_number       1
_symmetry_cell_setting            triclinic
loop_
_symmetry_equiv_pos_as_xyz
  x,y,z
_cell_length_a                    23.2693
_cell_length_b                    25.8584
_cell_length_c                    29.8911
_cell_angle_alpha                 91.6423
_cell_angle_beta                  86.1601
_cell_angle_gamma                 93.4434
loop_
_atom_site_label
_atom_site_type_symbol
_atom_site_fract_x
_atom_site_fract_y
_atom_site_fract_z
_atom_site_U_iso_or_equiv
_atom_site_adp_type
_atom_site_occupancy
C1     C     0.18162   0.26478   0.24863   0.00000  Uiso   1.00
C2     C     0.18778   0.21056   0.40621   0.00000  Uiso   1.00
C3     C     0.16411   0.16785   0.11631   0.00000  Uiso   1.00
C4     C     0.16922   0.16549   0.38369   0.00000  Uiso   1.00
C5     C     0.18269   0.21347   0.09424   0.00000  Uiso   1.00
C6     C     0.15063   0.11987   0.40577   0.00000  Uiso   1.00
C7     C     0.18472   0.21374   0.04708   0.00000  Uiso   1.00
C8     C     0.14859   0.11960   0.45293   0.00000  Uiso   1.00
C9     C     0.16603   0.16743   0.02359   0.00000  Uiso   1.00
C10    C     0.16728   0.16592   0.47641   0.00000  Uiso   1.00
C11    C     0.14604   0.12243   0.04722   0.00000  Uiso   1.00
C12    C     0.15171   0.06855   0.25137   0.00000  Uiso   1.00
C13    C     0.18726   0.21091   0.45278   0.00000  Uiso   1.00
C14    C     0.20512   0.25799   0.02220   0.00000  Uiso   1.00
C15    C     0.12816   0.07536   0.47781   0.00000  Uiso   1.00
C16    C     0.20607   0.25574   0.47598   0.00000  Uiso   1.00
C17    C     0.12721   0.07761   0.02402   0.00000  Uiso   1.00
C18    C     0.18882   0.31871   0.25422   0.00000  Uiso   1.00
C19    C     0.14451   0.01462   0.24578   0.00000  Uiso   1.00
C20    C     0.16748   0.16641   0.33624   0.00000  Uiso   1.00
C21    C     0.16585   0.16693   0.16376   0.00000  Uiso   1.00
C22    C     0.14554   0.12277   0.09380   0.00000  Uiso   1.00
Cl23   Cl    0.12326   0.06660   0.12489   0.00000  Uiso   1.00
Cl24   Cl    0.21006   0.26673   0.37511   0.00000  Uiso   1.00
Cl25   Cl    0.25268   0.00738   0.28065   0.00000  Uiso   1.00
Cl26   Cl    0.08066   0.32595   0.21935   0.00000  Uiso   1.00
H27    H     0.22223   0.29023   0.45848   0.00000  Uiso   1.00
H28    H     0.26180   0.29996   0.06014   0.00000  Uiso   1.00
H29    H     0.07145   0.03344   0.43986   0.00000  Uiso   1.00
H30    H     0.14010   0.01094   0.43808   0.00000  Uiso   1.00
H31    H     0.11103   0.04313   0.04152   0.00000  Uiso   1.00
H32    H     0.00463   0.12745   0.21613   0.00000  Uiso   1.00
H33    H     0.32871   0.20588   0.28387   0.00000  Uiso   1.00
H34    H     0.23361   0.25169   0.13880   0.00000  Uiso   1.00
H35    H     0.16374   0.26842   0.14220   0.00000  Uiso   1.00
H36    H     0.16960   0.06491   0.35781   0.00000  Uiso   1.00
H37    H     0.09973   0.08163   0.36119   0.00000  Uiso   1.00
H38    H     0.19312   0.32239   0.06194   0.00000  Uiso   1.00
N39    N     0.31678   0.15265   0.23783   0.00000  Uiso   1.00
N40    N     0.01656   0.18068   0.26217   0.00000  Uiso   1.00
N41    N     0.19867   0.25911   0.12020   0.00000  Uiso   1.00
N42    N     0.13467   0.07422   0.37980   0.00000  Uiso   1.00
N43    N     0.22616   0.30609   0.04188   0.00000  Uiso   1.00
N44    N     0.10708   0.02727   0.45812   0.00000  Uiso   1.00
O45    O     0.12975   0.24619   0.25298   0.00000  Uiso   1.00
O46    O     0.20358   0.08714   0.24701   0.00000  Uiso   1.00
O47    O     0.22613   0.23721   0.24519   0.00000  Uiso   1.00
O48    O     0.10720   0.09613   0.25481   0.00000  Uiso   1.00
O49    O     0.11847   0.17117   0.31997   0.00000  Uiso   1.00
O50    O     0.21486   0.16216   0.18003   0.00000  Uiso   1.00
O51    O     0.21485   0.16219   0.31217   0.00000  Uiso   1.00
O52    O     0.11848   0.17115   0.18783   0.00000  Uiso   1.00
Zn53   Zn    0.10231   0.17266   0.25521   0.00000  Uiso   1.00
Zn54   Zn    0.23102   0.16067   0.24479   0.00000  Uiso   1.00
C55    C     0.51495   0.26478   0.24863   0.00000  Uiso   1.00
C56    C     0.52111   0.21056   0.40621   0.00000  Uiso   1.00
C57    C     0.49745   0.16785   0.11631   0.00000  Uiso   1.00
C58    C     0.50255   0.16549   0.38369   0.00000  Uiso   1.00
C59    C     0.51602   0.21347   0.09424   0.00000  Uiso   1.00
C60    C     0.48397   0.11987   0.40577   0.00000  Uiso   1.00
C61    C     0.51805   0.21374   0.04708   0.00000  Uiso   1.00
C62    C     0.48192   0.11960   0.45293   0.00000  Uiso   1.00
C63    C     0.49936   0.16743   0.02359   0.00000  Uiso   1.00
C64    C     0.50062   0.16592   0.47641   0.00000  Uiso   1.00
C65    C     0.47938   0.12243   0.04722   0.00000  Uiso   1.00
C66    C     0.48505   0.06855   0.25137   0.00000  Uiso   1.00
C67    C     0.52060   0.21091   0.45278   0.00000  Uiso   1.00
C68    C     0.53845   0.25799   0.02220   0.00000  Uiso   1.00
C69    C     0.46150   0.07536   0.47781   0.00000  Uiso   1.00
C70    C     0.53941   0.25574   0.47598   0.00000  Uiso   1.00
C71    C     0.46054   0.07761   0.02402   0.00000  Uiso   1.00
C72    C     0.52216   0.31871   0.25422   0.00000  Uiso   1.00
C73    C     0.47784   0.01462   0.24578   0.00000  Uiso   1.00
C74    C     0.50082   0.16641   0.33624   0.00000  Uiso   1.00
C75    C     0.49918   0.16693   0.16376   0.00000  Uiso   1.00
C76    C     0.47887   0.12277   0.09380   0.00000  Uiso   1.00
Cl77   Cl    0.45660   0.06660   0.12489   0.00000  Uiso   1.00
Cl78   Cl    0.54339   0.26673   0.37511   0.00000  Uiso   1.00
Cl79   Cl    0.58601   0.00738   0.28065   0.00000  Uiso   1.00
Cl80   Cl    0.41399   0.32595   0.21935   0.00000  Uiso   1.00
H81    H     0.55557   0.29023   0.45848   0.00000  Uiso   1.00
H82    H     0.59513   0.29996   0.06014   0.00000  Uiso   1.00
H83    H     0.40479   0.03344   0.43986   0.00000  Uiso   1.00
H84    H     0.47343   0.01094   0.43808   0.00000  Uiso   1.00
H85    H     0.44437   0.04313   0.04152   0.00000  Uiso   1.00
H86    H     0.33796   0.12745   0.21613   0.00000  Uiso   1.00
H87    H     0.66204   0.20588   0.28387   0.00000  Uiso   1.00
H88    H     0.56694   0.25169   0.13880   0.00000  Uiso   1.00
H89    H     0.49707   0.26842   0.14220   0.00000  Uiso   1.00
H90    H     0.50294   0.06491   0.35781   0.00000  Uiso   1.00
H91    H     0.43306   0.08163   0.36119   0.00000  Uiso   1.00
H92    H     0.52645   0.32239   0.06194   0.00000  Uiso   1.00
N93    N     0.65011   0.15265   0.23783   0.00000  Uiso   1.00
N94    N     0.34989   0.18068   0.26217   0.00000  Uiso   1.00
N95    N     0.53200   0.25911   0.12020   0.00000  Uiso   1.00
N96    N     0.46800   0.07422   0.37980   0.00000  Uiso   1.00
N97    N     0.55949   0.30609   0.04188   0.00000  Uiso   1.00
N98    N     0.44041   0.02727   0.45812   0.00000  Uiso   1.00
O99    O     0.46308   0.24619   0.25298   0.00000  Uiso   1.00
O100   O     0.53692   0.08714   0.24701   0.00000  Uiso   1.00
O101   O     0.55946   0.23721   0.24519   0.00000  Uiso   1.00
O102   O     0.44054   0.09613   0.25481   0.00000  Uiso   1.00
O103   O     0.45181   0.17117   0.31997   0.00000  Uiso   1.00
O104   O     0.54819   0.16216   0.18003   0.00000  Uiso   1.00
O105   O     0.54819   0.16219   0.31217   0.00000  Uiso   1.00
O106   O     0.45181   0.17115   0.18783   0.00000  Uiso   1.00
Zn107  Zn    0.43565   0.17266   0.25521   0.00000  Uiso   1.00
Zn108  Zn    0.56435   0.16067   0.24479   0.00000  Uiso   1.00
C109   C     0.84829   0.26478   0.24863   0.00000  Uiso   1.00
C110   C     0.85445   0.21056   0.40621   0.00000  Uiso   1.00
C111   C     0.83078   0.16785   0.11631   0.00000  Uiso   1.00
C112   C     0.83588   0.16549   0.38369   0.00000  Uiso   1.00
C113   C     0.84936   0.21347   0.09424   0.00000  Uiso   1.00
C114   C     0.81730   0.11987   0.40577   0.00000  Uiso   1.00
C115   C     0.85139   0.21374   0.04708   0.00000  Uiso   1.00
C116   C     0.81525   0.11960   0.45293   0.00000  Uiso   1.00
C117   C     0.83269   0.16743   0.02359   0.00000  Uiso   1.00
C118   C     0.83395   0.16592   0.47641   0.00000  Uiso   1.00
C119   C     0.81271   0.12243   0.04722   0.00000  Uiso   1.00
C120   C     0.81838   0.06855   0.25137   0.00000  Uiso   1.00
C121   C     0.85393   0.21091   0.45278   0.00000  Uiso   1.00
C122   C     0.87179   0.25799   0.02220   0.00000  Uiso   1.00
C123   C     0.79483   0.07536   0.47781   0.00000  Uiso   1.00
C124   C     0.87274   0.25574   0.47598   0.00000  Uiso   1.00
C125   C     0.79388   0.07761   0.02402   0.00000  Uiso   1.00
C126   C     0.85549   0.31871   0.25422   0.00000  Uiso   1.00
C127   C     0.81118   0.01462   0.24578   0.00000  Uiso   1.00
C128   C     0.83415   0.16641   0.33624   0.00000  Uiso   1.00
C129   C     0.83252   0.16693   0.16376   0.00000  Uiso   1.00
C130   C     0.81220   0.12277   0.09380   0.00000  Uiso   1.00
Cl131  Cl    0.78993   0.06660   0.12489   0.00000  Uiso   1.00
Cl132  Cl    0.87672   0.26673   0.37511   0.00000  Uiso   1.00
Cl133  Cl    0.91934   0.00738   0.28065   0.00000  Uiso   1.00
Cl134  Cl    0.74732   0.32595   0.21935   0.00000  Uiso   1.00
H135   H     0.88890   0.29023   0.45848   0.00000  Uiso   1.00
H136   H     0.92847   0.29996   0.06014   0.00000  Uiso   1.00
H137   H     0.73812   0.03344   0.43986   0.00000  Uiso   1.00
H138   H     0.80677   0.01094   0.43808   0.00000  Uiso   1.00
H139   H     0.77770   0.04313   0.04152   0.00000  Uiso   1.00
H140   H     0.67129   0.12745   0.21613   0.00000  Uiso   1.00
H141   H     0.99537   0.20588   0.28387   0.00000  Uiso   1.00
H142   H     0.90028   0.25169   0.13880   0.00000  Uiso   1.00
H143   H     0.83041   0.26842   0.14220   0.00000  Uiso   1.00
H144   H     0.83627   0.06491   0.35781   0.00000  Uiso   1.00
H145   H     0.76640   0.08163   0.36119   0.00000  Uiso   1.00
H146   H     0.85979   0.32239   0.06194   0.00000  Uiso   1.00
N147   N     0.98344   0.15265   0.23783   0.00000  Uiso   1.00
N148   N     0.68322   0.18068   0.26217   0.00000  Uiso   1.00
N149   N     0.86533   0.25911   0.12020   0.00000  Uiso   1.00
N150   N     0.80134   0.07422   0.37980   0.00000  Uiso   1.00
N151   N     0.89283   0.30609   0.04188   0.00000  Uiso   1.00
N152   N     0.77374   0.02727   0.45812   0.00000  Uiso   1.00
O153   O     0.79642   0.24619   0.25298   0.00000  Uiso   1.00
O154   O     0.87025   0.08714   0.24701   0.00000  Uiso   1.00
O155   O     0.89280   0.23721   0.24519   0.00000  Uiso   1.00
O156   O     0.77387   0.09613   0.25481   0.00000  Uiso   1.00
O157   O     0.78514   0.17117   0.31997   0.00000  Uiso   1.00
O158   O     0.88153   0.16216   0.18003   0.00000  Uiso   1.00
O159   O     0.88152   0.16219   0.31217   0.00000  Uiso   1.00
O160   O     0.78515   0.17115   0.18783   0.00000  Uiso   1.00
Zn161  Zn    0.76898   0.17266   0.25521   0.00000  Uiso   1.00
Zn162  Zn    0.89769   0.16067   0.24479   0.00000  Uiso   1.00
C163   C     0.18162   0.59812   0.24863   0.00000  Uiso   1.00
C164   C     0.18778   0.54390   0.40621   0.00000  Uiso   1.00
C165   C     0.16411   0.50118   0.11631   0.00000  Uiso   1.00
C166   C     0.16922   0.49882   0.38369   0.00000  Uiso   1.00
C167   C     0.18269   0.54680   0.09424   0.00000  Uiso   1.00
C168   C     0.15063   0.45320   0.40577   0.00000  Uiso   1.00
C169   C     0.18472   0.54708   0.04708   0.00000  Uiso   1.00
C170   C     0.14859   0.45293   0.45293   0.00000  Uiso   1.00
C171   C     0.16603   0.50076   0.02359   0.00000  Uiso   1.00
C172   C     0.16728   0.49925   0.47641   0.00000  Uiso   1.00
C173   C     0.14604   0.45576   0.04722   0.00000  Uiso   1.00
C174   C     0.15171   0.40188   0.25137   0.00000  Uiso   1.00
C175   C     0.18726   0.54425   0.45278   0.00000  Uiso   1.00
C176   C     0.20512   0.59132   0.02220   0.00000  Uiso   1.00
C177   C     0.12816   0.40869   0.47781   0.00000  Uiso   1.00
C178   C     0.20607   0.58907   0.47598   0.00000  Uiso   1.00
C179   C     0.12721   0.41094   0.02402   0.00000  Uiso   1.00
C180   C     0.18882   0.65204   0.25422   0.00000  Uiso   1.00
C181   C     0.14451   0.34796   0.24578   0.00000  Uiso   1.00
C182   C     0.16748   0.49974   0.33624   0.00000  Uiso   1.00
C183   C     0.16585   0.50026   0.16376   0.00000  Uiso   1.00
C184   C     0.14554   0.45611   0.09380   0.00000  Uiso   1.00
Cl185  Cl    0.12326   0.39994   0.12489   0.00000  Uiso   1.00
Cl186  Cl    0.21006   0.60007   0.37511   0.00000  Uiso   1.00
Cl187  Cl    0.25268   0.34071   0.28065   0.00000  Uiso   1.00
Cl188  Cl    0.08066   0.65929   0.21935   0.00000  Uiso   1.00
H189   H     0.22223   0.62356   0.45848   0.00000  Uiso   1.00
H190   H     0.26180   0.63330   0.06014   0.00000  Uiso   1.00
H191   H     0.07145   0.36677   0.43986   0.00000  Uiso   1.00
H192   H     0.14010   0.34427   0.43808   0.00000  Uiso   1.00
H193   H     0.11103   0.37646   0.04152   0.00000  Uiso   1.00
H194   H     0.00463   0.46079   0.21613   0.00000  Uiso   1.00
H195   H     0.32871   0.53921   0.28387   0.00000  Uiso   1.00
H196   H     0.23361   0.58503   0.13880   0.00000  Uiso   1.00
H197   H     0.16374   0.60175   0.14220   0.00000  Uiso   1.00
H198   H     0.16960   0.39824   0.35781   0.00000  Uiso   1.00
H199   H     0.09973   0.41496   0.36119   0.00000  Uiso   1.00
H200   H     0.19312   0.65572   0.06194   0.00000  Uiso   1.00
N201   N     0.31678   0.48598   0.23783   0.00000  Uiso   1.00
N202   N     0.01656   0.51402   0.26217   0.00000  Uiso   1.00
N203   N     0.19867   0.59244   0.12020   0.00000  Uiso   1.00
N204   N     0.13467   0.40755   0.37980   0.00000  Uiso   1.00
N205   N     0.22616   0.63943   0.04188   0.00000  Uiso   1.00
N206   N     0.10708   0.36061   0.45812   0.00000  Uiso   1.00
O207   O     0.12975   0.57952   0.25298   0.00000  Uiso   1.00
O208   O     0.20358   0.42048   0.24701   0.00000  Uiso   1.00
O209   O     0.22613   0.57054   0.24519   0.00000  Uiso   1.00
O210   O     0.10720   0.42946   0.25481   0.00000  Uiso   1.00
O211   O     0.11847   0.50450   0.31997   0.00000  Uiso   1.00
O212   O     0.21486   0.49550   0.18003   0.00000  Uiso   1.00
O213   O     0.21485   0.49552   0.31217   0.00000  Uiso   1.00
O214   O     0.11848   0.50448   0.18783   0.00000  Uiso   1.00
Zn215  Zn    0.10231   0.50600   0.25521   0.00000  Uiso   1.00
Zn216  Zn    0.23102   0.49400   0.24479   0.00000  Uiso   1.00
C217   C     0.51495   0.59812   0.24863   0.00000  Uiso   1.00
C218   C     0.52111   0.54390   0.40621   0.00000  Uiso   1.00
C219   C     0.49745   0.50118   0.11631   0.00000  Uiso   1.00
C220   C     0.50255   0.49882   0.38369   0.00000  Uiso   1.00
C221   C     0.51602   0.54680   0.09424   0.00000  Uiso   1.00
C222   C     0.48397   0.45320   0.40577   0.00000  Uiso   1.00
C223   C     0.51805   0.54708   0.04708   0.00000  Uiso   1.00
C224   C     0.48192   0.45293   0.45293   0.00000  Uiso   1.00
C225   C     0.49936   0.50076   0.02359   0.00000  Uiso   1.00
C226   C     0.50062   0.49925   0.47641   0.00000  Uiso   1.00
C227   C     0.47938   0.45576   0.04722   0.00000  Uiso   1.00
C228   C     0.48505   0.40188   0.25137   0.00000  Uiso   1.00
C229   C     0.52060   0.54425   0.45278   0.00000  Uiso   1.00
C230   C     0.53845   0.59132   0.02220   0.00000  Uiso   1.00
C231   C     0.46150   0.40869   0.47781   0.00000  Uiso   1.00
C232   C     0.53941   0.58907   0.47598   0.00000  Uiso   1.00
C233   C     0.46054   0.41094   0.02402   0.00000  Uiso   1.00
C234   C     0.52216   0.65204   0.25422   0.00000  Uiso   1.00
C235   C     0.47784   0.34796   0.24578   0.00000  Uiso   1.00
C236   C     0.50082   0.49974   0.33624   0.00000  Uiso   1.00
C237   C     0.49918   0.50026   0.16376   0.00000  Uiso   1.00
C238   C     0.47887   0.45611   0.09380   0.00000  Uiso   1.00
Cl239  Cl    0.45660   0.39994   0.12489   0.00000  Uiso   1.00
Cl240  Cl    0.54339   0.60007   0.37511   0.00000  Uiso   1.00
Cl241  Cl    0.58601   0.34071   0.28065   0.00000  Uiso   1.00
Cl242  Cl    0.41399   0.65929   0.21935   0.00000  Uiso   1.00
H243   H     0.55557   0.62356   0.45848   0.00000  Uiso   1.00
H244   H     0.59513   0.63330   0.06014   0.00000  Uiso   1.00
H245   H     0.40479   0.36677   0.43986   0.00000  Uiso   1.00
H246   H     0.47343   0.34427   0.43808   0.00000  Uiso   1.00
H247   H     0.44437   0.37646   0.04152   0.00000  Uiso   1.00
H248   H     0.33796   0.46079   0.21613   0.00000  Uiso   1.00
H249   H     0.66204   0.53921   0.28387   0.00000  Uiso   1.00
H250   H     0.56694   0.58503   0.13880   0.00000  Uiso   1.00
H251   H     0.49707   0.60175   0.14220   0.00000  Uiso   1.00
H252   H     0.50294   0.39824   0.35781   0.00000  Uiso   1.00
H253   H     0.43306   0.41496   0.36119   0.00000  Uiso   1.00
H254   H     0.52645   0.65572   0.06194   0.00000  Uiso   1.00
N255   N     0.65011   0.48598   0.23783   0.00000  Uiso   1.00
N256   N     0.34989   0.51402   0.26217   0.00000  Uiso   1.00
N257   N     0.53200   0.59244   0.12020   0.00000  Uiso   1.00
N258   N     0.46800   0.40755   0.37980   0.00000  Uiso   1.00
N259   N     0.55949   0.63943   0.04188   0.00000  Uiso   1.00
N260   N     0.44041   0.36061   0.45812   0.00000  Uiso   1.00
O261   O     0.46308   0.57952   0.25298   0.00000  Uiso   1.00
O262   O     0.53692   0.42048   0.24701   0.00000  Uiso   1.00
O263   O     0.55946   0.57054   0.24519   0.00000  Uiso   1.00
O264   O     0.44054   0.42946   0.25481   0.00000  Uiso   1.00
O265   O     0.45181   0.50450   0.31997   0.00000  Uiso   1.00
O266   O     0.54819   0.49550   0.18003   0.00000  Uiso   1.00
O267   O     0.54819   0.49552   0.31217   0.00000  Uiso   1.00
O268   O     0.45181   0.50448   0.18783   0.00000  Uiso   1.00
Zn269  Zn    0.43565   0.50600   0.25521   0.00000  Uiso   1.00
Zn270  Zn    0.56435   0.49400   0.24479   0.00000  Uiso   1.00
C271   C     0.84829   0.59812   0.24863   0.00000  Uiso   1.00
C272   C     0.85445   0.54390   0.40621   0.00000  Uiso   1.00
C273   C     0.83078   0.50118   0.11631   0.00000  Uiso   1.00
C274   C     0.83588   0.49882   0.38369   0.00000  Uiso   1.00
C275   C     0.84936   0.54680   0.09424   0.00000  Uiso   1.00
C276   C     0.81730   0.45320   0.40577   0.00000  Uiso   1.00
C277   C     0.85139   0.54708   0.04708   0.00000  Uiso   1.00
C278   C     0.81525   0.45293   0.45293   0.00000  Uiso   1.00
C279   C     0.83269   0.50076   0.02359   0.00000  Uiso   1.00
C280   C     0.83395   0.49925   0.47641   0.00000  Uiso   1.00
C281   C     0.81271   0.45576   0.04722   0.00000  Uiso   1.00
C282   C     0.81838   0.40188   0.25137   0.00000  Uiso   1.00
C283   C     0.85393   0.54425   0.45278   0.00000  Uiso   1.00
C284   C     0.87179   0.59132   0.02220   0.00000  Uiso   1.00
C285   C     0.79483   0.40869   0.47781   0.00000  Uiso   1.00
C286   C     0.87274   0.58907   0.47598   0.00000  Uiso   1.00
C287   C     0.79388   0.41094   0.02402   0.00000  Uiso   1.00
C288   C     0.85549   0.65204   0.25422   0.00000  Uiso   1.00
C289   C     0.81118   0.34796   0.24578   0.00000  Uiso   1.00
C290   C     0.83415   0.49974   0.33624   0.00000  Uiso   1.00
C291   C     0.83252   0.50026   0.16376   0.00000  Uiso   1.00
C292   C     0.81220   0.45611   0.09380   0.00000  Uiso   1.00
Cl293  Cl    0.78993   0.39994   0.12489   0.00000  Uiso   1.00
Cl294  Cl    0.87672   0.60007   0.37511   0.00000  Uiso   1.00
Cl295  Cl    0.91934   0.34071   0.28065   0.00000  Uiso   1.00
Cl296  Cl    0.74732   0.65929   0.21935   0.00000  Uiso   1.00
H297   H     0.88890   0.62356   0.45848   0.00000  Uiso   1.00
H298   H     0.92847   0.63330   0.06014   0.00000  Uiso   1.00
H299   H     0.73812   0.36677   0.43986   0.00000  Uiso   1.00
H300   H     0.80677   0.34427   0.43808   0.00000  Uiso   1.00
H301   H     0.77770   0.37646   0.04152   0.00000  Uiso   1.00
H302   H     0.67129   0.46079   0.21613   0.00000  Uiso   1.00
H303   H     0.99537   0.53921   0.28387   0.00000  Uiso   1.00
H304   H     0.90028   0.58503   0.13880   0.00000  Uiso   1.00
H305   H     0.83041   0.60175   0.14220   0.00000  Uiso   1.00
H306   H     0.83627   0.39824   0.35781   0.00000  Uiso   1.00
H307   H     0.76640   0.41496   0.36119   0.00000  Uiso   1.00
H308   H     0.85979   0.65572   0.06194   0.00000  Uiso   1.00
N309   N     0.98344   0.48598   0.23783   0.00000  Uiso   1.00
N310   N     0.68322   0.51402   0.26217   0.00000  Uiso   1.00
N311   N     0.86533   0.59244   0.12020   0.00000  Uiso   1.00
N312   N     0.80134   0.40755   0.37980   0.00000  Uiso   1.00
N313   N     0.89283   0.63943   0.04188   0.00000  Uiso   1.00
N314   N     0.77374   0.36061   0.45812   0.00000  Uiso   1.00
O315   O     0.79642   0.57952   0.25298   0.00000  Uiso   1.00
O316   O     0.87025   0.42048   0.24701   0.00000  Uiso   1.00
O317   O     0.89280   0.57054   0.24519   0.00000  Uiso   1.00
O318   O     0.77387   0.42946   0.25481   0.00000  Uiso   1.00
O319   O     0.78514   0.50450   0.31997   0.00000  Uiso   1.00
O320   O     0.88153   0.49550   0.18003   0.00000  Uiso   1.00
O321   O     0.88152   0.49552   0.31217   0.00000  Uiso   1.00
O322   O     0.78515   0.50448   0.18783   0.00000  Uiso   1.00
Zn323  Zn    0.76898   0.50600   0.25521   0.00000  Uiso   1.00
Zn324  Zn    0.89769   0.49400   0.24479   0.00000  Uiso   1.00
C325   C     0.18162   0.93145   0.24863   0.00000  Uiso   1.00
C326   C     0.18778   0.87723   0.40621   0.00000  Uiso   1.00
C327   C     0.16411   0.83451   0.11631   0.00000  Uiso   1.00
C328   C     0.16922   0.83215   0.38369   0.00000  Uiso   1.00
C329   C     0.18269   0.88013   0.09424   0.00000  Uiso   1.00
C330   C     0.15063   0.78654   0.40577   0.00000  Uiso   1.00
C331   C     0.18472   0.88041   0.04708   0.00000  Uiso   1.00
C332   C     0.14859   0.78627   0.45293   0.00000  Uiso   1.00
C333   C     0.16603   0.83409   0.02359   0.00000  Uiso   1.00
C334   C     0.16728   0.83258   0.47641   0.00000  Uiso   1.00
C335   C     0.14604   0.78910   0.04722   0.00000  Uiso   1.00
C336   C     0.15171   0.73522   0.25137   0.00000  Uiso   1.00
C337   C     0.18726   0.87758   0.45278   0.00000  Uiso   1.00
C338   C     0.20512   0.92466   0.02220   0.00000  Uiso   1.00
C339   C     0.12816   0.74203   0.47781   0.00000  Uiso   1.00
C340   C     0.20607   0.92241   0.47598   0.00000  Uiso   1.00
C341   C     0.12721   0.74428   0.02402   0.00000  Uiso   1.00
C342   C     0.18882   0.98538   0.25422   0.00000  Uiso   1.00
C343   C     0.14451   0.68129   0.24578   0.00000  Uiso   1.00
C344   C     0.16748   0.83307   0.33624   0.00000  Uiso   1.00
C345   C     0.16585   0.83359   0.16376   0.00000  Uiso   1.00
C346   C     0.14554   0.78944   0.09380   0.00000  Uiso   1.00
Cl347  Cl    0.12326   0.73327   0.12489   0.00000  Uiso   1.00
Cl348  Cl    0.21006   0.93340   0.37511   0.00000  Uiso   1.00
Cl349  Cl    0.25268   0.67405   0.28065   0.00000  Uiso   1.00
Cl350  Cl    0.08066   0.99262   0.21935   0.00000  Uiso   1.00
H351   H     0.22223   0.95689   0.45848   0.00000  Uiso   1.00
H352   H     0.26180   0.96663   0.06014   0.00000  Uiso   1.00
H353   H     0.07145   0.70010   0.43986   0.00000  Uiso   1.00
H354   H     0.14010   0.67761   0.43808   0.00000  Uiso   1.00
H355   H     0.11103   0.70980   0.04152   0.00000  Uiso   1.00
H356   H     0.00463   0.79412   0.21613   0.00000  Uiso   1.00
H357   H     0.32871   0.87255   0.28387   0.00000  Uiso   1.00
H358   H     0.23361   0.91836   0.13880   0.00000  Uiso   1.00
H359   H     0.16374   0.93509   0.14220   0.00000  Uiso   1.00
H360   H     0.16960   0.73157   0.35781   0.00000  Uiso   1.00
H361   H     0.09973   0.74829   0.36119   0.00000  Uiso   1.00
H362   H     0.19312   0.98906   0.06194   0.00000  Uiso   1.00
N363   N     0.31678   0.81932   0.23783   0.00000  Uiso   1.00
N364   N     0.01656   0.84735   0.26217   0.00000  Uiso   1.00
N365   N     0.19867   0.92578   0.12020   0.00000  Uiso   1.00
N366   N     0.13467   0.74089   0.37980   0.00000  Uiso   1.00
N367   N     0.22616   0.97276   0.04188   0.00000  Uiso   1.00
N368   N     0.10708   0.69394   0.45812   0.00000  Uiso   1.00
O369   O     0.12975   0.91286   0.25298   0.00000  Uiso   1.00
O370   O     0.20358   0.75381   0.24701   0.00000  Uiso   1.00
O371   O     0.22613   0.90387   0.24519   0.00000  Uiso   1.00
O372   O     0.10720   0.76279   0.25481   0.00000  Uiso   1.00
O373   O     0.11847   0.83784   0.31997   0.00000  Uiso   1.00
O374   O     0.21486   0.82883   0.18003   0.00000  Uiso   1.00
O375   O     0.21485   0.82885   0.31217   0.00000  Uiso   1.00
O376   O     0.11848   0.83781   0.18783   0.00000  Uiso   1.00
Zn377  Zn    0.10231   0.83933   0.25521   0.00000  Uiso   1.00
Zn378  Zn    0.23102   0.82734   0.24479   0.00000  Uiso   1.00
C379   C     0.51495   0.93145   0.24863   0.00000  Uiso   1.00
C380   C     0.52111   0.87723   0.40621   0.00000  Uiso   1.00
C381   C     0.49745   0.83451   0.11631   0.00000  Uiso   1.00
C382   C     0.50255   0.83215   0.38369   0.00000  Uiso   1.00
C383   C     0.51602   0.88013   0.09424   0.00000  Uiso   1.00
C384   C     0.48397   0.78654   0.40577   0.00000  Uiso   1.00
C385   C     0.51805   0.88041   0.04708   0.00000  Uiso   1.00
C386   C     0.48192   0.78627   0.45293   0.00000  Uiso   1.00
C387   C     0.49936   0.83409   0.02359   0.00000  Uiso   1.00
C388   C     0.50062   0.83258   0.47641   0.00000  Uiso   1.00
C389   C     0.47938   0.78910   0.04722   0.00000  Uiso   1.00
C390   C     0.48505   0.73522   0.25137   0.00000  Uiso   1.00
C391   C     0.52060   0.87758   0.45278   0.00000  Uiso   1.00
C392   C     0.53845   0.92466   0.02220   0.00000  Uiso   1.00
C393   C     0.46150   0.74203   0.47781   0.00000  Uiso   1.00
C394   C     0.53941   0.92241   0.47598   0.00000  Uiso   1.00
C395   C     0.46054   0.74428   0.02402   0.00000  Uiso   1.00
C396   C     0.52216   0.98538   0.25422   0.00000  Uiso   1.00
C397   C     0.47784   0.68129   0.24578   0.00000  Uiso   1.00
C398   C     0.50082   0.83307   0.33624   0.00000  Uiso   1.00
C399   C     0.49918   0.83359   0.16376   0.00000  Uiso   1.00
C400   C     0.47887   0.78944   0.09380   0.00000  Uiso   1.00
Cl401  Cl    0.45660   0.73327   0.12489   0.00000  Uiso   1.00
Cl402  Cl    0.54339   0.93340   0.37511   0.00000  Uiso   1.00
Cl403  Cl    0.58601   0.67405   0.28065   0.00000  Uiso   1.00
Cl404  Cl    0.41399   0.99262   0.21935   0.00000  Uiso   1.00
H405   H     0.55557   0.95689   0.45848   0.00000  Uiso   1.00
H406   H     0.59513   0.96663   0.06014   0.00000  Uiso   1.00
H407   H     0.40479   0.70010   0.43986   0.00000  Uiso   1.00
H408   H     0.47343   0.67761   0.43808   0.00000  Uiso   1.00
H409   H     0.44437   0.70980   0.04152   0.00000  Uiso   1.00
H410   H     0.33796   0.79412   0.21613   0.00000  Uiso   1.00
H411   H     0.66204   0.87255   0.28387   0.00000  Uiso   1.00
H412   H     0.56694   0.91836   0.13880   0.00000  Uiso   1.00
H413   H     0.49707   0.93509   0.14220   0.00000  Uiso   1.00
H414   H     0.50294   0.73157   0.35781   0.00000  Uiso   1.00
H415   H     0.43306   0.74829   0.36119   0.00000  Uiso   1.00
H416   H     0.52645   0.98906   0.06194   0.00000  Uiso   1.00
N417   N     0.65011   0.81932   0.23783   0.00000  Uiso   1.00
N418   N     0.34989   0.84735   0.26217   0.00000  Uiso   1.00
N419   N     0.53200   0.92578   0.12020   0.00000  Uiso   1.00
N420   N     0.46800   0.74089   0.37980   0.00000  Uiso   1.00
N421   N     0.55949   0.97276   0.04188   0.00000  Uiso   1.00
N422   N     0.44041   0.69394   0.45812   0.00000  Uiso   1.00
O423   O     0.46308   0.91286   0.25298   0.00000  Uiso   1.00
O424   O     0.53692   0.75381   0.24701   0.00000  Uiso   1.00
O425   O     0.55946   0.90387   0.24519   0.00000  Uiso   1.00
O426   O     0.44054   0.76279   0.25481   0.00000  Uiso   1.00
O427   O     0.45181   0.83784   0.31997   0.00000  Uiso   1.00
O428   O     0.54819   0.82883   0.18003   0.00000  Uiso   1.00
O429   O     0.54819   0.82885   0.31217   0.00000  Uiso   1.00
O430   O     0.45181   0.83781   0.18783   0.00000  Uiso   1.00
Zn431  Zn    0.43565   0.83933   0.25521   0.00000  Uiso   1.00
Zn432  Zn    0.56435   0.82734   0.24479   0.00000  Uiso   1.00
C433   C     0.84829   0.93145   0.24863   0.00000  Uiso   1.00
C434   C     0.85445   0.87723   0.40621   0.00000  Uiso   1.00
C435   C     0.83078   0.83451   0.11631   0.00000  Uiso   1.00
C436   C     0.83588   0.83215   0.38369   0.00000  Uiso   1.00
C437   C     0.84936   0.88013   0.09424   0.00000  Uiso   1.00
C438   C     0.81730   0.78654   0.40577   0.00000  Uiso   1.00
C439   C     0.85139   0.88041   0.04708   0.00000  Uiso   1.00
C440   C     0.81525   0.78627   0.45293   0.00000  Uiso   1.00
C441   C     0.83269   0.83409   0.02359   0.00000  Uiso   1.00
C442   C     0.83395   0.83258   0.47641   0.00000  Uiso   1.00
C443   C     0.81271   0.78910   0.04722   0.00000  Uiso   1.00
C444   C     0.81838   0.73522   0.25137   0.00000  Uiso   1.00
C445   C     0.85393   0.87758   0.45278   0.00000  Uiso   1.00
C446   C     0.87179   0.92466   0.02220   0.00000  Uiso   1.00
C447   C     0.79483   0.74203   0.47781   0.00000  Uiso   1.00
C448   C     0.87274   0.92241   0.47598   0.00000  Uiso   1.00
C449   C     0.79388   0.74428   0.02402   0.00000  Uiso   1.00
C450   C     0.85549   0.98538   0.25422   0.00000  Uiso   1.00
C451   C     0.81118   0.68129   0.24578   0.00000  Uiso   1.00
C452   C     0.83415   0.83307   0.33624   0.00000  Uiso   1.00
C453   C     0.83252   0.83359   0.16376   0.00000  Uiso   1.00
C454   C     0.81220   0.78944   0.09380   0.00000  Uiso   1.00
Cl455  Cl    0.78993   0.73327   0.12489   0.00000  Uiso   1.00
Cl456  Cl    0.87672   0.93340   0.37511   0.00000  Uiso   1.00
Cl457  Cl    0.91934   0.67405   0.28065   0.00000  Uiso   1.00
Cl458  Cl    0.74732   0.99262   0.21935   0.00000  Uiso   1.00
H459   H     0.88890   0.95689   0.45848   0.00000  Uiso   1.00
H460   H     0.92847   0.96663   0.06014   0.00000  Uiso   1.00
H461   H     0.73812   0.70010   0.43986   0.00000  Uiso   1.00
H462   H     0.80677   0.67761   0.43808   0.00000  Uiso   1.00
H463   H     0.77770   0.70980   0.04152   0.00000  Uiso   1.00
H464   H     0.67129   0.79412   0.21613   0.00000  Uiso   1.00
H465   H     0.99537   0.87255   0.28387   0.00000  Uiso   1.00
H466   H     0.90028   0.91836   0.13880   0.00000  Uiso   1.00
H467   H     0.83041   0.93509   0.14220   0.00000  Uiso   1.00
H468   H     0.83627   0.73157   0.35781   0.00000  Uiso   1.00
H469   H     0.76640   0.74829   0.36119   0.00000  Uiso   1.00
H470   H     0.85979   0.98906   0.06194   0.00000  Uiso   1.00
N471   N     0.98344   0.81932   0.23783   0.00000  Uiso   1.00
N472   N     0.68322   0.84735   0.26217   0.00000  Uiso   1.00
N473   N     0.86533   0.92578   0.12020   0.00000  Uiso   1.00
N474   N     0.80134   0.74089   0.37980   0.00000  Uiso   1.00
N475   N     0.89283   0.97276   0.04188   0.00000  Uiso   1.00
N476   N     0.77374   0.69394   0.45812   0.00000  Uiso   1.00
O477   O     0.79642   0.91286   0.25298   0.00000  Uiso   1.00
O478   O     0.87025   0.75381   0.24701   0.00000  Uiso   1.00
O479   O     0.89280   0.90387   0.24519   0.00000  Uiso   1.00
O480   O     0.77387   0.76279   0.25481   0.00000  Uiso   1.00
O481   O     0.78514   0.83784   0.31997   0.00000  Uiso   1.00
O482   O     0.88153   0.82883   0.18003   0.00000  Uiso   1.00
O483   O     0.88152   0.82885   0.31217   0.00000  Uiso   1.00
O484   O     0.78515   0.83781   0.18783   0.00000  Uiso   1.00
Zn485  Zn    0.76898   0.83933   0.25521   0.00000  Uiso   1.00
Zn486  Zn    0.89769   0.82734   0.24479   0.00000  Uiso   1.00
C487   C     0.18162   0.26478   0.74863   0.00000  Uiso   1.00
C488   C     0.18778   0.21056   0.90621   0.00000  Uiso   1.00
C489   C     0.16411   0.16785   0.61631   0.00000  Uiso   1.00
C490   C     0.16922   0.16549   0.88369   0.00000  Uiso   1.00
C491   C     0.18269   0.21347   0.59424   0.00000  Uiso   1.00
C492   C     0.15063   0.11987   0.90577   0.00000  Uiso   1.00
C493   C     0.18472   0.21374   0.54708   0.00000  Uiso   1.00
C494   C     0.14859   0.11960   0.95293   0.00000  Uiso   1.00
C495   C     0.16603   0.16743   0.52359   0.00000  Uiso   1.00
C496   C     0.16728   0.16592   0.97641   0.00000  Uiso   1.00
C497   C     0.14604   0.12243   0.54722   0.00000  Uiso   1.00
C498   C     0.15171   0.06855   0.75137   0.00000  Uiso   1.00
C499   C     0.18726   0.21091   0.95278   0.00000  Uiso   1.00
C500   C     0.20512   0.25799   0.52220   0.00000  Uiso   1.00
C501   C     0.12816   0.07536   0.97781   0.00000  Uiso   1.00
C502   C     0.20607   0.25574   0.97598   0.00000  Uiso   1.00
C503   C     0.12721   0.07761   0.52402   0.00000  Uiso   1.00
C504   C     0.18882   0.31871   0.75422   0.00000  Uiso   1.00
C505   C     0.14451   0.01462   0.74578   0.00000  Uiso   1.00
C506   C     0.16748   0.16641   0.83624   0.00000  Uiso   1.00
C507   C     0.16585   0.16693   0.66376   0.00000  Uiso   1.00
C508   C     0.14554   0.12277   0.59380   0.00000  Uiso   1.00
Cl509  Cl    0.12326   0.06660   0.62489   0.00000  Uiso   1.00
Cl510  Cl    0.21006   0.26673   0.87511   0.00000  Uiso   1.00
Cl511  Cl    0.25268   0.00738   0.78065   0.00000  Uiso   1.00
Cl512  Cl    0.08066   0.32595   0.71935   0.00000  Uiso   1.00
H513   H     0.22223   0.29023   0.95848   0.00000  Uiso   1.00
H514   H     0.26180   0.29996   0.56014   0.00000  Uiso   1.00
H515   H     0.07145   0.03344   0.93986   0.00000  Uiso   1.00
H516   H     0.14010   0.01094   0.93808   0.00000  Uiso   1.00
H517   H     0.11103   0.04313   0.54152   0.00000  Uiso   1.00
H518   H     0.00463   0.12745   0.71613   0.00000  Uiso   1.00
H519   H     0.32871   0.20588   0.78387   0.00000  Uiso   1.00
H520   H     0.23361   0.25169   0.63880   0.00000  Uiso   1.00
H521   H     0.16374   0.26842   0.64220   0.00000  Uiso   1.00
H522   H     0.16960   0.06491   0.85781   0.00000  Uiso   1.00
H523   H     0.09973   0.08163   0.86119   0.00000  Uiso   1.00
H524   H     0.19312   0.32239   0.56194   0.00000  Uiso   1.00
N525   N     0.31678   0.15265   0.73783   0.00000  Uiso   1.00
N526   N     0.01656   0.18068   0.76217   0.00000  Uiso   1.00
N527   N     0.19867   0.25911   0.62020   0.00000  Uiso   1.00
N528   N     0.13467   0.07422   0.87980   0.00000  Uiso   1.00
N529   N     0.22616   0.30609   0.54188   0.00000  Uiso   1.00
N530   N     0.10708   0.02727   0.95812   0.00000  Uiso   1.00
O531   O     0.12975   0.24619   0.75298   0.00000  Uiso   1.00
O532   O     0.20358   0.08714   0.74701   0.00000  Uiso   1.00
O533   O     0.22613   0.23721   0.74519   0.00000  Uiso   1.00
O534   O     0.10720   0.09613   0.75481   0.00000  Uiso   1.00
O535   O     0.11847   0.17117   0.81997   0.00000  Uiso   1.00
O536   O     0.21486   0.16216   0.68003   0.00000  Uiso   1.00
O537   O     0.21485   0.16219   0.81217   0.00000  Uiso   1.00
O538   O     0.11848   0.17115   0.68783   0.00000  Uiso   1.00
Zn539  Zn    0.10231   0.17266   0.75521   0.00000  Uiso   1.00
Zn540  Zn    0.23102   0.16067   0.74479   0.00000  Uiso   1.00
C541   C     0.51495   0.26478   0.74863   0.00000  Uiso   1.00
C542   C     0.52111   0.21056   0.90621   0.00000  Uiso   1.00
C543   C     0.49745   0.16785   0.61631   0.00000  Uiso   1.00
C544   C     0.50255   0.16549   0.88369   0.00000  Uiso   1.00
C545   C     0.51602   0.21347   0.59424   0.00000  Uiso   1.00
C546   C     0.48397   0.11987   0.90577   0.00000  Uiso   1.00
C547   C     0.51805   0.21374   0.54708   0.00000  Uiso   1.00
C548   C     0.48192   0.11960   0.95293   0.00000  Uiso   1.00
C549   C     0.49936   0.16743   0.52359   0.00000  Uiso   1.00
C550   C     0.50062   0.16592   0.97641   0.00000  Uiso   1.00
C551   C     0.47938   0.12243   0.54722   0.00000  Uiso   1.00
C552   C     0.48505   0.06855   0.75137   0.00000  Uiso   1.00
C553   C     0.52060   0.21091   0.95278   0.00000  Uiso   1.00
C554   C     0.53845   0.25799   0.52220   0.00000  Uiso   1.00
C555   C     0.46150   0.07536   0.97781   0.00000  Uiso   1.00
C556   C     0.53941   0.25574   0.97598   0.00000  Uiso   1.00
C557   C     0.46054   0.07761   0.52402   0.00000  Uiso   1.00
C558   C     0.52216   0.31871   0.75422   0.00000  Uiso   1.00
C559   C     0.47784   0.01462   0.74578   0.00000  Uiso   1.00
C560   C     0.50082   0.16641   0.83624   0.00000  Uiso   1.00
C561   C     0.49918   0.16693   0.66376   0.00000  Uiso   1.00
C562   C     0.47887   0.12277   0.59380   0.00000  Uiso   1.00
Cl563  Cl    0.45660   0.06660   0.62489   0.00000  Uiso   1.00
Cl564  Cl    0.54339   0.26673   0.87511   0.00000  Uiso   1.00
Cl565  Cl    0.58601   0.00738   0.78065   0.00000  Uiso   1.00
Cl566  Cl    0.41399   0.32595   0.71935   0.00000  Uiso   1.00
H567   H     0.55557   0.29023   0.95848   0.00000  Uiso   1.00
H568   H     0.59513   0.29996   0.56014   0.00000  Uiso   1.00
H569   H     0.40479   0.03344   0.93986   0.00000  Uiso   1.00
H570   H     0.47343   0.01094   0.93808   0.00000  Uiso   1.00
H571   H     0.44437   0.04313   0.54152   0.00000  Uiso   1.00
H572   H     0.33796   0.12745   0.71613   0.00000  Uiso   1.00
H573   H     0.66204   0.20588   0.78387   0.00000  Uiso   1.00
H574   H     0.56694   0.25169   0.63880   0.00000  Uiso   1.00
H575   H     0.49707   0.26842   0.64220   0.00000  Uiso   1.00
H576   H     0.50294   0.06491   0.85781   0.00000  Uiso   1.00
H577   H     0.43306   0.08163   0.86119   0.00000  Uiso   1.00
H578   H     0.52645   0.32239   0.56194   0.00000  Uiso   1.00
N579   N     0.65011   0.15265   0.73783   0.00000  Uiso   1.00
N580   N     0.34989   0.18068   0.76217   0.00000  Uiso   1.00
N581   N     0.53200   0.25911   0.62020   0.00000  Uiso   1.00
N582   N     0.46800   0.07422   0.87980   0.00000  Uiso   1.00
N583   N     0.55949   0.30609   0.54188   0.00000  Uiso   1.00
N584   N     0.44041   0.02727   0.95812   0.00000  Uiso   1.00
O585   O     0.46308   0.24619   0.75298   0.00000  Uiso   1.00
O586   O     0.53692   0.08714   0.74701   0.00000  Uiso   1.00
O587   O     0.55946   0.23721   0.74519   0.00000  Uiso   1.00
O588   O     0.44054   0.09613   0.75481   0.00000  Uiso   1.00
O589   O     0.45181   0.17117   0.81997   0.00000  Uiso   1.00
O590   O     0.54819   0.16216   0.68003   0.00000  Uiso   1.00
O591   O     0.54819   0.16219   0.81217   0.00000  Uiso   1.00
O592   O     0.45181   0.17115   0.68783   0.00000  Uiso   1.00
Zn593  Zn    0.43565   0.17266   0.75521   0.00000  Uiso   1.00
Zn594  Zn    0.56435   0.16067   0.74479   0.00000  Uiso   1.00
C595   C     0.84829   0.26478   0.74863   0.00000  Uiso   1.00
C596   C     0.85445   0.21056   0.90621   0.00000  Uiso   1.00
C597   C     0.83078   0.16785   0.61631   0.00000  Uiso   1.00
C598   C     0.83588   0.16549   0.88369   0.00000  Uiso   1.00
C599   C     0.84936   0.21347   0.59424   0.00000  Uiso   1.00
C600   C     0.81730   0.11987   0.90577   0.00000  Uiso   1.00
C601   C     0.85139   0.21374   0.54708   0.00000  Uiso   1.00
C602   C     0.81525   0.11960   0.95293   0.00000  Uiso   1.00
C603   C     0.83269   0.16743   0.52359   0.00000  Uiso   1.00
C604   C     0.83395   0.16592   0.97641   0.00000  Uiso   1.00
C605   C     0.81271   0.12243   0.54722   0.00000  Uiso   1.00
C606   C     0.81838   0.06855   0.75137   0.00000  Uiso   1.00
C607   C     0.85393   0.21091   0.95278   0.00000  Uiso   1.00
C608   C     0.87179   0.25799   0.52220   0.00000  Uiso   1.00
C609   C     0.79483   0.07536   0.97781   0.00000  Uiso   1.00
C610   C     0.87274   0.25574   0.97598   0.00000  Uiso   1.00
C611   C     0.79388   0.07761   0.52402   0.00000  Uiso   1.00
C612   C     0.85549   0.31871   0.75422   0.00000  Uiso   1.00
C613   C     0.81118   0.01462   0.74578   0.00000  Uiso   1.00
C614   C     0.83415   0.16641   0.83624   0.00000  Uiso   1.00
C615   C     0.83252   0.16693   0.66376   0.00000  Uiso   1.00
C616   C     0.81220   0.12277   0.59380   0.00000  Uiso   1.00
Cl617  Cl    0.78993   0.06660   0.62489   0.00000  Uiso   1.00
Cl618  Cl    0.87672   0.26673   0.87511   0.00000  Uiso   1.00
Cl619  Cl    0.91934   0.00738   0.78065   0.00000  Uiso   1.00
Cl620  Cl    0.74732   0.32595   0.71935   0.00000  Uiso   1.00
H621   H     0.88890   0.29023   0.95848   0.00000  Uiso   1.00
H622   H     0.92847   0.29996   0.56014   0.00000  Uiso   1.00
H623   H     0.73812   0.03344   0.93986   0.00000  Uiso   1.00
H624   H     0.80677   0.01094   0.93808   0.00000  Uiso   1.00
H625   H     0.77770   0.04313   0.54152   0.00000  Uiso   1.00
H626   H     0.67129   0.12745   0.71613   0.00000  Uiso   1.00
H627   H     0.99537   0.20588   0.78387   0.00000  Uiso   1.00
H628   H     0.90028   0.25169   0.63880   0.00000  Uiso   1.00
H629   H     0.83041   0.26842   0.64220   0.00000  Uiso   1.00
H630   H     0.83627   0.06491   0.85781   0.00000  Uiso   1.00
H631   H     0.76640   0.08163   0.86119   0.00000  Uiso   1.00
H632   H     0.85979   0.32239   0.56194   0.00000  Uiso   1.00
N633   N     0.98344   0.15265   0.73783   0.00000  Uiso   1.00
N634   N     0.68322   0.18068   0.76217   0.00000  Uiso   1.00
N635   N     0.86533   0.25911   0.62020   0.00000  Uiso   1.00
N636   N     0.80134   0.07422   0.87980   0.00000  Uiso   1.00
N637   N     0.89283   0.30609   0.54188   0.00000  Uiso   1.00
N638   N     0.77374   0.02727   0.95812   0.00000  Uiso   1.00
O639   O     0.79642   0.24619   0.75298   0.00000  Uiso   1.00
O640   O     0.87025   0.08714   0.74701   0.00000  Uiso   1.00
O641   O     0.89280   0.23721   0.74519   0.00000  Uiso   1.00
O642   O     0.77387   0.09613   0.75481   0.00000  Uiso   1.00
O643   O     0.78514   0.17117   0.81997   0.00000  Uiso   1.00
O644   O     0.88153   0.16216   0.68003   0.00000  Uiso   1.00
O645   O     0.88152   0.16219   0.81217   0.00000  Uiso   1.00
O646   O     0.78515   0.17115   0.68783   0.00000  Uiso   1.00
Zn647  Zn    0.76898   0.17266   0.75521   0.00000  Uiso   1.00
Zn648  Zn    0.89769   0.16067   0.74479   0.00000  Uiso   1.00
C649   C     0.18162   0.59812   0.74863   0.00000  Uiso   1.00
C650   C     0.18778   0.54390   0.90621   0.00000  Uiso   1.00
C651   C     0.16411   0.50118   0.61631   0.00000  Uiso   1.00
C652   C     0.16922   0.49882   0.88369   0.00000  Uiso   1.00
C653   C     0.18269   0.54680   0.59424   0.00000  Uiso   1.00
C654   C     0.15063   0.45320   0.90577   0.00000  Uiso   1.00
C655   C     0.18472   0.54708   0.54708   0.00000  Uiso   1.00
C656   C     0.14859   0.45293   0.95293   0.00000  Uiso   1.00
C657   C     0.16603   0.50076   0.52359   0.00000  Uiso   1.00
C658   C     0.16728   0.49925   0.97641   0.00000  Uiso   1.00
C659   C     0.14604   0.45576   0.54722   0.00000  Uiso   1.00
C660   C     0.15171   0.40188   0.75137   0.00000  Uiso   1.00
C661   C     0.18726   0.54425   0.95278   0.00000  Uiso   1.00
C662   C     0.20512   0.59132   0.52220   0.00000  Uiso   1.00
C663   C     0.12816   0.40869   0.97781   0.00000  Uiso   1.00
C664   C     0.20607   0.58907   0.97598   0.00000  Uiso   1.00
C665   C     0.12721   0.41094   0.52402   0.00000  Uiso   1.00
C666   C     0.18882   0.65204   0.75422   0.00000  Uiso   1.00
C667   C     0.14451   0.34796   0.74578   0.00000  Uiso   1.00
C668   C     0.16748   0.49974   0.83624   0.00000  Uiso   1.00
C669   C     0.16585   0.50026   0.66376   0.00000  Uiso   1.00
C670   C     0.14554   0.45611   0.59380   0.00000  Uiso   1.00
Cl671  Cl    0.12326   0.39994   0.62489   0.00000  Uiso   1.00
Cl672  Cl    0.21006   0.60007   0.87511   0.00000  Uiso   1.00
Cl673  Cl    0.25268   0.34071   0.78065   0.00000  Uiso   1.00
Cl674  Cl    0.08066   0.65929   0.71935   0.00000  Uiso   1.00
H675   H     0.22223   0.62356   0.95848   0.00000  Uiso   1.00
H676   H     0.26180   0.63330   0.56014   0.00000  Uiso   1.00
H677   H     0.07145   0.36677   0.93986   0.00000  Uiso   1.00
H678   H     0.14010   0.34427   0.93808   0.00000  Uiso   1.00
H679   H     0.11103   0.37646   0.54152   0.00000  Uiso   1.00
H680   H     0.00463   0.46079   0.71613   0.00000  Uiso   1.00
H681   H     0.32871   0.53921   0.78387   0.00000  Uiso   1.00
H682   H     0.23361   0.58503   0.63880   0.00000  Uiso   1.00
H683   H     0.16374   0.60175   0.64220   0.00000  Uiso   1.00
H684   H     0.16960   0.39824   0.85781   0.00000  Uiso   1.00
H685   H     0.09973   0.41496   0.86119   0.00000  Uiso   1.00
H686   H     0.19312   0.65572   0.56194   0.00000  Uiso   1.00
N687   N     0.31678   0.48598   0.73783   0.00000  Uiso   1.00
N688   N     0.01656   0.51402   0.76217   0.00000  Uiso   1.00
N689   N     0.19867   0.59244   0.62020   0.00000  Uiso   1.00
N690   N     0.13467   0.40755   0.87980   0.00000  Uiso   1.00
N691   N     0.22616   0.63943   0.54188   0.00000  Uiso   1.00
N692   N     0.10708   0.36061   0.95812   0.00000  Uiso   1.00
O693   O     0.12975   0.57952   0.75298   0.00000  Uiso   1.00
O694   O     0.20358   0.42048   0.74701   0.00000  Uiso   1.00
O695   O     0.22613   0.57054   0.74519   0.00000  Uiso   1.00
O696   O     0.10720   0.42946   0.75481   0.00000  Uiso   1.00
O697   O     0.11847   0.50450   0.81997   0.00000  Uiso   1.00
O698   O     0.21486   0.49550   0.68003   0.00000  Uiso   1.00
O699   O     0.21485   0.49552   0.81217   0.00000  Uiso   1.00
O700   O     0.11848   0.50448   0.68783   0.00000  Uiso   1.00
Zn701  Zn    0.10231   0.50600   0.75521   0.00000  Uiso   1.00
Zn702  Zn    0.23102   0.49400   0.74479   0.00000  Uiso   1.00
C703   C     0.51495   0.59812   0.74863   0.00000  Uiso   1.00
C704   C     0.52111   0.54390   0.90621   0.00000  Uiso   1.00
C705   C     0.49745   0.50118   0.61631   0.00000  Uiso   1.00
C706   C     0.50255   0.49882   0.88369   0.00000  Uiso   1.00
C707   C     0.51602   0.54680   0.59424   0.00000  Uiso   1.00
C708   C     0.48397   0.45320   0.90577   0.00000  Uiso   1.00
C709   C     0.51805   0.54708   0.54708   0.00000  Uiso   1.00
C710   C     0.48192   0.45293   0.95293   0.00000  Uiso   1.00
C711   C     0.49936   0.50076   0.52359   0.00000  Uiso   1.00
C712   C     0.50062   0.49925   0.97641   0.00000  Uiso   1.00
C713   C     0.47938   0.45576   0.54722   0.00000  Uiso   1.00
C714   C     0.48505   0.40188   0.75137   0.00000  Uiso   1.00
C715   C     0.52060   0.54425   0.95278   0.00000  Uiso   1.00
C716   C     0.53845   0.59132   0.52220   0.00000  Uiso   1.00
C717   C     0.46150   0.40869   0.97781   0.00000  Uiso   1.00
C718   C     0.53941   0.58907   0.97598   0.00000  Uiso   1.00
C719   C     0.46054   0.41094   0.52402   0.00000  Uiso   1.00
C720   C     0.52216   0.65204   0.75422   0.00000  Uiso   1.00
C721   C     0.47784   0.34796   0.74578   0.00000  Uiso   1.00
C722   C     0.50082   0.49974   0.83624   0.00000  Uiso   1.00
C723   C     0.49918   0.50026   0.66376   0.00000  Uiso   1.00
C724   C     0.47887   0.45611   0.59380   0.00000  Uiso   1.00
Cl725  Cl    0.45660   0.39994   0.62489   0.00000  Uiso   1.00
Cl726  Cl    0.54339   0.60007   0.87511   0.00000  Uiso   1.00
Cl727  Cl    0.58601   0.34071   0.78065   0.00000  Uiso   1.00
Cl728  Cl    0.41399   0.65929   0.71935   0.00000  Uiso   1.00
H729   H     0.55557   0.62356   0.95848   0.00000  Uiso   1.00
H730   H     0.59513   0.63330   0.56014   0.00000  Uiso   1.00
H731   H     0.40479   0.36677   0.93986   0.00000  Uiso   1.00
H732   H     0.47343   0.34427   0.93808   0.00000  Uiso   1.00
H733   H     0.44437   0.37646   0.54152   0.00000  Uiso   1.00
H734   H     0.33796   0.46079   0.71613   0.00000  Uiso   1.00
H735   H     0.66204   0.53921   0.78387   0.00000  Uiso   1.00
H736   H     0.56694   0.58503   0.63880   0.00000  Uiso   1.00
H737   H     0.49707   0.60175   0.64220   0.00000  Uiso   1.00
H738   H     0.50294   0.39824   0.85781   0.00000  Uiso   1.00
H739   H     0.43306   0.41496   0.86119   0.00000  Uiso   1.00
H740   H     0.52645   0.65572   0.56194   0.00000  Uiso   1.00
N741   N     0.65011   0.48598   0.73783   0.00000  Uiso   1.00
N742   N     0.34989   0.51402   0.76217   0.00000  Uiso   1.00
N743   N     0.53200   0.59244   0.62020   0.00000  Uiso   1.00
N744   N     0.46800   0.40755   0.87980   0.00000  Uiso   1.00
N745   N     0.55949   0.63943   0.54188   0.00000  Uiso   1.00
N746   N     0.44041   0.36061   0.95812   0.00000  Uiso   1.00
O747   O     0.46308   0.57952   0.75298   0.00000  Uiso   1.00
O748   O     0.53692   0.42048   0.74701   0.00000  Uiso   1.00
O749   O     0.55946   0.57054   0.74519   0.00000  Uiso   1.00
O750   O     0.44054   0.42946   0.75481   0.00000  Uiso   1.00
O751   O     0.45181   0.50450   0.81997   0.00000  Uiso   1.00
O752   O     0.54819   0.49550   0.68003   0.00000  Uiso   1.00
O753   O     0.54819   0.49552   0.81217   0.00000  Uiso   1.00
O754   O     0.45181   0.50448   0.68783   0.00000  Uiso   1.00
Zn755  Zn    0.43565   0.50600   0.75521   0.00000  Uiso   1.00
Zn756  Zn    0.56435   0.49400   0.74479   0.00000  Uiso   1.00
C757   C     0.84829   0.59812   0.74863   0.00000  Uiso   1.00
C758   C     0.85445   0.54390   0.90621   0.00000  Uiso   1.00
C759   C     0.83078   0.50118   0.61631   0.00000  Uiso   1.00
C760   C     0.83588   0.49882   0.88369   0.00000  Uiso   1.00
C761   C     0.84936   0.54680   0.59424   0.00000  Uiso   1.00
C762   C     0.81730   0.45320   0.90577   0.00000  Uiso   1.00
C763   C     0.85139   0.54708   0.54708   0.00000  Uiso   1.00
C764   C     0.81525   0.45293   0.95293   0.00000  Uiso   1.00
C765   C     0.83269   0.50076   0.52359   0.00000  Uiso   1.00
C766   C     0.83395   0.49925   0.97641   0.00000  Uiso   1.00
C767   C     0.81271   0.45576   0.54722   0.00000  Uiso   1.00
C768   C     0.81838   0.40188   0.75137   0.00000  Uiso   1.00
C769   C     0.85393   0.54425   0.95278   0.00000  Uiso   1.00
C770   C     0.87179   0.59132   0.52220   0.00000  Uiso   1.00
C771   C     0.79483   0.40869   0.97781   0.00000  Uiso   1.00
C772   C     0.87274   0.58907   0.97598   0.00000  Uiso   1.00
C773   C     0.79388   0.41094   0.52402   0.00000  Uiso   1.00
C774   C     0.85549   0.65204   0.75422   0.00000  Uiso   1.00
C775   C     0.81118   0.34796   0.74578   0.00000  Uiso   1.00
C776   C     0.83415   0.49974   0.83624   0.00000  Uiso   1.00
C777   C     0.83252   0.50026   0.66376   0.00000  Uiso   1.00
C778   C     0.81220   0.45611   0.59380   0.00000  Uiso   1.00
Cl779  Cl    0.78993   0.39994   0.62489   0.00000  Uiso   1.00
Cl780  Cl    0.87672   0.60007   0.87511   0.00000  Uiso   1.00
Cl781  Cl    0.91934   0.34071   0.78065   0.00000  Uiso   1.00
Cl782  Cl    0.74732   0.65929   0.71935   0.00000  Uiso   1.00
H783   H     0.88890   0.62356   0.95848   0.00000  Uiso   1.00
H784   H     0.92847   0.63330   0.56014   0.00000  Uiso   1.00
H785   H     0.73812   0.36677   0.93986   0.00000  Uiso   1.00
H786   H     0.80677   0.34427   0.93808   0.00000  Uiso   1.00
H787   H     0.77770   0.37646   0.54152   0.00000  Uiso   1.00
H788   H     0.67129   0.46079   0.71613   0.00000  Uiso   1.00
H789   H     0.99537   0.53921   0.78387   0.00000  Uiso   1.00
H790   H     0.90028   0.58503   0.63880   0.00000  Uiso   1.00
H791   H     0.83041   0.60175   0.64220   0.00000  Uiso   1.00
H792   H     0.83627   0.39824   0.85781   0.00000  Uiso   1.00
H793   H     0.76640   0.41496   0.86119   0.00000  Uiso   1.00
H794   H     0.85979   0.65572   0.56194   0.00000  Uiso   1.00
N795   N     0.98344   0.48598   0.73783   0.00000  Uiso   1.00
N796   N     0.68322   0.51402   0.76217   0.00000  Uiso   1.00
N797   N     0.86533   0.59244   0.62020   0.00000  Uiso   1.00
N798   N     0.80134   0.40755   0.87980   0.00000  Uiso   1.00
N799   N     0.89283   0.63943   0.54188   0.00000  Uiso   1.00
N800   N     0.77374   0.36061   0.95812   0.00000  Uiso   1.00
O801   O     0.79642   0.57952   0.75298   0.00000  Uiso   1.00
O802   O     0.87025   0.42048   0.74701   0.00000  Uiso   1.00
O803   O     0.89280   0.57054   0.74519   0.00000  Uiso   1.00
O804   O     0.77387   0.42946   0.75481   0.00000  Uiso   1.00
O805   O     0.78514   0.50450   0.81997   0.00000  Uiso   1.00
O806   O     0.88153   0.49550   0.68003   0.00000  Uiso   1.00
O807   O     0.88152   0.49552   0.81217   0.00000  Uiso   1.00
O808   O     0.78515   0.50448   0.68783   0.00000  Uiso   1.00
Zn809  Zn    0.76898   0.50600   0.75521   0.00000  Uiso   1.00
Zn810  Zn    0.89769   0.49400   0.74479   0.00000  Uiso   1.00
C811   C     0.18162   0.93145   0.74863   0.00000  Uiso   1.00
C812   C     0.18778   0.87723   0.90621   0.00000  Uiso   1.00
C813   C     0.16411   0.83451   0.61631   0.00000  Uiso   1.00
C814   C     0.16922   0.83215   0.88369   0.00000  Uiso   1.00
C815   C     0.18269   0.88013   0.59424   0.00000  Uiso   1.00
C816   C     0.15063   0.78654   0.90577   0.00000  Uiso   1.00
C817   C     0.18472   0.88041   0.54708   0.00000  Uiso   1.00
C818   C     0.14859   0.78627   0.95293   0.00000  Uiso   1.00
C819   C     0.16603   0.83409   0.52359   0.00000  Uiso   1.00
C820   C     0.16728   0.83258   0.97641   0.00000  Uiso   1.00
C821   C     0.14604   0.78910   0.54722   0.00000  Uiso   1.00
C822   C     0.15171   0.73522   0.75137   0.00000  Uiso   1.00
C823   C     0.18726   0.87758   0.95278   0.00000  Uiso   1.00
C824   C     0.20512   0.92466   0.52220   0.00000  Uiso   1.00
C825   C     0.12816   0.74203   0.97781   0.00000  Uiso   1.00
C826   C     0.20607   0.92241   0.97598   0.00000  Uiso   1.00
C827   C     0.12721   0.74428   0.52402   0.00000  Uiso   1.00
C828   C     0.18882   0.98538   0.75422   0.00000  Uiso   1.00
C829   C     0.14451   0.68129   0.74578   0.00000  Uiso   1.00
C830   C     0.16748   0.83307   0.83624   0.00000  Uiso   1.00
C831   C     0.16585   0.83359   0.66376   0.00000  Uiso   1.00
C832   C     0.14554   0.78944   0.59380   0.00000  Uiso   1.00
Cl833  Cl    0.12326   0.73327   0.62489   0.00000  Uiso   1.00
Cl834  Cl    0.21006   0.93340   0.87511   0.00000  Uiso   1.00
Cl835  Cl    0.25268   0.67405   0.78065   0.00000  Uiso   1.00
Cl836  Cl    0.08066   0.99262   0.71935   0.00000  Uiso   1.00
H837   H     0.22223   0.95689   0.95848   0.00000  Uiso   1.00
H838   H     0.26180   0.96663   0.56014   0.00000  Uiso   1.00
H839   H     0.07145   0.70010   0.93986   0.00000  Uiso   1.00
H840   H     0.14010   0.67761   0.93808   0.00000  Uiso   1.00
H841   H     0.11103   0.70980   0.54152   0.00000  Uiso   1.00
H842   H     0.00463   0.79412   0.71613   0.00000  Uiso   1.00
H843   H     0.32871   0.87255   0.78387   0.00000  Uiso   1.00
H844   H     0.23361   0.91836   0.63880   0.00000  Uiso   1.00
H845   H     0.16374   0.93509   0.64220   0.00000  Uiso   1.00
H846   H     0.16960   0.73157   0.85781   0.00000  Uiso   1.00
H847   H     0.09973   0.74829   0.86119   0.00000  Uiso   1.00
H848   H     0.19312   0.98906   0.56194   0.00000  Uiso   1.00
N849   N     0.31678   0.81932   0.73783   0.00000  Uiso   1.00
N850   N     0.01656   0.84735   0.76217   0.00000  Uiso   1.00
N851   N     0.19867   0.92578   0.62020   0.00000  Uiso   1.00
N852   N     0.13467   0.74089   0.87980   0.00000  Uiso   1.00
N853   N     0.22616   0.97276   0.54188   0.00000  Uiso   1.00
N854   N     0.10708   0.69394   0.95812   0.00000  Uiso   1.00
O855   O     0.12975   0.91286   0.75298   0.00000  Uiso   1.00
O856   O     0.20358   0.75381   0.74701   0.00000  Uiso   1.00
O857   O     0.22613   0.90387   0.74519   0.00000  Uiso   1.00
O858   O     0.10720   0.76279   0.75481   0.00000  Uiso   1.00
O859   O     0.11847   0.83784   0.81997   0.00000  Uiso   1.00
O860   O     0.21486   0.82883   0.68003   0.00000  Uiso   1.00
O861   O     0.21485   0.82885   0.81217   0.00000  Uiso   1.00
O862   O     0.11848   0.83781   0.68783   0.00000  Uiso   1.00
Zn863  Zn    0.10231   0.83933   0.75521   0.00000  Uiso   1.00
Zn864  Zn    0.23102   0.82734   0.74479   0.00000  Uiso   1.00
C865   C     0.51495   0.93145   0.74863   0.00000  Uiso   1.00
C866   C     0.52111   0.87723   0.90621   0.00000  Uiso   1.00
C867   C     0.49745   0.83451   0.61631   0.00000  Uiso   1.00
C868   C     0.50255   0.83215   0.88369   0.00000  Uiso   1.00
C869   C     0.51602   0.88013   0.59424   0.00000  Uiso   1.00
C870   C     0.48397   0.78654   0.90577   0.00000  Uiso   1.00
C871   C     0.51805   0.88041   0.54708   0.00000  Uiso   1.00
C872   C     0.48192   0.78627   0.95293   0.00000  Uiso   1.00
C873   C     0.49936   0.83409   0.52359   0.00000  Uiso   1.00
C874   C     0.50062   0.83258   0.97641   0.00000  Uiso   1.00
C875   C     0.47938   0.78910   0.54722   0.00000  Uiso   1.00
C876   C     0.48505   0.73522   0.75137   0.00000  Uiso   1.00
C877   C     0.52060   0.87758   0.95278   0.00000  Uiso   1.00
C878   C     0.53845   0.92466   0.52220   0.00000  Uiso   1.00
C879   C     0.46150   0.74203   0.97781   0.00000  Uiso   1.00
C880   C     0.53941   0.92241   0.97598   0.00000  Uiso   1.00
C881   C     0.46054   0.74428   0.52402   0.00000  Uiso   1.00
C882   C     0.52216   0.98538   0.75422   0.00000  Uiso   1.00
C883   C     0.47784   0.68129   0.74578   0.00000  Uiso   1.00
C884   C     0.50082   0.83307   0.83624   0.00000  Uiso   1.00
C885   C     0.49918   0.83359   0.66376   0.00000  Uiso   1.00
C886   C     0.47887   0.78944   0.59380   0.00000  Uiso   1.00
Cl887  Cl    0.45660   0.73327   0.62489   0.00000  Uiso   1.00
Cl888  Cl    0.54339   0.93340   0.87511   0.00000  Uiso   1.00
Cl889  Cl    0.58601   0.67405   0.78065   0.00000  Uiso   1.00
Cl890  Cl    0.41399   0.99262   0.71935   0.00000  Uiso   1.00
H891   H     0.55557   0.95689   0.95848   0.00000  Uiso   1.00
H892   H     0.59513   0.96663   0.56014   0.00000  Uiso   1.00
H893   H     0.40479   0.70010   0.93986   0.00000  Uiso   1.00
H894   H     0.47343   0.67761   0.93808   0.00000  Uiso   1.00
H895   H     0.44437   0.70980   0.54152   0.00000  Uiso   1.00
H896   H     0.33796   0.79412   0.71613   0.00000  Uiso   1.00
H897   H     0.66204   0.87255   0.78387   0.00000  Uiso   1.00
H898   H     0.56694   0.91836   0.63880   0.00000  Uiso   1.00
H899   H     0.49707   0.93509   0.64220   0.00000  Uiso   1.00
H900   H     0.50294   0.73157   0.85781   0.00000  Uiso   1.00
H901   H     0.43306   0.74829   0.86119   0.00000  Uiso   1.00
H902   H     0.52645   0.98906   0.56194   0.00000  Uiso   1.00
N903   N     0.65011   0.81932   0.73783   0.00000  Uiso   1.00
N904   N     0.34989   0.84735   0.76217   0.00000  Uiso   1.00
N905   N     0.53200   0.92578   0.62020   0.00000  Uiso   1.00
N906   N     0.46800   0.74089   0.87980   0.00000  Uiso   1.00
N907   N     0.55949   0.97276   0.54188   0.00000  Uiso   1.00
N908   N     0.44041   0.69394   0.95812   0.00000  Uiso   1.00
O909   O     0.46308   0.91286   0.75298   0.00000  Uiso   1.00
O910   O     0.53692   0.75381   0.74701   0.00000  Uiso   1.00
O911   O     0.55946   0.90387   0.74519   0.00000  Uiso   1.00
O912   O     0.44054   0.76279   0.75481   0.00000  Uiso   1.00
O913   O     0.45181   0.83784   0.81997   0.00000  Uiso   1.00
O914   O     0.54819   0.82883   0.68003   0.00000  Uiso   1.00
O915   O     0.54819   0.82885   0.81217   0.00000  Uiso   1.00
O916   O     0.45181   0.83781   0.68783   0.00000  Uiso   1.00
Zn917  Zn    0.43565   0.83933   0.75521   0.00000  Uiso   1.00
Zn918  Zn    0.56435   0.82734   0.74479   0.00000  Uiso   1.00
C919   C     0.84829   0.93145   0.74863   0.00000  Uiso   1.00
C920   C     0.85445   0.87723   0.90621   0.00000  Uiso   1.00
C921   C     0.83078   0.83451   0.61631   0.00000  Uiso   1.00
C922   C     0.83588   0.83215   0.88369   0.00000  Uiso   1.00
C923   C     0.84936   0.88013   0.59424   0.00000  Uiso   1.00
C924   C     0.81730   0.78654   0.90577   0.00000  Uiso   1.00
C925   C     0.85139   0.88041   0.54708   0.00000  Uiso   1.00
C926   C     0.81525   0.78627   0.95293   0.00000  Uiso   1.00
C927   C     0.83269   0.83409   0.52359   0.00000  Uiso   1.00
C928   C     0.83395   0.83258   0.97641   0.00000  Uiso   1.00
C929   C     0.81271   0.78910   0.54722   0.00000  Uiso   1.00
C930   C     0.81838   0.73522   0.75137   0.00000  Uiso   1.00
C931   C     0.85393   0.87758   0.95278   0.00000  Uiso   1.00
C932   C     0.87179   0.92466   0.52220   0.00000  Uiso   1.00
C933   C     0.79483   0.74203   0.97781   0.00000  Uiso   1.00
C934   C     0.87274   0.92241   0.97598   0.00000  Uiso   1.00
C935   C     0.79388   0.74428   0.52402   0.00000  Uiso   1.00
C936   C     0.85549   0.98538   0.75422   0.00000  Uiso   1.00
C937   C     0.81118   0.68129   0.74578   0.00000  Uiso   1.00
C938   C     0.83415   0.83307   0.83624   0.00000  Uiso   1.00
C939   C     0.83252   0.83359   0.66376   0.00000  Uiso   1.00
C940   C     0.81220   0.78944   0.59380   0.00000  Uiso   1.00
Cl941  Cl    0.78993   0.73327   0.62489   0.00000  Uiso   1.00
Cl942  Cl    0.87672   0.93340   0.87511   0.00000  Uiso   1.00
Cl943  Cl    0.91934   0.67405   0.78065   0.00000  Uiso   1.00
Cl944  Cl    0.74732   0.99262   0.71935   0.00000  Uiso   1.00
H945   H     0.88890   0.95689   0.95848   0.00000  Uiso   1.00
H946   H     0.92847   0.96663   0.56014   0.00000  Uiso   1.00
H947   H     0.73812   0.70010   0.93986   0.00000  Uiso   1.00
H948   H     0.80677   0.67761   0.93808   0.00000  Uiso   1.00
H949   H     0.77770   0.70980   0.54152   0.00000  Uiso   1.00
H950   H     0.67129   0.79412   0.71613   0.00000  Uiso   1.00
H951   H     0.99537   0.87255   0.78387   0.00000  Uiso   1.00
H952   H     0.90028   0.91836   0.63880   0.00000  Uiso   1.00
H953   H     0.83041   0.93509   0.64220   0.00000  Uiso   1.00
H954   H     0.83627   0.73157   0.85781   0.00000  Uiso   1.00
H955   H     0.76640   0.74829   0.86119   0.00000  Uiso   1.00
H956   H     0.85979   0.98906   0.56194   0.00000  Uiso   1.00
N957   N     0.98344   0.81932   0.73783   0.00000  Uiso   1.00
N958   N     0.68322   0.84735   0.76217   0.00000  Uiso   1.00
N959   N     0.86533   0.92578   0.62020   0.00000  Uiso   1.00
N960   N     0.80134   0.74089   0.87980   0.00000  Uiso   1.00
N961   N     0.89283   0.97276   0.54188   0.00000  Uiso   1.00
N962   N     0.77374   0.69394   0.95812   0.00000  Uiso   1.00
O963   O     0.79642   0.91286   0.75298   0.00000  Uiso   1.00
O964   O     0.87025   0.75381   0.74701   0.00000  Uiso   1.00
O965   O     0.89280   0.90387   0.74519   0.00000  Uiso   1.00
O966   O     0.77387   0.76279   0.75481   0.00000  Uiso   1.00
O967   O     0.78514   0.83784   0.81997   0.00000  Uiso   1.00
O968   O     0.88153   0.82883   0.68003   0.00000  Uiso   1.00
O969   O     0.88152   0.82885   0.81217   0.00000  Uiso   1.00
O970   O     0.78515   0.83781   0.68783   0.00000  Uiso   1.00
Zn971  Zn    0.76898   0.83933   0.75521   0.00000  Uiso   1.00
Zn972  Zn    0.89769   0.82734   0.74479   0.00000  Uiso   1.00
loop_
_geom_bond_atom_site_label_1
_geom_bond_atom_site_label_2
_geom_bond_distance
_geom_bond_site_symmetry_2
_ccdc_geom_bond_type
C1     O45     1.272   .     A
C1     C18     1.401   .     S
C1     O47     1.289   .     A
C2     C4      1.390   .     A
C2     Cl24    1.779   .     S
C2     C13     1.391   .     A
C3     C21     1.422   .     S
C3     C22     1.390   .     A
C3     C5      1.400   .     A
C4     C6      1.400   .     A
C4     C20     1.422   .     S
C5     C7      1.408   .     A
C5     N41     1.438   .     S
C6     N42     1.438   .     S
C6     C8      1.408   .     A
C7     C9      1.431   .     A
C7     C14     1.423   .     A
C8     C15     1.423   .     A
C8     C10     1.431   .     A
C9     C11     1.417   .     A
C9     C496    1.408   1_554 S
C10    C13     1.417   .     A
C10    C495    1.408   .     S
C11    C22     1.391   .     A
C11    C17     1.396   .     A
C12    O48     1.289   .     A
C12    C19     1.401   .     S
C12    O46     1.272   .     A
C13    C16     1.396   .     A
C14    N43     1.434   .     S
C14    C502    1.380   1_554 S
C15    N44     1.434   .     S
C15    C503    1.380   .     S
C16    H27     1.082   .     S
C16    C500    1.380   .     S
C17    H31     1.082   .     S
C17    C501    1.380   1_554 S
C18    C181    1.356   .     S
C18    Cl187   1.785   .     S
C19    C342    1.356   1_545 S
C19    Cl350   1.785   1_545 S
C20    O49     1.283   .     A
C20    O51     1.284   .     A
C21    O50     1.283   .     A
C21    O52     1.284   .     A
C22    Cl23    1.779   .     S
Cl25   C342    1.785   1_545 S
Cl26   C181    1.785   .     S
H28    N43     1.045   .     S
H29    N44     1.045   .     S
H30    N44     1.044   .     S
H32    N147    1.029   1_455 S
H33    N94     1.029   .     S
H34    N41     1.045   .     S
H35    N41     1.046   .     S
H36    N42     1.046   .     S
H37    N42     1.045   .     S
H38    N43     1.044   .     S
N39    Zn54    2.015   .     S
N39    H86     1.029   .     S
N39    N94     1.275   .     S
N40    Zn53    2.015   .     S
N40    H141    1.029   1_455 S
N40    N147    1.275   1_455 S
O45    Zn53    1.970   .     S
O46    Zn54    1.970   .     S
O47    Zn54    1.989   .     S
O48    Zn53    1.989   .     S
O49    Zn53    1.999   .     S
O50    Zn54    1.999   .     S
O51    Zn54    2.024   .     S
O52    Zn53    2.024   .     S
C55    O99     1.272   .     A
C55    C72     1.401   .     S
C55    O101    1.289   .     A
C56    C58     1.390   .     A
C56    Cl78    1.779   .     S
C56    C67     1.391   .     A
C57    C75     1.422   .     S
C57    C76     1.390   .     A
C57    C59     1.400   .     A
C58    C60     1.400   .     A
C58    C74     1.422   .     S
C59    C61     1.408   .     A
C59    N95     1.438   .     S
C60    N96     1.438   .     S
C60    C62     1.408   .     A
C61    C63     1.431   .     A
C61    C68     1.423   .     A
C62    C69     1.423   .     A
C62    C64     1.431   .     A
C63    C65     1.417   .     A
C63    C550    1.408   1_554 S
C64    C67     1.417   .     A
C64    C549    1.408   .     S
C65    C76     1.391   .     A
C65    C71     1.396   .     A
C66    O102    1.289   .     A
C66    C73     1.401   .     S
C66    O100    1.272   .     A
C67    C70     1.396   .     A
C68    N97     1.434   .     S
C68    C556    1.380   1_554 S
C69    N98     1.434   .     S
C69    C557    1.380   .     S
C70    H81     1.082   .     S
C70    C554    1.380   .     S
C71    H85     1.082   .     S
C71    C555    1.380   1_554 S
C72    C235    1.356   .     S
C72    Cl241   1.785   .     S
C73    C396    1.356   1_545 S
C73    Cl404   1.785   1_545 S
C74    O103    1.283   .     A
C74    O105    1.284   .     A
C75    O104    1.283   .     A
C75    O106    1.284   .     A
C76    Cl77    1.779   .     S
Cl79   C396    1.785   1_545 S
Cl80   C235    1.785   .     S
H82    N97     1.045   .     S
H83    N98     1.045   .     S
H84    N98     1.044   .     S
H87    N148    1.029   .     S
H88    N95     1.045   .     S
H89    N95     1.046   .     S
H90    N96     1.046   .     S
H91    N96     1.045   .     S
H92    N97     1.044   .     S
N93    Zn108   2.015   .     S
N93    H140    1.029   .     S
N93    N148    1.275   .     S
N94    Zn107   2.015   .     S
O99    Zn107   1.970   .     S
O100   Zn108   1.970   .     S
O101   Zn108   1.989   .     S
O102   Zn107   1.989   .     S
O103   Zn107   1.999   .     S
O104   Zn108   1.999   .     S
O105   Zn108   2.024   .     S
O106   Zn107   2.024   .     S
C109   O153    1.272   .     A
C109   C126    1.401   .     S
C109   O155    1.289   .     A
C110   C112    1.390   .     A
C110   Cl132   1.779   .     S
C110   C121    1.391   .     A
C111   C129    1.422   .     S
C111   C130    1.390   .     A
C111   C113    1.400   .     A
C112   C114    1.400   .     A
C112   C128    1.422   .     S
C113   C115    1.408   .     A
C113   N149    1.438   .     S
C114   N150    1.438   .     S
C114   C116    1.408   .     A
C115   C117    1.431   .     A
C115   C122    1.423   .     A
C116   C123    1.423   .     A
C116   C118    1.431   .     A
C117   C119    1.417   .     A
C117   C604    1.408   1_554 S
C118   C121    1.417   .     A
C118   C603    1.408   .     S
C119   C130    1.391   .     A
C119   C125    1.396   .     A
C120   O156    1.289   .     A
C120   C127    1.401   .     S
C120   O154    1.272   .     A
C121   C124    1.396   .     A
C122   N151    1.434   .     S
C122   C610    1.380   1_554 S
C123   N152    1.434   .     S
C123   C611    1.380   .     S
C124   H135    1.082   .     S
C124   C608    1.380   .     S
C125   H139    1.082   .     S
C125   C609    1.380   1_554 S
C126   C289    1.356   .     S
C126   Cl295   1.785   .     S
C127   C450    1.356   1_545 S
C127   Cl458   1.785   1_545 S
C128   O157    1.283   .     A
C128   O159    1.284   .     A
C129   O158    1.283   .     A
C129   O160    1.284   .     A
C130   Cl131   1.779   .     S
Cl133  C450    1.785   1_545 S
Cl134  C289    1.785   .     S
H136   N151    1.045   .     S
H137   N152    1.045   .     S
H138   N152    1.044   .     S
H141   N40     1.029   1_655 S
H142   N149    1.045   .     S
H143   N149    1.046   .     S
H144   N150    1.046   .     S
H145   N150    1.045   .     S
H146   N151    1.044   .     S
N147   Zn162   2.015   .     S
N147   H32     1.029   1_655 S
N147   N40     1.275   1_655 S
N148   Zn161   2.015   .     S
O153   Zn161   1.970   .     S
O154   Zn162   1.970   .     S
O155   Zn162   1.989   .     S
O156   Zn161   1.989   .     S
O157   Zn161   1.999   .     S
O158   Zn162   1.999   .     S
O159   Zn162   2.024   .     S
O160   Zn161   2.024   .     S
C163   O207    1.272   .     A
C163   C180    1.401   .     S
C163   O209    1.289   .     A
C164   C166    1.390   .     A
C164   Cl186   1.779   .     S
C164   C175    1.391   .     A
C165   C183    1.422   .     S
C165   C184    1.390   .     A
C165   C167    1.400   .     A
C166   C168    1.400   .     A
C166   C182    1.422   .     S
C167   C169    1.408   .     A
C167   N203    1.438   .     S
C168   N204    1.438   .     S
C168   C170    1.408   .     A
C169   C171    1.431   .     A
C169   C176    1.423   .     A
C170   C177    1.423   .     A
C170   C172    1.431   .     A
C171   C173    1.417   .     A
C171   C658    1.408   1_554 S
C172   C175    1.417   .     A
C172   C657    1.408   .     S
C173   C184    1.391   .     A
C173   C179    1.396   .     A
C174   O210    1.289   .     A
C174   C181    1.401   .     S
C174   O208    1.272   .     A
C175   C178    1.396   .     A
C176   N205    1.434   .     S
C176   C664    1.380   1_554 S
C177   N206    1.434   .     S
C177   C665    1.380   .     S
C178   H189    1.082   .     S
C178   C662    1.380   .     S
C179   H193    1.082   .     S
C179   C663    1.380   1_554 S
C180   C343    1.356   .     S
C180   Cl349   1.785   .     S
C182   O211    1.283   .     A
C182   O213    1.284   .     A
C183   O212    1.283   .     A
C183   O214    1.284   .     A
C184   Cl185   1.779   .     S
Cl188  C343    1.785   .     S
H190   N205    1.045   .     S
H191   N206    1.045   .     S
H192   N206    1.044   .     S
H194   N309    1.029   1_455 S
H195   N256    1.029   .     S
H196   N203    1.045   .     S
H197   N203    1.046   .     S
H198   N204    1.046   .     S
H199   N204    1.045   .     S
H200   N205    1.044   .     S
N201   Zn216   2.015   .     S
N201   H248    1.029   .     S
N201   N256    1.275   .     S
N202   Zn215   2.015   .     S
N202   H303    1.029   1_455 S
N202   N309    1.275   1_455 S
O207   Zn215   1.970   .     S
O208   Zn216   1.970   .     S
O209   Zn216   1.989   .     S
O210   Zn215   1.989   .     S
O211   Zn215   1.999   .     S
O212   Zn216   1.999   .     S
O213   Zn216   2.024   .     S
O214   Zn215   2.024   .     S
C217   O261    1.272   .     A
C217   C234    1.401   .     S
C217   O263    1.289   .     A
C218   C220    1.390   .     A
C218   Cl240   1.779   .     S
C218   C229    1.391   .     A
C219   C237    1.422   .     S
C219   C238    1.390   .     A
C219   C221    1.400   .     A
C220   C222    1.400   .     A
C220   C236    1.422   .     S
C221   C223    1.408   .     A
C221   N257    1.438   .     S
C222   N258    1.438   .     S
C222   C224    1.408   .     A
C223   C225    1.431   .     A
C223   C230    1.423   .     A
C224   C231    1.423   .     A
C224   C226    1.431   .     A
C225   C227    1.417   .     A
C225   C712    1.408   1_554 S
C226   C229    1.417   .     A
C226   C711    1.408   .     S
C227   C238    1.391   .     A
C227   C233    1.396   .     A
C228   O264    1.289   .     A
C228   C235    1.401   .     S
C228   O262    1.272   .     A
C229   C232    1.396   .     A
C230   N259    1.434   .     S
C230   C718    1.380   1_554 S
C231   N260    1.434   .     S
C231   C719    1.380   .     S
C232   H243    1.082   .     S
C232   C716    1.380   .     S
C233   H247    1.082   .     S
C233   C717    1.380   1_554 S
C234   C397    1.356   .     S
C234   Cl403   1.785   .     S
C236   O265    1.283   .     A
C236   O267    1.284   .     A
C237   O266    1.283   .     A
C237   O268    1.284   .     A
C238   Cl239   1.779   .     S
Cl242  C397    1.785   .     S
H244   N259    1.045   .     S
H245   N260    1.045   .     S
H246   N260    1.044   .     S
H249   N310    1.029   .     S
H250   N257    1.045   .     S
H251   N257    1.046   .     S
H252   N258    1.046   .     S
H253   N258    1.045   .     S
H254   N259    1.044   .     S
N255   Zn270   2.015   .     S
N255   H302    1.029   .     S
N255   N310    1.275   .     S
N256   Zn269   2.015   .     S
O261   Zn269   1.970   .     S
O262   Zn270   1.970   .     S
O263   Zn270   1.989   .     S
O264   Zn269   1.989   .     S
O265   Zn269   1.999   .     S
O266   Zn270   1.999   .     S
O267   Zn270   2.024   .     S
O268   Zn269   2.024   .     S
C271   O315    1.272   .     A
C271   C288    1.401   .     S
C271   O317    1.289   .     A
C272   C274    1.390   .     A
C272   Cl294   1.779   .     S
C272   C283    1.391   .     A
C273   C291    1.422   .     S
C273   C292    1.390   .     A
C273   C275    1.400   .     A
C274   C276    1.400   .     A
C274   C290    1.422   .     S
C275   C277    1.408   .     A
C275   N311    1.438   .     S
C276   N312    1.438   .     S
C276   C278    1.408   .     A
C277   C279    1.431   .     A
C277   C284    1.423   .     A
C278   C285    1.423   .     A
C278   C280    1.431   .     A
C279   C281    1.417   .     A
C279   C766    1.408   1_554 S
C280   C283    1.417   .     A
C280   C765    1.408   .     S
C281   C292    1.391   .     A
C281   C287    1.396   .     A
C282   O318    1.289   .     A
C282   C289    1.401   .     S
C282   O316    1.272   .     A
C283   C286    1.396   .     A
C284   N313    1.434   .     S
C284   C772    1.380   1_554 S
C285   N314    1.434   .     S
C285   C773    1.380   .     S
C286   H297    1.082   .     S
C286   C770    1.380   .     S
C287   H301    1.082   .     S
C287   C771    1.380   1_554 S
C288   C451    1.356   .     S
C288   Cl457   1.785   .     S
C290   O319    1.283   .     A
C290   O321    1.284   .     A
C291   O320    1.283   .     A
C291   O322    1.284   .     A
C292   Cl293   1.779   .     S
Cl296  C451    1.785   .     S
H298   N313    1.045   .     S
H299   N314    1.045   .     S
H300   N314    1.044   .     S
H303   N202    1.029   1_655 S
H304   N311    1.045   .     S
H305   N311    1.046   .     S
H306   N312    1.046   .     S
H307   N312    1.045   .     S
H308   N313    1.044   .     S
N309   Zn324   2.015   .     S
N309   H194    1.029   1_655 S
N309   N202    1.275   1_655 S
N310   Zn323   2.015   .     S
O315   Zn323   1.970   .     S
O316   Zn324   1.970   .     S
O317   Zn324   1.989   .     S
O318   Zn323   1.989   .     S
O319   Zn323   1.999   .     S
O320   Zn324   1.999   .     S
O321   Zn324   2.024   .     S
O322   Zn323   2.024   .     S
C325   O369    1.272   .     A
C325   C342    1.401   .     S
C325   O371    1.289   .     A
C326   C328    1.390   .     A
C326   Cl348   1.779   .     S
C326   C337    1.391   .     A
C327   C345    1.422   .     S
C327   C346    1.390   .     A
C327   C329    1.400   .     A
C328   C330    1.400   .     A
C328   C344    1.422   .     S
C329   C331    1.408   .     A
C329   N365    1.438   .     S
C330   N366    1.438   .     S
C330   C332    1.408   .     A
C331   C333    1.431   .     A
C331   C338    1.423   .     A
C332   C339    1.423   .     A
C332   C334    1.431   .     A
C333   C335    1.417   .     A
C333   C820    1.408   1_554 S
C334   C337    1.417   .     A
C334   C819    1.408   .     S
C335   C346    1.391   .     A
C335   C341    1.396   .     A
C336   O372    1.289   .     A
C336   C343    1.401   .     S
C336   O370    1.272   .     A
C337   C340    1.396   .     A
C338   N367    1.434   .     S
C338   C826    1.380   1_554 S
C339   N368    1.434   .     S
C339   C827    1.380   .     S
C340   H351    1.082   .     S
C340   C824    1.380   .     S
C341   H355    1.082   .     S
C341   C825    1.380   1_554 S
C342   C19     1.356   1_565 S
C342   Cl25    1.785   1_565 S
C344   O373    1.283   .     A
C344   O375    1.284   .     A
C345   O374    1.283   .     A
C345   O376    1.284   .     A
C346   Cl347   1.779   .     S
Cl350  C19     1.785   1_565 S
H352   N367    1.045   .     S
H353   N368    1.045   .     S
H354   N368    1.044   .     S
H356   N471    1.029   1_455 S
H357   N418    1.029   .     S
H358   N365    1.045   .     S
H359   N365    1.046   .     S
H360   N366    1.046   .     S
H361   N366    1.045   .     S
H362   N367    1.044   .     S
N363   Zn378   2.015   .     S
N363   H410    1.029   .     S
N363   N418    1.275   .     S
N364   Zn377   2.015   .     S
N364   H465    1.029   1_455 S
N364   N471    1.275   1_455 S
O369   Zn377   1.970   .     S
O370   Zn378   1.970   .     S
O371   Zn378   1.989   .     S
O372   Zn377   1.989   .     S
O373   Zn377   1.999   .     S
O374   Zn378   1.999   .     S
O375   Zn378   2.024   .     S
O376   Zn377   2.024   .     S
C379   O423    1.272   .     A
C379   C396    1.401   .     S
C379   O425    1.289   .     A
C380   C382    1.390   .     A
C380   Cl402   1.779   .     S
C380   C391    1.391   .     A
C381   C399    1.422   .     S
C381   C400    1.390   .     A
C381   C383    1.400   .     A
C382   C384    1.400   .     A
C382   C398    1.422   .     S
C383   C385    1.408   .     A
C383   N419    1.438   .     S
C384   N420    1.438   .     S
C384   C386    1.408   .     A
C385   C387    1.431   .     A
C385   C392    1.423   .     A
C386   C393    1.423   .     A
C386   C388    1.431   .     A
C387   C389    1.417   .     A
C387   C874    1.408   1_554 S
C388   C391    1.417   .     A
C388   C873    1.408   .     S
C389   C400    1.391   .     A
C389   C395    1.396   .     A
C390   O426    1.289   .     A
C390   C397    1.401   .     S
C390   O424    1.272   .     A
C391   C394    1.396   .     A
C392   N421    1.434   .     S
C392   C880    1.380   1_554 S
C393   N422    1.434   .     S
C393   C881    1.380   .     S
C394   H405    1.082   .     S
C394   C878    1.380   .     S
C395   H409    1.082   .     S
C395   C879    1.380   1_554 S
C396   C73     1.356   1_565 S
C396   Cl79    1.785   1_565 S
C398   O427    1.283   .     A
C398   O429    1.284   .     A
C399   O428    1.283   .     A
C399   O430    1.284   .     A
C400   Cl401   1.779   .     S
Cl404  C73     1.785   1_565 S
H406   N421    1.045   .     S
H407   N422    1.045   .     S
H408   N422    1.044   .     S
H411   N472    1.029   .     S
H412   N419    1.045   .     S
H413   N419    1.046   .     S
H414   N420    1.046   .     S
H415   N420    1.045   .     S
H416   N421    1.044   .     S
N417   Zn432   2.015   .     S
N417   H464    1.029   .     S
N417   N472    1.275   .     S
N418   Zn431   2.015   .     S
O423   Zn431   1.970   .     S
O424   Zn432   1.970   .     S
O425   Zn432   1.989   .     S
O426   Zn431   1.989   .     S
O427   Zn431   1.999   .     S
O428   Zn432   1.999   .     S
O429   Zn432   2.024   .     S
O430   Zn431   2.024   .     S
C433   O477    1.272   .     A
C433   C450    1.401   .     S
C433   O479    1.289   .     A
C434   C436    1.390   .     A
C434   Cl456   1.779   .     S
C434   C445    1.391   .     A
C435   C453    1.422   .     S
C435   C454    1.390   .     A
C435   C437    1.400   .     A
C436   C438    1.400   .     A
C436   C452    1.422   .     S
C437   C439    1.408   .     A
C437   N473    1.438   .     S
C438   N474    1.438   .     S
C438   C440    1.408   .     A
C439   C441    1.431   .     A
C439   C446    1.423   .     A
C440   C447    1.423   .     A
C440   C442    1.431   .     A
C441   C443    1.417   .     A
C441   C928    1.408   1_554 S
C442   C445    1.417   .     A
C442   C927    1.408   .     S
C443   C454    1.391   .     A
C443   C449    1.396   .     A
C444   O480    1.289   .     A
C444   C451    1.401   .     S
C444   O478    1.272   .     A
C445   C448    1.396   .     A
C446   N475    1.434   .     S
C446   C934    1.380   1_554 S
C447   N476    1.434   .     S
C447   C935    1.380   .     S
C448   H459    1.082   .     S
C448   C932    1.380   .     S
C449   H463    1.082   .     S
C449   C933    1.380   1_554 S
C450   C127    1.356   1_565 S
C450   Cl133   1.785   1_565 S
C452   O481    1.283   .     A
C452   O483    1.284   .     A
C453   O482    1.283   .     A
C453   O484    1.284   .     A
C454   Cl455   1.779   .     S
Cl458  C127    1.785   1_565 S
H460   N475    1.045   .     S
H461   N476    1.045   .     S
H462   N476    1.044   .     S
H465   N364    1.029   1_655 S
H466   N473    1.045   .     S
H467   N473    1.046   .     S
H468   N474    1.046   .     S
H469   N474    1.045   .     S
H470   N475    1.044   .     S
N471   Zn486   2.015   .     S
N471   H356    1.029   1_655 S
N471   N364    1.275   1_655 S
N472   Zn485   2.015   .     S
O477   Zn485   1.970   .     S
O478   Zn486   1.970   .     S
O479   Zn486   1.989   .     S
O480   Zn485   1.989   .     S
O481   Zn485   1.999   .     S
O482   Zn486   1.999   .     S
O483   Zn486   2.024   .     S
O484   Zn485   2.024   .     S
C487   O531    1.272   .     A
C487   C504    1.401   .     S
C487   O533    1.289   .     A
C488   C490    1.390   .     A
C488   Cl510   1.779   .     S
C488   C499    1.391   .     A
C489   C507    1.422   .     S
C489   C508    1.390   .     A
C489   C491    1.400   .     A
C490   C492    1.400   .     A
C490   C506    1.422   .     S
C491   C493    1.408   .     A
C491   N527    1.438   .     S
C492   N528    1.438   .     S
C492   C494    1.408   .     A
C493   C495    1.431   .     A
C493   C500    1.423   .     A
C494   C501    1.423   .     A
C494   C496    1.431   .     A
C495   C497    1.417   .     A
C496   C499    1.417   .     A
C496   C9      1.408   1_556 S
C497   C508    1.391   .     A
C497   C503    1.396   .     A
C498   O534    1.289   .     A
C498   C505    1.401   .     S
C498   O532    1.272   .     A
C499   C502    1.396   .     A
C500   N529    1.434   .     S
C501   N530    1.434   .     S
C501   C17     1.380   1_556 S
C502   H513    1.082   .     S
C502   C14     1.380   1_556 S
C503   H517    1.082   .     S
C504   C667    1.356   .     S
C504   Cl673   1.785   .     S
C505   C828    1.356   1_545 S
C505   Cl836   1.785   1_545 S
C506   O535    1.283   .     A
C506   O537    1.284   .     A
C507   O536    1.283   .     A
C507   O538    1.284   .     A
C508   Cl509   1.779   .     S
Cl511  C828    1.785   1_545 S
Cl512  C667    1.785   .     S
H514   N529    1.045   .     S
H515   N530    1.045   .     S
H516   N530    1.044   .     S
H518   N633    1.029   1_455 S
H519   N580    1.029   .     S
H520   N527    1.045   .     S
H521   N527    1.046   .     S
H522   N528    1.046   .     S
H523   N528    1.045   .     S
H524   N529    1.044   .     S
N525   Zn540   2.015   .     S
N525   H572    1.029   .     S
N525   N580    1.275   .     S
N526   Zn539   2.015   .     S
N526   H627    1.029   1_455 S
N526   N633    1.275   1_455 S
O531   Zn539   1.970   .     S
O532   Zn540   1.970   .     S
O533   Zn540   1.989   .     S
O534   Zn539   1.989   .     S
O535   Zn539   1.999   .     S
O536   Zn540   1.999   .     S
O537   Zn540   2.024   .     S
O538   Zn539   2.024   .     S
C541   O585    1.272   .     A
C541   C558    1.401   .     S
C541   O587    1.289   .     A
C542   C544    1.390   .     A
C542   Cl564   1.779   .     S
C542   C553    1.391   .     A
C543   C561    1.422   .     S
C543   C562    1.390   .     A
C543   C545    1.400   .     A
C544   C546    1.400   .     A
C544   C560    1.422   .     S
C545   C547    1.408   .     A
C545   N581    1.438   .     S
C546   N582    1.438   .     S
C546   C548    1.408   .     A
C547   C549    1.431   .     A
C547   C554    1.423   .     A
C548   C555    1.423   .     A
C548   C550    1.431   .     A
C549   C551    1.417   .     A
C550   C553    1.417   .     A
C550   C63     1.408   1_556 S
C551   C562    1.391   .     A
C551   C557    1.396   .     A
C552   O588    1.289   .     A
C552   C559    1.401   .     S
C552   O586    1.272   .     A
C553   C556    1.396   .     A
C554   N583    1.434   .     S
C555   N584    1.434   .     S
C555   C71     1.380   1_556 S
C556   H567    1.082   .     S
C556   C68     1.380   1_556 S
C557   H571    1.082   .     S
C558   C721    1.356   .     S
C558   Cl727   1.785   .     S
C559   C882    1.356   1_545 S
C559   Cl890   1.785   1_545 S
C560   O589    1.283   .     A
C560   O591    1.284   .     A
C561   O590    1.283   .     A
C561   O592    1.284   .     A
C562   Cl563   1.779   .     S
Cl565  C882    1.785   1_545 S
Cl566  C721    1.785   .     S
H568   N583    1.045   .     S
H569   N584    1.045   .     S
H570   N584    1.044   .     S
H573   N634    1.029   .     S
H574   N581    1.045   .     S
H575   N581    1.046   .     S
H576   N582    1.046   .     S
H577   N582    1.045   .     S
H578   N583    1.044   .     S
N579   Zn594   2.015   .     S
N579   H626    1.029   .     S
N579   N634    1.275   .     S
N580   Zn593   2.015   .     S
O585   Zn593   1.970   .     S
O586   Zn594   1.970   .     S
O587   Zn594   1.989   .     S
O588   Zn593   1.989   .     S
O589   Zn593   1.999   .     S
O590   Zn594   1.999   .     S
O591   Zn594   2.024   .     S
O592   Zn593   2.024   .     S
C595   O639    1.272   .     A
C595   C612    1.401   .     S
C595   O641    1.289   .     A
C596   C598    1.390   .     A
C596   Cl618   1.779   .     S
C596   C607    1.391   .     A
C597   C615    1.422   .     S
C597   C616    1.390   .     A
C597   C599    1.400   .     A
C598   C600    1.400   .     A
C598   C614    1.422   .     S
C599   C601    1.408   .     A
C599   N635    1.438   .     S
C600   N636    1.438   .     S
C600   C602    1.408   .     A
C601   C603    1.431   .     A
C601   C608    1.423   .     A
C602   C609    1.423   .     A
C602   C604    1.431   .     A
C603   C605    1.417   .     A
C604   C607    1.417   .     A
C604   C117    1.408   1_556 S
C605   C616    1.391   .     A
C605   C611    1.396   .     A
C606   O642    1.289   .     A
C606   C613    1.401   .     S
C606   O640    1.272   .     A
C607   C610    1.396   .     A
C608   N637    1.434   .     S
C609   N638    1.434   .     S
C609   C125    1.380   1_556 S
C610   H621    1.082   .     S
C610   C122    1.380   1_556 S
C611   H625    1.082   .     S
C612   C775    1.356   .     S
C612   Cl781   1.785   .     S
C613   C936    1.356   1_545 S
C613   Cl944   1.785   1_545 S
C614   O643    1.283   .     A
C614   O645    1.284   .     A
C615   O644    1.283   .     A
C615   O646    1.284   .     A
C616   Cl617   1.779   .     S
Cl619  C936    1.785   1_545 S
Cl620  C775    1.785   .     S
H622   N637    1.045   .     S
H623   N638    1.045   .     S
H624   N638    1.044   .     S
H627   N526    1.029   1_655 S
H628   N635    1.045   .     S
H629   N635    1.046   .     S
H630   N636    1.046   .     S
H631   N636    1.045   .     S
H632   N637    1.044   .     S
N633   Zn648   2.015   .     S
N633   H518    1.029   1_655 S
N633   N526    1.275   1_655 S
N634   Zn647   2.015   .     S
O639   Zn647   1.970   .     S
O640   Zn648   1.970   .     S
O641   Zn648   1.989   .     S
O642   Zn647   1.989   .     S
O643   Zn647   1.999   .     S
O644   Zn648   1.999   .     S
O645   Zn648   2.024   .     S
O646   Zn647   2.024   .     S
C649   O693    1.272   .     A
C649   C666    1.401   .     S
C649   O695    1.289   .     A
C650   C652    1.390   .     A
C650   Cl672   1.779   .     S
C650   C661    1.391   .     A
C651   C669    1.422   .     S
C651   C670    1.390   .     A
C651   C653    1.400   .     A
C652   C654    1.400   .     A
C652   C668    1.422   .     S
C653   C655    1.408   .     A
C653   N689    1.438   .     S
C654   N690    1.438   .     S
C654   C656    1.408   .     A
C655   C657    1.431   .     A
C655   C662    1.423   .     A
C656   C663    1.423   .     A
C656   C658    1.431   .     A
C657   C659    1.417   .     A
C658   C661    1.417   .     A
C658   C171    1.408   1_556 S
C659   C670    1.391   .     A
C659   C665    1.396   .     A
C660   O696    1.289   .     A
C660   C667    1.401   .     S
C660   O694    1.272   .     A
C661   C664    1.396   .     A
C662   N691    1.434   .     S
C663   N692    1.434   .     S
C663   C179    1.380   1_556 S
C664   H675    1.082   .     S
C664   C176    1.380   1_556 S
C665   H679    1.082   .     S
C666   C829    1.356   .     S
C666   Cl835   1.785   .     S
C668   O697    1.283   .     A
C668   O699    1.284   .     A
C669   O698    1.283   .     A
C669   O700    1.284   .     A
C670   Cl671   1.779   .     S
Cl674  C829    1.785   .     S
H676   N691    1.045   .     S
H677   N692    1.045   .     S
H678   N692    1.044   .     S
H680   N795    1.029   1_455 S
H681   N742    1.029   .     S
H682   N689    1.045   .     S
H683   N689    1.046   .     S
H684   N690    1.046   .     S
H685   N690    1.045   .     S
H686   N691    1.044   .     S
N687   Zn702   2.015   .     S
N687   H734    1.029   .     S
N687   N742    1.275   .     S
N688   Zn701   2.015   .     S
N688   H789    1.029   1_455 S
N688   N795    1.275   1_455 S
O693   Zn701   1.970   .     S
O694   Zn702   1.970   .     S
O695   Zn702   1.989   .     S
O696   Zn701   1.989   .     S
O697   Zn701   1.999   .     S
O698   Zn702   1.999   .     S
O699   Zn702   2.024   .     S
O700   Zn701   2.024   .     S
C703   O747    1.272   .     A
C703   C720    1.401   .     S
C703   O749    1.289   .     A
C704   C706    1.390   .     A
C704   Cl726   1.779   .     S
C704   C715    1.391   .     A
C705   C723    1.422   .     S
C705   C724    1.390   .     A
C705   C707    1.400   .     A
C706   C708    1.400   .     A
C706   C722    1.422   .     S
C707   C709    1.408   .     A
C707   N743    1.438   .     S
C708   N744    1.438   .     S
C708   C710    1.408   .     A
C709   C711    1.431   .     A
C709   C716    1.423   .     A
C710   C717    1.423   .     A
C710   C712    1.431   .     A
C711   C713    1.417   .     A
C712   C715    1.417   .     A
C712   C225    1.408   1_556 S
C713   C724    1.391   .     A
C713   C719    1.396   .     A
C714   O750    1.289   .     A
C714   C721    1.401   .     S
C714   O748    1.272   .     A
C715   C718    1.396   .     A
C716   N745    1.434   .     S
C717   N746    1.434   .     S
C717   C233    1.380   1_556 S
C718   H729    1.082   .     S
C718   C230    1.380   1_556 S
C719   H733    1.082   .     S
C720   C883    1.356   .     S
C720   Cl889   1.785   .     S
C722   O751    1.283   .     A
C722   O753    1.284   .     A
C723   O752    1.283   .     A
C723   O754    1.284   .     A
C724   Cl725   1.779   .     S
Cl728  C883    1.785   .     S
H730   N745    1.045   .     S
H731   N746    1.045   .     S
H732   N746    1.044   .     S
H735   N796    1.029   .     S
H736   N743    1.045   .     S
H737   N743    1.046   .     S
H738   N744    1.046   .     S
H739   N744    1.045   .     S
H740   N745    1.044   .     S
N741   Zn756   2.015   .     S
N741   H788    1.029   .     S
N741   N796    1.275   .     S
N742   Zn755   2.015   .     S
O747   Zn755   1.970   .     S
O748   Zn756   1.970   .     S
O749   Zn756   1.989   .     S
O750   Zn755   1.989   .     S
O751   Zn755   1.999   .     S
O752   Zn756   1.999   .     S
O753   Zn756   2.024   .     S
O754   Zn755   2.024   .     S
C757   O801    1.272   .     A
C757   C774    1.401   .     S
C757   O803    1.289   .     A
C758   C760    1.390   .     A
C758   Cl780   1.779   .     S
C758   C769    1.391   .     A
C759   C777    1.422   .     S
C759   C778    1.390   .     A
C759   C761    1.400   .     A
C760   C762    1.400   .     A
C760   C776    1.422   .     S
C761   C763    1.408   .     A
C761   N797    1.438   .     S
C762   N798    1.438   .     S
C762   C764    1.408   .     A
C763   C765    1.431   .     A
C763   C770    1.423   .     A
C764   C771    1.423   .     A
C764   C766    1.431   .     A
C765   C767    1.417   .     A
C766   C769    1.417   .     A
C766   C279    1.408   1_556 S
C767   C778    1.391   .     A
C767   C773    1.396   .     A
C768   O804    1.289   .     A
C768   C775    1.401   .     S
C768   O802    1.272   .     A
C769   C772    1.396   .     A
C770   N799    1.434   .     S
C771   N800    1.434   .     S
C771   C287    1.380   1_556 S
C772   H783    1.082   .     S
C772   C284    1.380   1_556 S
C773   H787    1.082   .     S
C774   C937    1.356   .     S
C774   Cl943   1.785   .     S
C776   O805    1.283   .     A
C776   O807    1.284   .     A
C777   O806    1.283   .     A
C777   O808    1.284   .     A
C778   Cl779   1.779   .     S
Cl782  C937    1.785   .     S
H784   N799    1.045   .     S
H785   N800    1.045   .     S
H786   N800    1.044   .     S
H789   N688    1.029   1_655 S
H790   N797    1.045   .     S
H791   N797    1.046   .     S
H792   N798    1.046   .     S
H793   N798    1.045   .     S
H794   N799    1.044   .     S
N795   Zn810   2.015   .     S
N795   H680    1.029   1_655 S
N795   N688    1.275   1_655 S
N796   Zn809   2.015   .     S
O801   Zn809   1.970   .     S
O802   Zn810   1.970   .     S
O803   Zn810   1.989   .     S
O804   Zn809   1.989   .     S
O805   Zn809   1.999   .     S
O806   Zn810   1.999   .     S
O807   Zn810   2.024   .     S
O808   Zn809   2.024   .     S
C811   O855    1.272   .     A
C811   C828    1.401   .     S
C811   O857    1.289   .     A
C812   C814    1.390   .     A
C812   Cl834   1.779   .     S
C812   C823    1.391   .     A
C813   C831    1.422   .     S
C813   C832    1.390   .     A
C813   C815    1.400   .     A
C814   C816    1.400   .     A
C814   C830    1.422   .     S
C815   C817    1.408   .     A
C815   N851    1.438   .     S
C816   N852    1.438   .     S
C816   C818    1.408   .     A
C817   C819    1.431   .     A
C817   C824    1.423   .     A
C818   C825    1.423   .     A
C818   C820    1.431   .     A
C819   C821    1.417   .     A
C820   C823    1.417   .     A
C820   C333    1.408   1_556 S
C821   C832    1.391   .     A
C821   C827    1.396   .     A
C822   O858    1.289   .     A
C822   C829    1.401   .     S
C822   O856    1.272   .     A
C823   C826    1.396   .     A
C824   N853    1.434   .     S
C825   N854    1.434   .     S
C825   C341    1.380   1_556 S
C826   H837    1.082   .     S
C826   C338    1.380   1_556 S
C827   H841    1.082   .     S
C828   C505    1.356   1_565 S
C828   Cl511   1.785   1_565 S
C830   O859    1.283   .     A
C830   O861    1.284   .     A
C831   O860    1.283   .     A
C831   O862    1.284   .     A
C832   Cl833   1.779   .     S
Cl836  C505    1.785   1_565 S
H838   N853    1.045   .     S
H839   N854    1.045   .     S
H840   N854    1.044   .     S
H842   N957    1.029   1_455 S
H843   N904    1.029   .     S
H844   N851    1.045   .     S
H845   N851    1.046   .     S
H846   N852    1.046   .     S
H847   N852    1.045   .     S
H848   N853    1.044   .     S
N849   Zn864   2.015   .     S
N849   H896    1.029   .     S
N849   N904    1.275   .     S
N850   Zn863   2.015   .     S
N850   H951    1.029   1_455 S
N850   N957    1.275   1_455 S
O855   Zn863   1.970   .     S
O856   Zn864   1.970   .     S
O857   Zn864   1.989   .     S
O858   Zn863   1.989   .     S
O859   Zn863   1.999   .     S
O860   Zn864   1.999   .     S
O861   Zn864   2.024   .     S
O862   Zn863   2.024   .     S
C865   O909    1.272   .     A
C865   C882    1.401   .     S
C865   O911    1.289   .     A
C866   C868    1.390   .     A
C866   Cl888   1.779   .     S
C866   C877    1.391   .     A
C867   C885    1.422   .     S
C867   C886    1.390   .     A
C867   C869    1.400   .     A
C868   C870    1.400   .     A
C868   C884    1.422   .     S
C869   C871    1.408   .     A
C869   N905    1.438   .     S
C870   N906    1.438   .     S
C870   C872    1.408   .     A
C871   C873    1.431   .     A
C871   C878    1.423   .     A
C872   C879    1.423   .     A
C872   C874    1.431   .     A
C873   C875    1.417   .     A
C874   C877    1.417   .     A
C874   C387    1.408   1_556 S
C875   C886    1.391   .     A
C875   C881    1.396   .     A
C876   O912    1.289   .     A
C876   C883    1.401   .     S
C876   O910    1.272   .     A
C877   C880    1.396   .     A
C878   N907    1.434   .     S
C879   N908    1.434   .     S
C879   C395    1.380   1_556 S
C880   H891    1.082   .     S
C880   C392    1.380   1_556 S
C881   H895    1.082   .     S
C882   C559    1.356   1_565 S
C882   Cl565   1.785   1_565 S
C884   O913    1.283   .     A
C884   O915    1.284   .     A
C885   O914    1.283   .     A
C885   O916    1.284   .     A
C886   Cl887   1.779   .     S
Cl890  C559    1.785   1_565 S
H892   N907    1.045   .     S
H893   N908    1.045   .     S
H894   N908    1.044   .     S
H897   N958    1.029   .     S
H898   N905    1.045   .     S
H899   N905    1.046   .     S
H900   N906    1.046   .     S
H901   N906    1.045   .     S
H902   N907    1.044   .     S
N903   Zn918   2.015   .     S
N903   H950    1.029   .     S
N903   N958    1.275   .     S
N904   Zn917   2.015   .     S
O909   Zn917   1.970   .     S
O910   Zn918   1.970   .     S
O911   Zn918   1.989   .     S
O912   Zn917   1.989   .     S
O913   Zn917   1.999   .     S
O914   Zn918   1.999   .     S
O915   Zn918   2.024   .     S
O916   Zn917   2.024   .     S
C919   O963    1.272   .     A
C919   C936    1.401   .     S
C919   O965    1.289   .     A
C920   C922    1.390   .     A
C920   Cl942   1.779   .     S
C920   C931    1.391   .     A
C921   C939    1.422   .     S
C921   C940    1.390   .     A
C921   C923    1.400   .     A
C922   C924    1.400   .     A
C922   C938    1.422   .     S
C923   C925    1.408   .     A
C923   N959    1.438   .     S
C924   N960    1.438   .     S
C924   C926    1.408   .     A
C925   C927    1.431   .     A
C925   C932    1.423   .     A
C926   C933    1.423   .     A
C926   C928    1.431   .     A
C927   C929    1.417   .     A
C928   C931    1.417   .     A
C928   C441    1.408   1_556 S
C929   C940    1.391   .     A
C929   C935    1.396   .     A
C930   O966    1.289   .     A
C930   C937    1.401   .     S
C930   O964    1.272   .     A
C931   C934    1.396   .     A
C932   N961    1.434   .     S
C933   N962    1.434   .     S
C933   C449    1.380   1_556 S
C934   H945    1.082   .     S
C934   C446    1.380   1_556 S
C935   H949    1.082   .     S
C936   C613    1.356   1_565 S
C936   Cl619   1.785   1_565 S
C938   O967    1.283   .     A
C938   O969    1.284   .     A
C939   O968    1.283   .     A
C939   O970    1.284   .     A
C940   Cl941   1.779   .     S
Cl944  C613    1.785   1_565 S
H946   N961    1.045   .     S
H947   N962    1.045   .     S
H948   N962    1.044   .     S
H951   N850    1.029   1_655 S
H952   N959    1.045   .     S
H953   N959    1.046   .     S
H954   N960    1.046   .     S
H955   N960    1.045   .     S
H956   N961    1.044   .     S
N957   Zn972   2.015   .     S
N957   H842    1.029   1_655 S
N957   N850    1.275   1_655 S
N958   Zn971   2.015   .     S
O963   Zn971   1.970   .     S
O964   Zn972   1.970   .     S
O965   Zn972   1.989   .     S
O966   Zn971   1.989   .     S
O967   Zn971   1.999   .     S
O968   Zn972   1.999   .     S
O969   Zn972   2.024   .     S
O970   Zn971   2.024   .     S
