data_str_m3_o1_o1_pcu_sym.3
_audit_creation_date              2020-01-03
_audit_creation_method            'Materials Studio'
_symmetry_space_group_name_H-M    'P1'
_symmetry_Int_Tables_number       1
_symmetry_cell_setting            triclinic
loop_
_symmetry_equiv_pos_as_xyz
  x,y,z
_cell_length_a                    30.9042
_cell_length_b                    29.7005
_cell_length_c                    29.8908
_cell_angle_alpha                 89.9998
_cell_angle_beta                  89.9997
_cell_angle_gamma                 90.0024
loop_
_atom_site_label
_atom_site_type_symbol
_atom_site_fract_x
_atom_site_fract_y
_atom_site_fract_z
_atom_site_U_iso_or_equiv
_atom_site_adp_type
_atom_site_occupancy
C1     C     0.05986   0.18998   0.16666   0.00000  Uiso   1.00
C2     C     0.00439   0.21063   0.30968   0.00000  Uiso   1.00
C3     C     0.00442   0.21063   0.02366   0.00000  Uiso   1.00
C4     C     0.49561   0.28937   0.30968   0.00000  Uiso   1.00
C5     C     0.25437   0.03937   0.02365   0.00000  Uiso   1.00
C6     C     0.24560   0.46063   0.30967   0.00000  Uiso   1.00
C7     C     0.24563   0.46063   0.02365   0.00000  Uiso   1.00
C8     C     0.25440   0.03937   0.30967   0.00000  Uiso   1.00
C9     C     0.38519   0.14729   0.12681   0.00000  Uiso   1.00
C10    C     0.10305   0.36548   0.20651   0.00000  Uiso   1.00
C11    C     0.11484   0.35269   0.12682   0.00000  Uiso   1.00
C12    C     0.44014   0.31002   0.16666   0.00000  Uiso   1.00
C13    C     0.39692   0.13455   0.20651   0.00000  Uiso   1.00
C14    C     0.10326   0.13473   0.20655   0.00000  Uiso   1.00
C15    C     0.38525   0.35279   0.12677   0.00000  Uiso   1.00
C16    C     0.39676   0.36529   0.20654   0.00000  Uiso   1.00
C17    C     0.11473   0.14719   0.12676   0.00000  Uiso   1.00
C18    C     0.14690   0.38457   0.12684   0.00000  Uiso   1.00
C19    C     0.36485   0.10267   0.20653   0.00000  Uiso   1.00
C20    C     0.35313   0.11540   0.12683   0.00000  Uiso   1.00
C21    C     0.13512   0.39735   0.20652   0.00000  Uiso   1.00
C22    C     0.36471   0.39717   0.20655   0.00000  Uiso   1.00
C23    C     0.44015   0.18997   0.16667   0.00000  Uiso   1.00
C24    C     0.14680   0.11532   0.12678   0.00000  Uiso   1.00
C25    C     0.13531   0.10285   0.20656   0.00000  Uiso   1.00
C26    C     0.35318   0.38466   0.12678   0.00000  Uiso   1.00
C27    C     0.09301   0.34320   0.16666   0.00000  Uiso   1.00
C28    C     0.40699   0.15680   0.16666   0.00000  Uiso   1.00
C29    C     0.40696   0.34317   0.16665   0.00000  Uiso   1.00
C30    C     0.09304   0.15683   0.16665   0.00000  Uiso   1.00
C31    C     0.34304   0.09317   0.16668   0.00000  Uiso   1.00
C32    C     0.15696   0.40683   0.16668   0.00000  Uiso   1.00
C33    C     0.15699   0.09320   0.16667   0.00000  Uiso   1.00
C34    C     0.05985   0.31003   0.16667   0.00000  Uiso   1.00
C35    C     0.34301   0.40680   0.16667   0.00000  Uiso   1.00
C36    C     0.30985   0.43997   0.16667   0.00000  Uiso   1.00
C37    C     0.19015   0.06003   0.16667   0.00000  Uiso   1.00
C38    C     0.19014   0.43998   0.16667   0.00000  Uiso   1.00
C39    C     0.30986   0.06002   0.16667   0.00000  Uiso   1.00
C40    C     0.49558   0.28937   0.02366   0.00000  Uiso   1.00
H41    H     0.39260   0.16457   0.09582   0.00000  Uiso   1.00
H42    H     0.35743   0.08539   0.23752   0.00000  Uiso   1.00
H43    H     0.33620   0.10845   0.09585   0.00000  Uiso   1.00
H44    H     0.14252   0.41466   0.23751   0.00000  Uiso   1.00
H45    H     0.35721   0.41436   0.23757   0.00000  Uiso   1.00
H46    H     0.16365   0.10827   0.09577   0.00000  Uiso   1.00
H47    H     0.14282   0.08568   0.23759   0.00000  Uiso   1.00
H48    H     0.33631   0.39169   0.09578   0.00000  Uiso   1.00
H49    H     0.00037   0.32735   0.07561   0.00000  Uiso   1.00
H50    H     0.49962   0.17266   0.25771   0.00000  Uiso   1.00
H51    H     0.49963   0.17265   0.07561   0.00000  Uiso   1.00
H52    H     0.08607   0.35855   0.23747   0.00000  Uiso   1.00
H53    H     0.00038   0.32734   0.25771   0.00000  Uiso   1.00
H54    H     0.24962   0.07734   0.07563   0.00000  Uiso   1.00
H55    H     0.25037   0.42265   0.25772   0.00000  Uiso   1.00
H56    H     0.25038   0.42266   0.07563   0.00000  Uiso   1.00
H57    H     0.24963   0.07735   0.25772   0.00000  Uiso   1.00
H58    H     0.10744   0.33538   0.09584   0.00000  Uiso   1.00
H59    H     0.41388   0.14149   0.23749   0.00000  Uiso   1.00
H60    H     0.08643   0.14179   0.23756   0.00000  Uiso   1.00
H61    H     0.39276   0.33560   0.09575   0.00000  Uiso   1.00
H62    H     0.41360   0.35824   0.23755   0.00000  Uiso   1.00
H63    H     0.10721   0.16436   0.09574   0.00000  Uiso   1.00
H64    H     0.16384   0.39150   0.09586   0.00000  Uiso   1.00
N65    N    -0.00000   0.25000   0.28573   0.00000  Uiso   1.00
N66    N    -0.00000   0.25000   0.04760   0.00000  Uiso   1.00
N67    N     0.25000  -0.00000   0.28573   0.00000  Uiso   1.00
N68    N     0.25000  -0.00000   0.04760   0.00000  Uiso   1.00
O69    O     0.04580   0.20419   0.20487   0.00000  Uiso   1.00
O70    O     0.20419   0.04581   0.12846   0.00000  Uiso   1.00
O71    O     0.20419   0.04581   0.20487   0.00000  Uiso   1.00
O72    O     0.29580   0.45419   0.12846   0.00000  Uiso   1.00
O73    O     0.20419   0.45419   0.12846   0.00000  Uiso   1.00
O74    O     0.29580   0.04581   0.20487   0.00000  Uiso   1.00
O75    O     0.29580   0.04581   0.12846   0.00000  Uiso   1.00
O76    O     0.20419   0.45419   0.20487   0.00000  Uiso   1.00
O77    O     0.49145   0.33052   0.04433   0.00000  Uiso   1.00
O78    O     0.00839   0.16945   0.28903   0.00000  Uiso   1.00
O79    O     0.00855   0.16948   0.04433   0.00000  Uiso   1.00
O80    O     0.45419   0.29581   0.12846   0.00000  Uiso   1.00
O81    O     0.49161   0.33055   0.28903   0.00000  Uiso   1.00
O82    O     0.25835   0.08056   0.04430   0.00000  Uiso   1.00
O83    O     0.24149   0.41947   0.28901   0.00000  Uiso   1.00
O84    O     0.24165   0.41944   0.04430   0.00000  Uiso   1.00
O85    O     0.25851   0.08053   0.28901   0.00000  Uiso   1.00
O86    O     0.45419   0.29581   0.20487   0.00000  Uiso   1.00
O87    O     0.04580   0.20419   0.12846   0.00000  Uiso   1.00
O88    O     0.45419   0.20419   0.12846   0.00000  Uiso   1.00
O89    O     0.04580   0.29581   0.20487   0.00000  Uiso   1.00
O90    O     0.04580   0.29581   0.12846   0.00000  Uiso   1.00
O91    O     0.45419   0.20419   0.20487   0.00000  Uiso   1.00
O92    O     0.29580   0.45419   0.20487   0.00000  Uiso   1.00
Zn93   Zn   -0.00000   0.25000   0.21771   0.00000  Uiso   1.00
Zn94   Zn   -0.00000   0.25000   0.11563   0.00000  Uiso   1.00
Zn95   Zn    0.25000   0.00000   0.21771   0.00000  Uiso   1.00
Zn96   Zn    0.25000  -0.00000   0.11563   0.00000  Uiso   1.00
C97    C     0.55986   0.18998   0.16666   0.00000  Uiso   1.00
C98    C     0.50439   0.21063   0.30968   0.00000  Uiso   1.00
C99    C     0.50442   0.21063   0.02366   0.00000  Uiso   1.00
C100   C     0.99561   0.28937   0.30968   0.00000  Uiso   1.00
C101   C     0.75437   0.03937   0.02365   0.00000  Uiso   1.00
C102   C     0.74560   0.46063   0.30967   0.00000  Uiso   1.00
C103   C     0.74563   0.46063   0.02365   0.00000  Uiso   1.00
C104   C     0.75440   0.03937   0.30967   0.00000  Uiso   1.00
C105   C     0.88519   0.14729   0.12681   0.00000  Uiso   1.00
C106   C     0.60305   0.36548   0.20651   0.00000  Uiso   1.00
C107   C     0.61484   0.35269   0.12682   0.00000  Uiso   1.00
C108   C     0.94014   0.31002   0.16666   0.00000  Uiso   1.00
C109   C     0.89692   0.13455   0.20651   0.00000  Uiso   1.00
C110   C     0.60326   0.13473   0.20655   0.00000  Uiso   1.00
C111   C     0.88525   0.35279   0.12677   0.00000  Uiso   1.00
C112   C     0.89676   0.36529   0.20654   0.00000  Uiso   1.00
C113   C     0.61473   0.14719   0.12676   0.00000  Uiso   1.00
C114   C     0.64690   0.38457   0.12684   0.00000  Uiso   1.00
C115   C     0.86485   0.10267   0.20653   0.00000  Uiso   1.00
C116   C     0.85313   0.11540   0.12683   0.00000  Uiso   1.00
C117   C     0.63512   0.39735   0.20652   0.00000  Uiso   1.00
C118   C     0.86471   0.39717   0.20655   0.00000  Uiso   1.00
C119   C     0.94015   0.18997   0.16667   0.00000  Uiso   1.00
C120   C     0.64680   0.11532   0.12678   0.00000  Uiso   1.00
C121   C     0.63531   0.10285   0.20656   0.00000  Uiso   1.00
C122   C     0.85318   0.38466   0.12678   0.00000  Uiso   1.00
C123   C     0.59301   0.34320   0.16666   0.00000  Uiso   1.00
C124   C     0.90699   0.15680   0.16666   0.00000  Uiso   1.00
C125   C     0.90696   0.34317   0.16665   0.00000  Uiso   1.00
C126   C     0.59304   0.15683   0.16665   0.00000  Uiso   1.00
C127   C     0.84304   0.09317   0.16668   0.00000  Uiso   1.00
C128   C     0.65696   0.40683   0.16668   0.00000  Uiso   1.00
C129   C     0.65699   0.09320   0.16667   0.00000  Uiso   1.00
C130   C     0.55985   0.31003   0.16667   0.00000  Uiso   1.00
C131   C     0.84301   0.40680   0.16667   0.00000  Uiso   1.00
C132   C     0.80985   0.43997   0.16667   0.00000  Uiso   1.00
C133   C     0.69015   0.06003   0.16667   0.00000  Uiso   1.00
C134   C     0.69014   0.43998   0.16667   0.00000  Uiso   1.00
C135   C     0.80986   0.06002   0.16667   0.00000  Uiso   1.00
C136   C     0.99558   0.28937   0.02366   0.00000  Uiso   1.00
H137   H     0.89260   0.16457   0.09582   0.00000  Uiso   1.00
H138   H     0.85743   0.08539   0.23752   0.00000  Uiso   1.00
H139   H     0.83620   0.10845   0.09585   0.00000  Uiso   1.00
H140   H     0.64252   0.41466   0.23751   0.00000  Uiso   1.00
H141   H     0.85721   0.41436   0.23757   0.00000  Uiso   1.00
H142   H     0.66365   0.10827   0.09577   0.00000  Uiso   1.00
H143   H     0.64282   0.08568   0.23759   0.00000  Uiso   1.00
H144   H     0.83631   0.39169   0.09578   0.00000  Uiso   1.00
H145   H     0.50037   0.32735   0.07561   0.00000  Uiso   1.00
H146   H     0.99962   0.17266   0.25771   0.00000  Uiso   1.00
H147   H     0.99963   0.17265   0.07561   0.00000  Uiso   1.00
H148   H     0.58607   0.35855   0.23747   0.00000  Uiso   1.00
H149   H     0.50038   0.32734   0.25771   0.00000  Uiso   1.00
H150   H     0.74962   0.07734   0.07563   0.00000  Uiso   1.00
H151   H     0.75037   0.42265   0.25772   0.00000  Uiso   1.00
H152   H     0.75038   0.42266   0.07563   0.00000  Uiso   1.00
H153   H     0.74963   0.07735   0.25772   0.00000  Uiso   1.00
H154   H     0.60744   0.33538   0.09584   0.00000  Uiso   1.00
H155   H     0.91388   0.14149   0.23749   0.00000  Uiso   1.00
H156   H     0.58643   0.14179   0.23756   0.00000  Uiso   1.00
H157   H     0.89276   0.33560   0.09575   0.00000  Uiso   1.00
H158   H     0.91360   0.35824   0.23755   0.00000  Uiso   1.00
H159   H     0.60721   0.16436   0.09574   0.00000  Uiso   1.00
H160   H     0.66384   0.39150   0.09586   0.00000  Uiso   1.00
N161   N     0.50000   0.25000   0.28573   0.00000  Uiso   1.00
N162   N     0.50000   0.25000   0.04760   0.00000  Uiso   1.00
N163   N     0.75000  -0.00000   0.28573   0.00000  Uiso   1.00
N164   N     0.75000  -0.00000   0.04760   0.00000  Uiso   1.00
O165   O     0.54580   0.20419   0.20487   0.00000  Uiso   1.00
O166   O     0.70419   0.04581   0.12846   0.00000  Uiso   1.00
O167   O     0.70419   0.04581   0.20487   0.00000  Uiso   1.00
O168   O     0.79580   0.45419   0.12846   0.00000  Uiso   1.00
O169   O     0.70419   0.45419   0.12846   0.00000  Uiso   1.00
O170   O     0.79580   0.04581   0.20487   0.00000  Uiso   1.00
O171   O     0.79580   0.04581   0.12846   0.00000  Uiso   1.00
O172   O     0.70419   0.45419   0.20487   0.00000  Uiso   1.00
O173   O     0.99145   0.33052   0.04433   0.00000  Uiso   1.00
O174   O     0.50839   0.16945   0.28903   0.00000  Uiso   1.00
O175   O     0.50855   0.16948   0.04433   0.00000  Uiso   1.00
O176   O     0.95419   0.29581   0.12846   0.00000  Uiso   1.00
O177   O     0.99161   0.33055   0.28903   0.00000  Uiso   1.00
O178   O     0.75835   0.08056   0.04430   0.00000  Uiso   1.00
O179   O     0.74149   0.41947   0.28901   0.00000  Uiso   1.00
O180   O     0.74165   0.41944   0.04430   0.00000  Uiso   1.00
O181   O     0.75851   0.08053   0.28901   0.00000  Uiso   1.00
O182   O     0.95419   0.29581   0.20487   0.00000  Uiso   1.00
O183   O     0.54580   0.20419   0.12846   0.00000  Uiso   1.00
O184   O     0.95419   0.20419   0.12846   0.00000  Uiso   1.00
O185   O     0.54580   0.29581   0.20487   0.00000  Uiso   1.00
O186   O     0.54580   0.29581   0.12846   0.00000  Uiso   1.00
O187   O     0.95419   0.20419   0.20487   0.00000  Uiso   1.00
O188   O     0.79580   0.45419   0.20487   0.00000  Uiso   1.00
Zn189  Zn    0.50000   0.25000   0.21771   0.00000  Uiso   1.00
Zn190  Zn    0.50000   0.25000   0.11563   0.00000  Uiso   1.00
Zn191  Zn    0.75000   0.00000   0.21771   0.00000  Uiso   1.00
Zn192  Zn    0.75000  -0.00000   0.11563   0.00000  Uiso   1.00
C193   C     0.05986   0.68998   0.16666   0.00000  Uiso   1.00
C194   C     0.00439   0.71063   0.30968   0.00000  Uiso   1.00
C195   C     0.00442   0.71063   0.02366   0.00000  Uiso   1.00
C196   C     0.49561   0.78937   0.30968   0.00000  Uiso   1.00
C197   C     0.25437   0.53937   0.02365   0.00000  Uiso   1.00
C198   C     0.24560   0.96063   0.30967   0.00000  Uiso   1.00
C199   C     0.24563   0.96063   0.02365   0.00000  Uiso   1.00
C200   C     0.25440   0.53937   0.30967   0.00000  Uiso   1.00
C201   C     0.38519   0.64729   0.12681   0.00000  Uiso   1.00
C202   C     0.10305   0.86548   0.20651   0.00000  Uiso   1.00
C203   C     0.11484   0.85269   0.12682   0.00000  Uiso   1.00
C204   C     0.44014   0.81002   0.16666   0.00000  Uiso   1.00
C205   C     0.39692   0.63455   0.20651   0.00000  Uiso   1.00
C206   C     0.10326   0.63473   0.20655   0.00000  Uiso   1.00
C207   C     0.38525   0.85279   0.12677   0.00000  Uiso   1.00
C208   C     0.39676   0.86529   0.20654   0.00000  Uiso   1.00
C209   C     0.11473   0.64719   0.12676   0.00000  Uiso   1.00
C210   C     0.14690   0.88457   0.12684   0.00000  Uiso   1.00
C211   C     0.36485   0.60267   0.20653   0.00000  Uiso   1.00
C212   C     0.35313   0.61540   0.12683   0.00000  Uiso   1.00
C213   C     0.13512   0.89735   0.20652   0.00000  Uiso   1.00
C214   C     0.36471   0.89717   0.20655   0.00000  Uiso   1.00
C215   C     0.44015   0.68997   0.16667   0.00000  Uiso   1.00
C216   C     0.14680   0.61532   0.12678   0.00000  Uiso   1.00
C217   C     0.13531   0.60285   0.20656   0.00000  Uiso   1.00
C218   C     0.35318   0.88466   0.12678   0.00000  Uiso   1.00
C219   C     0.09301   0.84320   0.16666   0.00000  Uiso   1.00
C220   C     0.40699   0.65680   0.16666   0.00000  Uiso   1.00
C221   C     0.40696   0.84317   0.16665   0.00000  Uiso   1.00
C222   C     0.09304   0.65683   0.16665   0.00000  Uiso   1.00
C223   C     0.34304   0.59317   0.16668   0.00000  Uiso   1.00
C224   C     0.15696   0.90683   0.16668   0.00000  Uiso   1.00
C225   C     0.15699   0.59320   0.16667   0.00000  Uiso   1.00
C226   C     0.05985   0.81003   0.16667   0.00000  Uiso   1.00
C227   C     0.34301   0.90680   0.16667   0.00000  Uiso   1.00
C228   C     0.30985   0.93997   0.16667   0.00000  Uiso   1.00
C229   C     0.19015   0.56003   0.16667   0.00000  Uiso   1.00
C230   C     0.19014   0.93998   0.16667   0.00000  Uiso   1.00
C231   C     0.30986   0.56002   0.16667   0.00000  Uiso   1.00
C232   C     0.49558   0.78937   0.02366   0.00000  Uiso   1.00
H233   H     0.39260   0.66457   0.09582   0.00000  Uiso   1.00
H234   H     0.35743   0.58539   0.23752   0.00000  Uiso   1.00
H235   H     0.33620   0.60845   0.09585   0.00000  Uiso   1.00
H236   H     0.14252   0.91466   0.23751   0.00000  Uiso   1.00
H237   H     0.35721   0.91436   0.23757   0.00000  Uiso   1.00
H238   H     0.16365   0.60827   0.09577   0.00000  Uiso   1.00
H239   H     0.14282   0.58568   0.23759   0.00000  Uiso   1.00
H240   H     0.33631   0.89169   0.09578   0.00000  Uiso   1.00
H241   H     0.00037   0.82735   0.07561   0.00000  Uiso   1.00
H242   H     0.49962   0.67266   0.25771   0.00000  Uiso   1.00
H243   H     0.49963   0.67265   0.07561   0.00000  Uiso   1.00
H244   H     0.08607   0.85855   0.23747   0.00000  Uiso   1.00
H245   H     0.00038   0.82734   0.25771   0.00000  Uiso   1.00
H246   H     0.24962   0.57734   0.07563   0.00000  Uiso   1.00
H247   H     0.25037   0.92265   0.25772   0.00000  Uiso   1.00
H248   H     0.25038   0.92266   0.07563   0.00000  Uiso   1.00
H249   H     0.24963   0.57735   0.25772   0.00000  Uiso   1.00
H250   H     0.10744   0.83538   0.09584   0.00000  Uiso   1.00
H251   H     0.41388   0.64149   0.23749   0.00000  Uiso   1.00
H252   H     0.08643   0.64179   0.23756   0.00000  Uiso   1.00
H253   H     0.39276   0.83560   0.09575   0.00000  Uiso   1.00
H254   H     0.41360   0.85824   0.23755   0.00000  Uiso   1.00
H255   H     0.10721   0.66436   0.09574   0.00000  Uiso   1.00
H256   H     0.16384   0.89150   0.09586   0.00000  Uiso   1.00
N257   N    -0.00000   0.75000   0.28573   0.00000  Uiso   1.00
N258   N    -0.00000   0.75000   0.04760   0.00000  Uiso   1.00
N259   N     0.25000   0.50000   0.28573   0.00000  Uiso   1.00
N260   N     0.25000   0.50000   0.04760   0.00000  Uiso   1.00
O261   O     0.04580   0.70419   0.20487   0.00000  Uiso   1.00
O262   O     0.20419   0.54581   0.12846   0.00000  Uiso   1.00
O263   O     0.20419   0.54581   0.20487   0.00000  Uiso   1.00
O264   O     0.29580   0.95419   0.12846   0.00000  Uiso   1.00
O265   O     0.20419   0.95419   0.12846   0.00000  Uiso   1.00
O266   O     0.29580   0.54581   0.20487   0.00000  Uiso   1.00
O267   O     0.29580   0.54581   0.12846   0.00000  Uiso   1.00
O268   O     0.20419   0.95419   0.20487   0.00000  Uiso   1.00
O269   O     0.49145   0.83052   0.04433   0.00000  Uiso   1.00
O270   O     0.00839   0.66945   0.28903   0.00000  Uiso   1.00
O271   O     0.00855   0.66948   0.04433   0.00000  Uiso   1.00
O272   O     0.45419   0.79581   0.12846   0.00000  Uiso   1.00
O273   O     0.49161   0.83055   0.28903   0.00000  Uiso   1.00
O274   O     0.25835   0.58056   0.04430   0.00000  Uiso   1.00
O275   O     0.24149   0.91947   0.28901   0.00000  Uiso   1.00
O276   O     0.24165   0.91944   0.04430   0.00000  Uiso   1.00
O277   O     0.25851   0.58053   0.28901   0.00000  Uiso   1.00
O278   O     0.45419   0.79581   0.20487   0.00000  Uiso   1.00
O279   O     0.04580   0.70419   0.12846   0.00000  Uiso   1.00
O280   O     0.45419   0.70419   0.12846   0.00000  Uiso   1.00
O281   O     0.04580   0.79581   0.20487   0.00000  Uiso   1.00
O282   O     0.04580   0.79581   0.12846   0.00000  Uiso   1.00
O283   O     0.45419   0.70419   0.20487   0.00000  Uiso   1.00
O284   O     0.29580   0.95419   0.20487   0.00000  Uiso   1.00
Zn285  Zn   -0.00000   0.75000   0.21771   0.00000  Uiso   1.00
Zn286  Zn   -0.00000   0.75000   0.11563   0.00000  Uiso   1.00
Zn287  Zn    0.25000   0.50000   0.21771   0.00000  Uiso   1.00
Zn288  Zn    0.25000   0.50000   0.11563   0.00000  Uiso   1.00
C289   C     0.55986   0.68998   0.16666   0.00000  Uiso   1.00
C290   C     0.50439   0.71063   0.30968   0.00000  Uiso   1.00
C291   C     0.50442   0.71063   0.02366   0.00000  Uiso   1.00
C292   C     0.99561   0.78937   0.30968   0.00000  Uiso   1.00
C293   C     0.75437   0.53937   0.02365   0.00000  Uiso   1.00
C294   C     0.74560   0.96063   0.30967   0.00000  Uiso   1.00
C295   C     0.74563   0.96063   0.02365   0.00000  Uiso   1.00
C296   C     0.75440   0.53937   0.30967   0.00000  Uiso   1.00
C297   C     0.88519   0.64729   0.12681   0.00000  Uiso   1.00
C298   C     0.60305   0.86548   0.20651   0.00000  Uiso   1.00
C299   C     0.61484   0.85269   0.12682   0.00000  Uiso   1.00
C300   C     0.94014   0.81002   0.16666   0.00000  Uiso   1.00
C301   C     0.89692   0.63455   0.20651   0.00000  Uiso   1.00
C302   C     0.60326   0.63473   0.20655   0.00000  Uiso   1.00
C303   C     0.88525   0.85279   0.12677   0.00000  Uiso   1.00
C304   C     0.89676   0.86529   0.20654   0.00000  Uiso   1.00
C305   C     0.61473   0.64719   0.12676   0.00000  Uiso   1.00
C306   C     0.64690   0.88457   0.12684   0.00000  Uiso   1.00
C307   C     0.86485   0.60267   0.20653   0.00000  Uiso   1.00
C308   C     0.85313   0.61540   0.12683   0.00000  Uiso   1.00
C309   C     0.63512   0.89735   0.20652   0.00000  Uiso   1.00
C310   C     0.86471   0.89717   0.20655   0.00000  Uiso   1.00
C311   C     0.94015   0.68997   0.16667   0.00000  Uiso   1.00
C312   C     0.64680   0.61532   0.12678   0.00000  Uiso   1.00
C313   C     0.63531   0.60285   0.20656   0.00000  Uiso   1.00
C314   C     0.85318   0.88466   0.12678   0.00000  Uiso   1.00
C315   C     0.59301   0.84320   0.16666   0.00000  Uiso   1.00
C316   C     0.90699   0.65680   0.16666   0.00000  Uiso   1.00
C317   C     0.90696   0.84317   0.16665   0.00000  Uiso   1.00
C318   C     0.59304   0.65683   0.16665   0.00000  Uiso   1.00
C319   C     0.84304   0.59317   0.16668   0.00000  Uiso   1.00
C320   C     0.65696   0.90683   0.16668   0.00000  Uiso   1.00
C321   C     0.65699   0.59320   0.16667   0.00000  Uiso   1.00
C322   C     0.55985   0.81003   0.16667   0.00000  Uiso   1.00
C323   C     0.84301   0.90680   0.16667   0.00000  Uiso   1.00
C324   C     0.80985   0.93997   0.16667   0.00000  Uiso   1.00
C325   C     0.69015   0.56003   0.16667   0.00000  Uiso   1.00
C326   C     0.69014   0.93998   0.16667   0.00000  Uiso   1.00
C327   C     0.80986   0.56002   0.16667   0.00000  Uiso   1.00
C328   C     0.99558   0.78937   0.02366   0.00000  Uiso   1.00
H329   H     0.89260   0.66457   0.09582   0.00000  Uiso   1.00
H330   H     0.85743   0.58539   0.23752   0.00000  Uiso   1.00
H331   H     0.83620   0.60845   0.09585   0.00000  Uiso   1.00
H332   H     0.64252   0.91466   0.23751   0.00000  Uiso   1.00
H333   H     0.85721   0.91436   0.23757   0.00000  Uiso   1.00
H334   H     0.66365   0.60827   0.09577   0.00000  Uiso   1.00
H335   H     0.64282   0.58568   0.23759   0.00000  Uiso   1.00
H336   H     0.83631   0.89169   0.09578   0.00000  Uiso   1.00
H337   H     0.50037   0.82735   0.07561   0.00000  Uiso   1.00
H338   H     0.99962   0.67266   0.25771   0.00000  Uiso   1.00
H339   H     0.99963   0.67265   0.07561   0.00000  Uiso   1.00
H340   H     0.58607   0.85855   0.23747   0.00000  Uiso   1.00
H341   H     0.50038   0.82734   0.25771   0.00000  Uiso   1.00
H342   H     0.74962   0.57734   0.07563   0.00000  Uiso   1.00
H343   H     0.75037   0.92265   0.25772   0.00000  Uiso   1.00
H344   H     0.75038   0.92266   0.07563   0.00000  Uiso   1.00
H345   H     0.74963   0.57735   0.25772   0.00000  Uiso   1.00
H346   H     0.60744   0.83538   0.09584   0.00000  Uiso   1.00
H347   H     0.91388   0.64149   0.23749   0.00000  Uiso   1.00
H348   H     0.58643   0.64179   0.23756   0.00000  Uiso   1.00
H349   H     0.89276   0.83560   0.09575   0.00000  Uiso   1.00
H350   H     0.91360   0.85824   0.23755   0.00000  Uiso   1.00
H351   H     0.60721   0.66436   0.09574   0.00000  Uiso   1.00
H352   H     0.66384   0.89150   0.09586   0.00000  Uiso   1.00
N353   N     0.50000   0.75000   0.28573   0.00000  Uiso   1.00
N354   N     0.50000   0.75000   0.04760   0.00000  Uiso   1.00
N355   N     0.75000   0.50000   0.28573   0.00000  Uiso   1.00
N356   N     0.75000   0.50000   0.04760   0.00000  Uiso   1.00
O357   O     0.54580   0.70419   0.20487   0.00000  Uiso   1.00
O358   O     0.70419   0.54581   0.12846   0.00000  Uiso   1.00
O359   O     0.70419   0.54581   0.20487   0.00000  Uiso   1.00
O360   O     0.79580   0.95419   0.12846   0.00000  Uiso   1.00
O361   O     0.70419   0.95419   0.12846   0.00000  Uiso   1.00
O362   O     0.79580   0.54581   0.20487   0.00000  Uiso   1.00
O363   O     0.79580   0.54581   0.12846   0.00000  Uiso   1.00
O364   O     0.70419   0.95419   0.20487   0.00000  Uiso   1.00
O365   O     0.99145   0.83052   0.04433   0.00000  Uiso   1.00
O366   O     0.50839   0.66945   0.28903   0.00000  Uiso   1.00
O367   O     0.50855   0.66948   0.04433   0.00000  Uiso   1.00
O368   O     0.95419   0.79581   0.12846   0.00000  Uiso   1.00
O369   O     0.99161   0.83055   0.28903   0.00000  Uiso   1.00
O370   O     0.75835   0.58056   0.04430   0.00000  Uiso   1.00
O371   O     0.74149   0.91947   0.28901   0.00000  Uiso   1.00
O372   O     0.74165   0.91944   0.04430   0.00000  Uiso   1.00
O373   O     0.75851   0.58053   0.28901   0.00000  Uiso   1.00
O374   O     0.95419   0.79581   0.20487   0.00000  Uiso   1.00
O375   O     0.54580   0.70419   0.12846   0.00000  Uiso   1.00
O376   O     0.95419   0.70419   0.12846   0.00000  Uiso   1.00
O377   O     0.54580   0.79581   0.20487   0.00000  Uiso   1.00
O378   O     0.54580   0.79581   0.12846   0.00000  Uiso   1.00
O379   O     0.95419   0.70419   0.20487   0.00000  Uiso   1.00
O380   O     0.79580   0.95419   0.20487   0.00000  Uiso   1.00
Zn381  Zn    0.50000   0.75000   0.21771   0.00000  Uiso   1.00
Zn382  Zn    0.50000   0.75000   0.11563   0.00000  Uiso   1.00
Zn383  Zn    0.75000   0.50000   0.21771   0.00000  Uiso   1.00
Zn384  Zn    0.75000   0.50000   0.11563   0.00000  Uiso   1.00
C385   C     0.05986   0.18998   0.50000   0.00000  Uiso   1.00
C386   C     0.00439   0.21063   0.64301   0.00000  Uiso   1.00
C387   C     0.00442   0.21063   0.35699   0.00000  Uiso   1.00
C388   C     0.49561   0.28937   0.64301   0.00000  Uiso   1.00
C389   C     0.25437   0.03937   0.35699   0.00000  Uiso   1.00
C390   C     0.24560   0.46063   0.64301   0.00000  Uiso   1.00
C391   C     0.24563   0.46063   0.35699   0.00000  Uiso   1.00
C392   C     0.25440   0.03937   0.64301   0.00000  Uiso   1.00
C393   C     0.38519   0.14729   0.46015   0.00000  Uiso   1.00
C394   C     0.10305   0.36548   0.53984   0.00000  Uiso   1.00
C395   C     0.11484   0.35269   0.46016   0.00000  Uiso   1.00
C396   C     0.44014   0.31002   0.50000   0.00000  Uiso   1.00
C397   C     0.39692   0.13455   0.53985   0.00000  Uiso   1.00
C398   C     0.10326   0.13473   0.53988   0.00000  Uiso   1.00
C399   C     0.38525   0.35279   0.46010   0.00000  Uiso   1.00
C400   C     0.39676   0.36529   0.53987   0.00000  Uiso   1.00
C401   C     0.11473   0.14719   0.46010   0.00000  Uiso   1.00
C402   C     0.14690   0.38457   0.46017   0.00000  Uiso   1.00
C403   C     0.36485   0.10267   0.53986   0.00000  Uiso   1.00
C404   C     0.35313   0.11540   0.46016   0.00000  Uiso   1.00
C405   C     0.13512   0.39735   0.53986   0.00000  Uiso   1.00
C406   C     0.36471   0.39717   0.53989   0.00000  Uiso   1.00
C407   C     0.44015   0.18997   0.50000   0.00000  Uiso   1.00
C408   C     0.14680   0.11532   0.46011   0.00000  Uiso   1.00
C409   C     0.13531   0.10285   0.53989   0.00000  Uiso   1.00
C410   C     0.35318   0.38466   0.46012   0.00000  Uiso   1.00
C411   C     0.09301   0.34320   0.49999   0.00000  Uiso   1.00
C412   C     0.40699   0.15680   0.49999   0.00000  Uiso   1.00
C413   C     0.40696   0.34317   0.49999   0.00000  Uiso   1.00
C414   C     0.09304   0.15683   0.49999   0.00000  Uiso   1.00
C415   C     0.34304   0.09317   0.50001   0.00000  Uiso   1.00
C416   C     0.15696   0.40683   0.50002   0.00000  Uiso   1.00
C417   C     0.15699   0.09320   0.50001   0.00000  Uiso   1.00
C418   C     0.05985   0.31003   0.50000   0.00000  Uiso   1.00
C419   C     0.34301   0.40680   0.50001   0.00000  Uiso   1.00
C420   C     0.30985   0.43997   0.50000   0.00000  Uiso   1.00
C421   C     0.19015   0.06003   0.50000   0.00000  Uiso   1.00
C422   C     0.19014   0.43998   0.50000   0.00000  Uiso   1.00
C423   C     0.30986   0.06002   0.50000   0.00000  Uiso   1.00
C424   C     0.49558   0.28937   0.35699   0.00000  Uiso   1.00
H425   H     0.39260   0.16457   0.42916   0.00000  Uiso   1.00
H426   H     0.35743   0.08539   0.57085   0.00000  Uiso   1.00
H427   H     0.33620   0.10845   0.42918   0.00000  Uiso   1.00
H428   H     0.14252   0.41466   0.57084   0.00000  Uiso   1.00
H429   H     0.35721   0.41436   0.57091   0.00000  Uiso   1.00
H430   H     0.16365   0.10827   0.42910   0.00000  Uiso   1.00
H431   H     0.14282   0.08568   0.57092   0.00000  Uiso   1.00
H432   H     0.33631   0.39169   0.42911   0.00000  Uiso   1.00
H433   H     0.00037   0.32735   0.40894   0.00000  Uiso   1.00
H434   H     0.49962   0.17266   0.59104   0.00000  Uiso   1.00
H435   H     0.49963   0.17265   0.40894   0.00000  Uiso   1.00
H436   H     0.08607   0.35855   0.57081   0.00000  Uiso   1.00
H437   H     0.00038   0.32734   0.59104   0.00000  Uiso   1.00
H438   H     0.24962   0.07734   0.40897   0.00000  Uiso   1.00
H439   H     0.25037   0.42265   0.59105   0.00000  Uiso   1.00
H440   H     0.25038   0.42266   0.40897   0.00000  Uiso   1.00
H441   H     0.24963   0.07735   0.59105   0.00000  Uiso   1.00
H442   H     0.10744   0.33538   0.42917   0.00000  Uiso   1.00
H443   H     0.41388   0.14149   0.57082   0.00000  Uiso   1.00
H444   H     0.08643   0.14179   0.57090   0.00000  Uiso   1.00
H445   H     0.39276   0.33560   0.42908   0.00000  Uiso   1.00
H446   H     0.41360   0.35824   0.57088   0.00000  Uiso   1.00
H447   H     0.10721   0.16436   0.42907   0.00000  Uiso   1.00
H448   H     0.16384   0.39150   0.42920   0.00000  Uiso   1.00
N449   N    -0.00000   0.25000   0.61907   0.00000  Uiso   1.00
N450   N    -0.00000   0.25000   0.38093   0.00000  Uiso   1.00
N451   N     0.25000  -0.00000   0.61907   0.00000  Uiso   1.00
N452   N     0.25000  -0.00000   0.38093   0.00000  Uiso   1.00
O453   O     0.04580   0.20419   0.53821   0.00000  Uiso   1.00
O454   O     0.20419   0.04581   0.46179   0.00000  Uiso   1.00
O455   O     0.20419   0.04581   0.53821   0.00000  Uiso   1.00
O456   O     0.29580   0.45419   0.46179   0.00000  Uiso   1.00
O457   O     0.20419   0.45419   0.46179   0.00000  Uiso   1.00
O458   O     0.29580   0.04581   0.53821   0.00000  Uiso   1.00
O459   O     0.29580   0.04581   0.46179   0.00000  Uiso   1.00
O460   O     0.20419   0.45419   0.53821   0.00000  Uiso   1.00
O461   O     0.49145   0.33052   0.37766   0.00000  Uiso   1.00
O462   O     0.00839   0.16945   0.62236   0.00000  Uiso   1.00
O463   O     0.00855   0.16948   0.37766   0.00000  Uiso   1.00
O464   O     0.45419   0.29581   0.46179   0.00000  Uiso   1.00
O465   O     0.49161   0.33055   0.62236   0.00000  Uiso   1.00
O466   O     0.25835   0.08056   0.37764   0.00000  Uiso   1.00
O467   O     0.24149   0.41947   0.62234   0.00000  Uiso   1.00
O468   O     0.24165   0.41944   0.37764   0.00000  Uiso   1.00
O469   O     0.25851   0.08053   0.62234   0.00000  Uiso   1.00
O470   O     0.45419   0.29581   0.53821   0.00000  Uiso   1.00
O471   O     0.04580   0.20419   0.46179   0.00000  Uiso   1.00
O472   O     0.45419   0.20419   0.46179   0.00000  Uiso   1.00
O473   O     0.04580   0.29581   0.53821   0.00000  Uiso   1.00
O474   O     0.04580   0.29581   0.46179   0.00000  Uiso   1.00
O475   O     0.45419   0.20419   0.53821   0.00000  Uiso   1.00
O476   O     0.29580   0.45419   0.53821   0.00000  Uiso   1.00
Zn477  Zn   -0.00000   0.25000   0.55104   0.00000  Uiso   1.00
Zn478  Zn   -0.00000   0.25000   0.44896   0.00000  Uiso   1.00
Zn479  Zn    0.25000   0.00000   0.55104   0.00000  Uiso   1.00
Zn480  Zn    0.25000  -0.00000   0.44896   0.00000  Uiso   1.00
C481   C     0.55986   0.18998   0.50000   0.00000  Uiso   1.00
C482   C     0.50439   0.21063   0.64301   0.00000  Uiso   1.00
C483   C     0.50442   0.21063   0.35699   0.00000  Uiso   1.00
C484   C     0.99561   0.28937   0.64301   0.00000  Uiso   1.00
C485   C     0.75437   0.03937   0.35699   0.00000  Uiso   1.00
C486   C     0.74560   0.46063   0.64301   0.00000  Uiso   1.00
C487   C     0.74563   0.46063   0.35699   0.00000  Uiso   1.00
C488   C     0.75440   0.03937   0.64301   0.00000  Uiso   1.00
C489   C     0.88519   0.14729   0.46015   0.00000  Uiso   1.00
C490   C     0.60305   0.36548   0.53984   0.00000  Uiso   1.00
C491   C     0.61484   0.35269   0.46016   0.00000  Uiso   1.00
C492   C     0.94014   0.31002   0.50000   0.00000  Uiso   1.00
C493   C     0.89692   0.13455   0.53985   0.00000  Uiso   1.00
C494   C     0.60326   0.13473   0.53988   0.00000  Uiso   1.00
C495   C     0.88525   0.35279   0.46010   0.00000  Uiso   1.00
C496   C     0.89676   0.36529   0.53987   0.00000  Uiso   1.00
C497   C     0.61473   0.14719   0.46010   0.00000  Uiso   1.00
C498   C     0.64690   0.38457   0.46017   0.00000  Uiso   1.00
C499   C     0.86485   0.10267   0.53986   0.00000  Uiso   1.00
C500   C     0.85313   0.11540   0.46016   0.00000  Uiso   1.00
C501   C     0.63512   0.39735   0.53986   0.00000  Uiso   1.00
C502   C     0.86471   0.39717   0.53989   0.00000  Uiso   1.00
C503   C     0.94015   0.18997   0.50000   0.00000  Uiso   1.00
C504   C     0.64680   0.11532   0.46011   0.00000  Uiso   1.00
C505   C     0.63531   0.10285   0.53989   0.00000  Uiso   1.00
C506   C     0.85318   0.38466   0.46012   0.00000  Uiso   1.00
C507   C     0.59301   0.34320   0.49999   0.00000  Uiso   1.00
C508   C     0.90699   0.15680   0.49999   0.00000  Uiso   1.00
C509   C     0.90696   0.34317   0.49999   0.00000  Uiso   1.00
C510   C     0.59304   0.15683   0.49999   0.00000  Uiso   1.00
C511   C     0.84304   0.09317   0.50001   0.00000  Uiso   1.00
C512   C     0.65696   0.40683   0.50002   0.00000  Uiso   1.00
C513   C     0.65699   0.09320   0.50001   0.00000  Uiso   1.00
C514   C     0.55985   0.31003   0.50000   0.00000  Uiso   1.00
C515   C     0.84301   0.40680   0.50001   0.00000  Uiso   1.00
C516   C     0.80985   0.43997   0.50000   0.00000  Uiso   1.00
C517   C     0.69015   0.06003   0.50000   0.00000  Uiso   1.00
C518   C     0.69014   0.43998   0.50000   0.00000  Uiso   1.00
C519   C     0.80986   0.06002   0.50000   0.00000  Uiso   1.00
C520   C     0.99558   0.28937   0.35699   0.00000  Uiso   1.00
H521   H     0.89260   0.16457   0.42916   0.00000  Uiso   1.00
H522   H     0.85743   0.08539   0.57085   0.00000  Uiso   1.00
H523   H     0.83620   0.10845   0.42918   0.00000  Uiso   1.00
H524   H     0.64252   0.41466   0.57084   0.00000  Uiso   1.00
H525   H     0.85721   0.41436   0.57091   0.00000  Uiso   1.00
H526   H     0.66365   0.10827   0.42910   0.00000  Uiso   1.00
H527   H     0.64282   0.08568   0.57092   0.00000  Uiso   1.00
H528   H     0.83631   0.39169   0.42911   0.00000  Uiso   1.00
H529   H     0.50037   0.32735   0.40894   0.00000  Uiso   1.00
H530   H     0.99962   0.17266   0.59104   0.00000  Uiso   1.00
H531   H     0.99963   0.17265   0.40894   0.00000  Uiso   1.00
H532   H     0.58607   0.35855   0.57081   0.00000  Uiso   1.00
H533   H     0.50038   0.32734   0.59104   0.00000  Uiso   1.00
H534   H     0.74962   0.07734   0.40897   0.00000  Uiso   1.00
H535   H     0.75037   0.42265   0.59105   0.00000  Uiso   1.00
H536   H     0.75038   0.42266   0.40897   0.00000  Uiso   1.00
H537   H     0.74963   0.07735   0.59105   0.00000  Uiso   1.00
H538   H     0.60744   0.33538   0.42917   0.00000  Uiso   1.00
H539   H     0.91388   0.14149   0.57082   0.00000  Uiso   1.00
H540   H     0.58643   0.14179   0.57090   0.00000  Uiso   1.00
H541   H     0.89276   0.33560   0.42908   0.00000  Uiso   1.00
H542   H     0.91360   0.35824   0.57088   0.00000  Uiso   1.00
H543   H     0.60721   0.16436   0.42907   0.00000  Uiso   1.00
H544   H     0.66384   0.39150   0.42920   0.00000  Uiso   1.00
N545   N     0.50000   0.25000   0.61907   0.00000  Uiso   1.00
N546   N     0.50000   0.25000   0.38093   0.00000  Uiso   1.00
N547   N     0.75000  -0.00000   0.61907   0.00000  Uiso   1.00
N548   N     0.75000  -0.00000   0.38093   0.00000  Uiso   1.00
O549   O     0.54580   0.20419   0.53821   0.00000  Uiso   1.00
O550   O     0.70419   0.04581   0.46179   0.00000  Uiso   1.00
O551   O     0.70419   0.04581   0.53821   0.00000  Uiso   1.00
O552   O     0.79580   0.45419   0.46179   0.00000  Uiso   1.00
O553   O     0.70419   0.45419   0.46179   0.00000  Uiso   1.00
O554   O     0.79580   0.04581   0.53821   0.00000  Uiso   1.00
O555   O     0.79580   0.04581   0.46179   0.00000  Uiso   1.00
O556   O     0.70419   0.45419   0.53821   0.00000  Uiso   1.00
O557   O     0.99145   0.33052   0.37766   0.00000  Uiso   1.00
O558   O     0.50839   0.16945   0.62236   0.00000  Uiso   1.00
O559   O     0.50855   0.16948   0.37766   0.00000  Uiso   1.00
O560   O     0.95419   0.29581   0.46179   0.00000  Uiso   1.00
O561   O     0.99161   0.33055   0.62236   0.00000  Uiso   1.00
O562   O     0.75835   0.08056   0.37764   0.00000  Uiso   1.00
O563   O     0.74149   0.41947   0.62234   0.00000  Uiso   1.00
O564   O     0.74165   0.41944   0.37764   0.00000  Uiso   1.00
O565   O     0.75851   0.08053   0.62234   0.00000  Uiso   1.00
O566   O     0.95419   0.29581   0.53821   0.00000  Uiso   1.00
O567   O     0.54580   0.20419   0.46179   0.00000  Uiso   1.00
O568   O     0.95419   0.20419   0.46179   0.00000  Uiso   1.00
O569   O     0.54580   0.29581   0.53821   0.00000  Uiso   1.00
O570   O     0.54580   0.29581   0.46179   0.00000  Uiso   1.00
O571   O     0.95419   0.20419   0.53821   0.00000  Uiso   1.00
O572   O     0.79580   0.45419   0.53821   0.00000  Uiso   1.00
Zn573  Zn    0.50000   0.25000   0.55104   0.00000  Uiso   1.00
Zn574  Zn    0.50000   0.25000   0.44896   0.00000  Uiso   1.00
Zn575  Zn    0.75000   0.00000   0.55104   0.00000  Uiso   1.00
Zn576  Zn    0.75000  -0.00000   0.44896   0.00000  Uiso   1.00
C577   C     0.05986   0.68998   0.50000   0.00000  Uiso   1.00
C578   C     0.00439   0.71063   0.64301   0.00000  Uiso   1.00
C579   C     0.00442   0.71063   0.35699   0.00000  Uiso   1.00
C580   C     0.49561   0.78937   0.64301   0.00000  Uiso   1.00
C581   C     0.25437   0.53937   0.35699   0.00000  Uiso   1.00
C582   C     0.24560   0.96063   0.64301   0.00000  Uiso   1.00
C583   C     0.24563   0.96063   0.35699   0.00000  Uiso   1.00
C584   C     0.25440   0.53937   0.64301   0.00000  Uiso   1.00
C585   C     0.38519   0.64729   0.46015   0.00000  Uiso   1.00
C586   C     0.10305   0.86548   0.53984   0.00000  Uiso   1.00
C587   C     0.11484   0.85269   0.46016   0.00000  Uiso   1.00
C588   C     0.44014   0.81002   0.50000   0.00000  Uiso   1.00
C589   C     0.39692   0.63455   0.53985   0.00000  Uiso   1.00
C590   C     0.10326   0.63473   0.53988   0.00000  Uiso   1.00
C591   C     0.38525   0.85279   0.46010   0.00000  Uiso   1.00
C592   C     0.39676   0.86529   0.53987   0.00000  Uiso   1.00
C593   C     0.11473   0.64719   0.46010   0.00000  Uiso   1.00
C594   C     0.14690   0.88457   0.46017   0.00000  Uiso   1.00
C595   C     0.36485   0.60267   0.53986   0.00000  Uiso   1.00
C596   C     0.35313   0.61540   0.46016   0.00000  Uiso   1.00
C597   C     0.13512   0.89735   0.53986   0.00000  Uiso   1.00
C598   C     0.36471   0.89717   0.53989   0.00000  Uiso   1.00
C599   C     0.44015   0.68997   0.50000   0.00000  Uiso   1.00
C600   C     0.14680   0.61532   0.46011   0.00000  Uiso   1.00
C601   C     0.13531   0.60285   0.53989   0.00000  Uiso   1.00
C602   C     0.35318   0.88466   0.46012   0.00000  Uiso   1.00
C603   C     0.09301   0.84320   0.49999   0.00000  Uiso   1.00
C604   C     0.40699   0.65680   0.49999   0.00000  Uiso   1.00
C605   C     0.40696   0.84317   0.49999   0.00000  Uiso   1.00
C606   C     0.09304   0.65683   0.49999   0.00000  Uiso   1.00
C607   C     0.34304   0.59317   0.50001   0.00000  Uiso   1.00
C608   C     0.15696   0.90683   0.50002   0.00000  Uiso   1.00
C609   C     0.15699   0.59320   0.50001   0.00000  Uiso   1.00
C610   C     0.05985   0.81003   0.50000   0.00000  Uiso   1.00
C611   C     0.34301   0.90680   0.50001   0.00000  Uiso   1.00
C612   C     0.30985   0.93997   0.50000   0.00000  Uiso   1.00
C613   C     0.19015   0.56003   0.50000   0.00000  Uiso   1.00
C614   C     0.19014   0.93998   0.50000   0.00000  Uiso   1.00
C615   C     0.30986   0.56002   0.50000   0.00000  Uiso   1.00
C616   C     0.49558   0.78937   0.35699   0.00000  Uiso   1.00
H617   H     0.39260   0.66457   0.42916   0.00000  Uiso   1.00
H618   H     0.35743   0.58539   0.57085   0.00000  Uiso   1.00
H619   H     0.33620   0.60845   0.42918   0.00000  Uiso   1.00
H620   H     0.14252   0.91466   0.57084   0.00000  Uiso   1.00
H621   H     0.35721   0.91436   0.57091   0.00000  Uiso   1.00
H622   H     0.16365   0.60827   0.42910   0.00000  Uiso   1.00
H623   H     0.14282   0.58568   0.57092   0.00000  Uiso   1.00
H624   H     0.33631   0.89169   0.42911   0.00000  Uiso   1.00
H625   H     0.00037   0.82735   0.40894   0.00000  Uiso   1.00
H626   H     0.49962   0.67266   0.59104   0.00000  Uiso   1.00
H627   H     0.49963   0.67265   0.40894   0.00000  Uiso   1.00
H628   H     0.08607   0.85855   0.57081   0.00000  Uiso   1.00
H629   H     0.00038   0.82734   0.59104   0.00000  Uiso   1.00
H630   H     0.24962   0.57734   0.40897   0.00000  Uiso   1.00
H631   H     0.25037   0.92265   0.59105   0.00000  Uiso   1.00
H632   H     0.25038   0.92266   0.40897   0.00000  Uiso   1.00
H633   H     0.24963   0.57735   0.59105   0.00000  Uiso   1.00
H634   H     0.10744   0.83538   0.42917   0.00000  Uiso   1.00
H635   H     0.41388   0.64149   0.57082   0.00000  Uiso   1.00
H636   H     0.08643   0.64179   0.57090   0.00000  Uiso   1.00
H637   H     0.39276   0.83560   0.42908   0.00000  Uiso   1.00
H638   H     0.41360   0.85824   0.57088   0.00000  Uiso   1.00
H639   H     0.10721   0.66436   0.42907   0.00000  Uiso   1.00
H640   H     0.16384   0.89150   0.42920   0.00000  Uiso   1.00
N641   N    -0.00000   0.75000   0.61907   0.00000  Uiso   1.00
N642   N    -0.00000   0.75000   0.38093   0.00000  Uiso   1.00
N643   N     0.25000   0.50000   0.61907   0.00000  Uiso   1.00
N644   N     0.25000   0.50000   0.38093   0.00000  Uiso   1.00
O645   O     0.04580   0.70419   0.53821   0.00000  Uiso   1.00
O646   O     0.20419   0.54581   0.46179   0.00000  Uiso   1.00
O647   O     0.20419   0.54581   0.53821   0.00000  Uiso   1.00
O648   O     0.29580   0.95419   0.46179   0.00000  Uiso   1.00
O649   O     0.20419   0.95419   0.46179   0.00000  Uiso   1.00
O650   O     0.29580   0.54581   0.53821   0.00000  Uiso   1.00
O651   O     0.29580   0.54581   0.46179   0.00000  Uiso   1.00
O652   O     0.20419   0.95419   0.53821   0.00000  Uiso   1.00
O653   O     0.49145   0.83052   0.37766   0.00000  Uiso   1.00
O654   O     0.00839   0.66945   0.62236   0.00000  Uiso   1.00
O655   O     0.00855   0.66948   0.37766   0.00000  Uiso   1.00
O656   O     0.45419   0.79581   0.46179   0.00000  Uiso   1.00
O657   O     0.49161   0.83055   0.62236   0.00000  Uiso   1.00
O658   O     0.25835   0.58056   0.37764   0.00000  Uiso   1.00
O659   O     0.24149   0.91947   0.62234   0.00000  Uiso   1.00
O660   O     0.24165   0.91944   0.37764   0.00000  Uiso   1.00
O661   O     0.25851   0.58053   0.62234   0.00000  Uiso   1.00
O662   O     0.45419   0.79581   0.53821   0.00000  Uiso   1.00
O663   O     0.04580   0.70419   0.46179   0.00000  Uiso   1.00
O664   O     0.45419   0.70419   0.46179   0.00000  Uiso   1.00
O665   O     0.04580   0.79581   0.53821   0.00000  Uiso   1.00
O666   O     0.04580   0.79581   0.46179   0.00000  Uiso   1.00
O667   O     0.45419   0.70419   0.53821   0.00000  Uiso   1.00
O668   O     0.29580   0.95419   0.53821   0.00000  Uiso   1.00
Zn669  Zn   -0.00000   0.75000   0.55104   0.00000  Uiso   1.00
Zn670  Zn   -0.00000   0.75000   0.44896   0.00000  Uiso   1.00
Zn671  Zn    0.25000   0.50000   0.55104   0.00000  Uiso   1.00
Zn672  Zn    0.25000   0.50000   0.44896   0.00000  Uiso   1.00
C673   C     0.55986   0.68998   0.50000   0.00000  Uiso   1.00
C674   C     0.50439   0.71063   0.64301   0.00000  Uiso   1.00
C675   C     0.50442   0.71063   0.35699   0.00000  Uiso   1.00
C676   C     0.99561   0.78937   0.64301   0.00000  Uiso   1.00
C677   C     0.75437   0.53937   0.35699   0.00000  Uiso   1.00
C678   C     0.74560   0.96063   0.64301   0.00000  Uiso   1.00
C679   C     0.74563   0.96063   0.35699   0.00000  Uiso   1.00
C680   C     0.75440   0.53937   0.64301   0.00000  Uiso   1.00
C681   C     0.88519   0.64729   0.46015   0.00000  Uiso   1.00
C682   C     0.60305   0.86548   0.53984   0.00000  Uiso   1.00
C683   C     0.61484   0.85269   0.46016   0.00000  Uiso   1.00
C684   C     0.94014   0.81002   0.50000   0.00000  Uiso   1.00
C685   C     0.89692   0.63455   0.53985   0.00000  Uiso   1.00
C686   C     0.60326   0.63473   0.53988   0.00000  Uiso   1.00
C687   C     0.88525   0.85279   0.46010   0.00000  Uiso   1.00
C688   C     0.89676   0.86529   0.53987   0.00000  Uiso   1.00
C689   C     0.61473   0.64719   0.46010   0.00000  Uiso   1.00
C690   C     0.64690   0.88457   0.46017   0.00000  Uiso   1.00
C691   C     0.86485   0.60267   0.53986   0.00000  Uiso   1.00
C692   C     0.85313   0.61540   0.46016   0.00000  Uiso   1.00
C693   C     0.63512   0.89735   0.53986   0.00000  Uiso   1.00
C694   C     0.86471   0.89717   0.53989   0.00000  Uiso   1.00
C695   C     0.94015   0.68997   0.50000   0.00000  Uiso   1.00
C696   C     0.64680   0.61532   0.46011   0.00000  Uiso   1.00
C697   C     0.63531   0.60285   0.53989   0.00000  Uiso   1.00
C698   C     0.85318   0.88466   0.46012   0.00000  Uiso   1.00
C699   C     0.59301   0.84320   0.49999   0.00000  Uiso   1.00
C700   C     0.90699   0.65680   0.49999   0.00000  Uiso   1.00
C701   C     0.90696   0.84317   0.49999   0.00000  Uiso   1.00
C702   C     0.59304   0.65683   0.49999   0.00000  Uiso   1.00
C703   C     0.84304   0.59317   0.50001   0.00000  Uiso   1.00
C704   C     0.65696   0.90683   0.50002   0.00000  Uiso   1.00
C705   C     0.65699   0.59320   0.50001   0.00000  Uiso   1.00
C706   C     0.55985   0.81003   0.50000   0.00000  Uiso   1.00
C707   C     0.84301   0.90680   0.50001   0.00000  Uiso   1.00
C708   C     0.80985   0.93997   0.50000   0.00000  Uiso   1.00
C709   C     0.69015   0.56003   0.50000   0.00000  Uiso   1.00
C710   C     0.69014   0.93998   0.50000   0.00000  Uiso   1.00
C711   C     0.80986   0.56002   0.50000   0.00000  Uiso   1.00
C712   C     0.99558   0.78937   0.35699   0.00000  Uiso   1.00
H713   H     0.89260   0.66457   0.42916   0.00000  Uiso   1.00
H714   H     0.85743   0.58539   0.57085   0.00000  Uiso   1.00
H715   H     0.83620   0.60845   0.42918   0.00000  Uiso   1.00
H716   H     0.64252   0.91466   0.57084   0.00000  Uiso   1.00
H717   H     0.85721   0.91436   0.57091   0.00000  Uiso   1.00
H718   H     0.66365   0.60827   0.42910   0.00000  Uiso   1.00
H719   H     0.64282   0.58568   0.57092   0.00000  Uiso   1.00
H720   H     0.83631   0.89169   0.42911   0.00000  Uiso   1.00
H721   H     0.50037   0.82735   0.40894   0.00000  Uiso   1.00
H722   H     0.99962   0.67266   0.59104   0.00000  Uiso   1.00
H723   H     0.99963   0.67265   0.40894   0.00000  Uiso   1.00
H724   H     0.58607   0.85855   0.57081   0.00000  Uiso   1.00
H725   H     0.50038   0.82734   0.59104   0.00000  Uiso   1.00
H726   H     0.74962   0.57734   0.40897   0.00000  Uiso   1.00
H727   H     0.75037   0.92265   0.59105   0.00000  Uiso   1.00
H728   H     0.75038   0.92266   0.40897   0.00000  Uiso   1.00
H729   H     0.74963   0.57735   0.59105   0.00000  Uiso   1.00
H730   H     0.60744   0.83538   0.42917   0.00000  Uiso   1.00
H731   H     0.91388   0.64149   0.57082   0.00000  Uiso   1.00
H732   H     0.58643   0.64179   0.57090   0.00000  Uiso   1.00
H733   H     0.89276   0.83560   0.42908   0.00000  Uiso   1.00
H734   H     0.91360   0.85824   0.57088   0.00000  Uiso   1.00
H735   H     0.60721   0.66436   0.42907   0.00000  Uiso   1.00
H736   H     0.66384   0.89150   0.42920   0.00000  Uiso   1.00
N737   N     0.50000   0.75000   0.61907   0.00000  Uiso   1.00
N738   N     0.50000   0.75000   0.38093   0.00000  Uiso   1.00
N739   N     0.75000   0.50000   0.61907   0.00000  Uiso   1.00
N740   N     0.75000   0.50000   0.38093   0.00000  Uiso   1.00
O741   O     0.54580   0.70419   0.53821   0.00000  Uiso   1.00
O742   O     0.70419   0.54581   0.46179   0.00000  Uiso   1.00
O743   O     0.70419   0.54581   0.53821   0.00000  Uiso   1.00
O744   O     0.79580   0.95419   0.46179   0.00000  Uiso   1.00
O745   O     0.70419   0.95419   0.46179   0.00000  Uiso   1.00
O746   O     0.79580   0.54581   0.53821   0.00000  Uiso   1.00
O747   O     0.79580   0.54581   0.46179   0.00000  Uiso   1.00
O748   O     0.70419   0.95419   0.53821   0.00000  Uiso   1.00
O749   O     0.99145   0.83052   0.37766   0.00000  Uiso   1.00
O750   O     0.50839   0.66945   0.62236   0.00000  Uiso   1.00
O751   O     0.50855   0.66948   0.37766   0.00000  Uiso   1.00
O752   O     0.95419   0.79581   0.46179   0.00000  Uiso   1.00
O753   O     0.99161   0.83055   0.62236   0.00000  Uiso   1.00
O754   O     0.75835   0.58056   0.37764   0.00000  Uiso   1.00
O755   O     0.74149   0.91947   0.62234   0.00000  Uiso   1.00
O756   O     0.74165   0.91944   0.37764   0.00000  Uiso   1.00
O757   O     0.75851   0.58053   0.62234   0.00000  Uiso   1.00
O758   O     0.95419   0.79581   0.53821   0.00000  Uiso   1.00
O759   O     0.54580   0.70419   0.46179   0.00000  Uiso   1.00
O760   O     0.95419   0.70419   0.46179   0.00000  Uiso   1.00
O761   O     0.54580   0.79581   0.53821   0.00000  Uiso   1.00
O762   O     0.54580   0.79581   0.46179   0.00000  Uiso   1.00
O763   O     0.95419   0.70419   0.53821   0.00000  Uiso   1.00
O764   O     0.79580   0.95419   0.53821   0.00000  Uiso   1.00
Zn765  Zn    0.50000   0.75000   0.55104   0.00000  Uiso   1.00
Zn766  Zn    0.50000   0.75000   0.44896   0.00000  Uiso   1.00
Zn767  Zn    0.75000   0.50000   0.55104   0.00000  Uiso   1.00
Zn768  Zn    0.75000   0.50000   0.44896   0.00000  Uiso   1.00
C769   C     0.05986   0.18998   0.83333   0.00000  Uiso   1.00
C770   C     0.00439   0.21063   0.97635   0.00000  Uiso   1.00
C771   C     0.00442   0.21063   0.69033   0.00000  Uiso   1.00
C772   C     0.49561   0.28937   0.97635   0.00000  Uiso   1.00
C773   C     0.25437   0.03937   0.69032   0.00000  Uiso   1.00
C774   C     0.24560   0.46063   0.97634   0.00000  Uiso   1.00
C775   C     0.24563   0.46063   0.69032   0.00000  Uiso   1.00
C776   C     0.25440   0.03937   0.97634   0.00000  Uiso   1.00
C777   C     0.38519   0.14729   0.79348   0.00000  Uiso   1.00
C778   C     0.10305   0.36548   0.87317   0.00000  Uiso   1.00
C779   C     0.11484   0.35269   0.79349   0.00000  Uiso   1.00
C780   C     0.44014   0.31002   0.83333   0.00000  Uiso   1.00
C781   C     0.39692   0.13455   0.87318   0.00000  Uiso   1.00
C782   C     0.10326   0.13473   0.87321   0.00000  Uiso   1.00
C783   C     0.38525   0.35279   0.79344   0.00000  Uiso   1.00
C784   C     0.39676   0.36529   0.87321   0.00000  Uiso   1.00
C785   C     0.11473   0.14719   0.79343   0.00000  Uiso   1.00
C786   C     0.14690   0.38457   0.79350   0.00000  Uiso   1.00
C787   C     0.36485   0.10267   0.87320   0.00000  Uiso   1.00
C788   C     0.35313   0.11540   0.79349   0.00000  Uiso   1.00
C789   C     0.13512   0.39735   0.87319   0.00000  Uiso   1.00
C790   C     0.36471   0.39717   0.87322   0.00000  Uiso   1.00
C791   C     0.44015   0.18997   0.83333   0.00000  Uiso   1.00
C792   C     0.14680   0.11532   0.79344   0.00000  Uiso   1.00
C793   C     0.13531   0.10285   0.87323   0.00000  Uiso   1.00
C794   C     0.35318   0.38466   0.79345   0.00000  Uiso   1.00
C795   C     0.09301   0.34320   0.83333   0.00000  Uiso   1.00
C796   C     0.40699   0.15680   0.83333   0.00000  Uiso   1.00
C797   C     0.40696   0.34317   0.83332   0.00000  Uiso   1.00
C798   C     0.09304   0.15683   0.83332   0.00000  Uiso   1.00
C799   C     0.34304   0.09317   0.83335   0.00000  Uiso   1.00
C800   C     0.15696   0.40683   0.83335   0.00000  Uiso   1.00
C801   C     0.15699   0.09320   0.83334   0.00000  Uiso   1.00
C802   C     0.05985   0.31003   0.83333   0.00000  Uiso   1.00
C803   C     0.34301   0.40680   0.83334   0.00000  Uiso   1.00
C804   C     0.30985   0.43997   0.83333   0.00000  Uiso   1.00
C805   C     0.19015   0.06003   0.83333   0.00000  Uiso   1.00
C806   C     0.19014   0.43998   0.83334   0.00000  Uiso   1.00
C807   C     0.30986   0.06002   0.83334   0.00000  Uiso   1.00
C808   C     0.49558   0.28937   0.69033   0.00000  Uiso   1.00
H809   H     0.39260   0.16457   0.76249   0.00000  Uiso   1.00
H810   H     0.35743   0.08539   0.90419   0.00000  Uiso   1.00
H811   H     0.33620   0.10845   0.76251   0.00000  Uiso   1.00
H812   H     0.14252   0.41466   0.90417   0.00000  Uiso   1.00
H813   H     0.35721   0.41436   0.90424   0.00000  Uiso   1.00
H814   H     0.16365   0.10827   0.76243   0.00000  Uiso   1.00
H815   H     0.14282   0.08568   0.90425   0.00000  Uiso   1.00
H816   H     0.33631   0.39169   0.76245   0.00000  Uiso   1.00
H817   H     0.00037   0.32735   0.74228   0.00000  Uiso   1.00
H818   H     0.49962   0.17266   0.92438   0.00000  Uiso   1.00
H819   H     0.49963   0.17265   0.74228   0.00000  Uiso   1.00
H820   H     0.08607   0.35855   0.90414   0.00000  Uiso   1.00
H821   H     0.00038   0.32734   0.92438   0.00000  Uiso   1.00
H822   H     0.24962   0.07734   0.74230   0.00000  Uiso   1.00
H823   H     0.25037   0.42265   0.92438   0.00000  Uiso   1.00
H824   H     0.25038   0.42266   0.74230   0.00000  Uiso   1.00
H825   H     0.24963   0.07735   0.92438   0.00000  Uiso   1.00
H826   H     0.10744   0.33538   0.76251   0.00000  Uiso   1.00
H827   H     0.41388   0.14149   0.90416   0.00000  Uiso   1.00
H828   H     0.08643   0.14179   0.90423   0.00000  Uiso   1.00
H829   H     0.39276   0.33560   0.76242   0.00000  Uiso   1.00
H830   H     0.41360   0.35824   0.90422   0.00000  Uiso   1.00
H831   H     0.10721   0.16436   0.76240   0.00000  Uiso   1.00
H832   H     0.16384   0.39150   0.76253   0.00000  Uiso   1.00
N833   N    -0.00000   0.25000   0.95240   0.00000  Uiso   1.00
N834   N    -0.00000   0.25000   0.71427   0.00000  Uiso   1.00
N835   N     0.25000  -0.00000   0.95240   0.00000  Uiso   1.00
N836   N     0.25000  -0.00000   0.71427   0.00000  Uiso   1.00
O837   O     0.04580   0.20419   0.87154   0.00000  Uiso   1.00
O838   O     0.20419   0.04581   0.79513   0.00000  Uiso   1.00
O839   O     0.20419   0.04581   0.87154   0.00000  Uiso   1.00
O840   O     0.29580   0.45419   0.79513   0.00000  Uiso   1.00
O841   O     0.20419   0.45419   0.79513   0.00000  Uiso   1.00
O842   O     0.29580   0.04581   0.87154   0.00000  Uiso   1.00
O843   O     0.29580   0.04581   0.79513   0.00000  Uiso   1.00
O844   O     0.20419   0.45419   0.87154   0.00000  Uiso   1.00
O845   O     0.49145   0.33052   0.71099   0.00000  Uiso   1.00
O846   O     0.00839   0.16945   0.95570   0.00000  Uiso   1.00
O847   O     0.00855   0.16948   0.71099   0.00000  Uiso   1.00
O848   O     0.45419   0.29581   0.79513   0.00000  Uiso   1.00
O849   O     0.49161   0.33055   0.95570   0.00000  Uiso   1.00
O850   O     0.25835   0.08056   0.71097   0.00000  Uiso   1.00
O851   O     0.24149   0.41947   0.95568   0.00000  Uiso   1.00
O852   O     0.24165   0.41944   0.71097   0.00000  Uiso   1.00
O853   O     0.25851   0.08053   0.95567   0.00000  Uiso   1.00
O854   O     0.45419   0.29581   0.87154   0.00000  Uiso   1.00
O855   O     0.04580   0.20419   0.79513   0.00000  Uiso   1.00
O856   O     0.45419   0.20419   0.79513   0.00000  Uiso   1.00
O857   O     0.04580   0.29581   0.87154   0.00000  Uiso   1.00
O858   O     0.04580   0.29581   0.79513   0.00000  Uiso   1.00
O859   O     0.45419   0.20419   0.87154   0.00000  Uiso   1.00
O860   O     0.29580   0.45419   0.87154   0.00000  Uiso   1.00
Zn861  Zn   -0.00000   0.25000   0.88437   0.00000  Uiso   1.00
Zn862  Zn   -0.00000   0.25000   0.78229   0.00000  Uiso   1.00
Zn863  Zn    0.25000   0.00000   0.88437   0.00000  Uiso   1.00
Zn864  Zn    0.25000  -0.00000   0.78229   0.00000  Uiso   1.00
C865   C     0.55986   0.18998   0.83333   0.00000  Uiso   1.00
C866   C     0.50439   0.21063   0.97635   0.00000  Uiso   1.00
C867   C     0.50442   0.21063   0.69033   0.00000  Uiso   1.00
C868   C     0.99561   0.28937   0.97635   0.00000  Uiso   1.00
C869   C     0.75437   0.03937   0.69032   0.00000  Uiso   1.00
C870   C     0.74560   0.46063   0.97634   0.00000  Uiso   1.00
C871   C     0.74563   0.46063   0.69032   0.00000  Uiso   1.00
C872   C     0.75440   0.03937   0.97634   0.00000  Uiso   1.00
C873   C     0.88519   0.14729   0.79348   0.00000  Uiso   1.00
C874   C     0.60305   0.36548   0.87317   0.00000  Uiso   1.00
C875   C     0.61484   0.35269   0.79349   0.00000  Uiso   1.00
C876   C     0.94014   0.31002   0.83333   0.00000  Uiso   1.00
C877   C     0.89692   0.13455   0.87318   0.00000  Uiso   1.00
C878   C     0.60326   0.13473   0.87321   0.00000  Uiso   1.00
C879   C     0.88525   0.35279   0.79344   0.00000  Uiso   1.00
C880   C     0.89676   0.36529   0.87321   0.00000  Uiso   1.00
C881   C     0.61473   0.14719   0.79343   0.00000  Uiso   1.00
C882   C     0.64690   0.38457   0.79350   0.00000  Uiso   1.00
C883   C     0.86485   0.10267   0.87320   0.00000  Uiso   1.00
C884   C     0.85313   0.11540   0.79349   0.00000  Uiso   1.00
C885   C     0.63512   0.39735   0.87319   0.00000  Uiso   1.00
C886   C     0.86471   0.39717   0.87322   0.00000  Uiso   1.00
C887   C     0.94015   0.18997   0.83333   0.00000  Uiso   1.00
C888   C     0.64680   0.11532   0.79344   0.00000  Uiso   1.00
C889   C     0.63531   0.10285   0.87323   0.00000  Uiso   1.00
C890   C     0.85318   0.38466   0.79345   0.00000  Uiso   1.00
C891   C     0.59301   0.34320   0.83333   0.00000  Uiso   1.00
C892   C     0.90699   0.15680   0.83333   0.00000  Uiso   1.00
C893   C     0.90696   0.34317   0.83332   0.00000  Uiso   1.00
C894   C     0.59304   0.15683   0.83332   0.00000  Uiso   1.00
C895   C     0.84304   0.09317   0.83335   0.00000  Uiso   1.00
C896   C     0.65696   0.40683   0.83335   0.00000  Uiso   1.00
C897   C     0.65699   0.09320   0.83334   0.00000  Uiso   1.00
C898   C     0.55985   0.31003   0.83333   0.00000  Uiso   1.00
C899   C     0.84301   0.40680   0.83334   0.00000  Uiso   1.00
C900   C     0.80985   0.43997   0.83333   0.00000  Uiso   1.00
C901   C     0.69015   0.06003   0.83333   0.00000  Uiso   1.00
C902   C     0.69014   0.43998   0.83334   0.00000  Uiso   1.00
C903   C     0.80986   0.06002   0.83334   0.00000  Uiso   1.00
C904   C     0.99558   0.28937   0.69033   0.00000  Uiso   1.00
H905   H     0.89260   0.16457   0.76249   0.00000  Uiso   1.00
H906   H     0.85743   0.08539   0.90419   0.00000  Uiso   1.00
H907   H     0.83620   0.10845   0.76251   0.00000  Uiso   1.00
H908   H     0.64252   0.41466   0.90417   0.00000  Uiso   1.00
H909   H     0.85721   0.41436   0.90424   0.00000  Uiso   1.00
H910   H     0.66365   0.10827   0.76243   0.00000  Uiso   1.00
H911   H     0.64282   0.08568   0.90425   0.00000  Uiso   1.00
H912   H     0.83631   0.39169   0.76245   0.00000  Uiso   1.00
H913   H     0.50037   0.32735   0.74228   0.00000  Uiso   1.00
H914   H     0.99962   0.17266   0.92438   0.00000  Uiso   1.00
H915   H     0.99963   0.17265   0.74228   0.00000  Uiso   1.00
H916   H     0.58607   0.35855   0.90414   0.00000  Uiso   1.00
H917   H     0.50038   0.32734   0.92438   0.00000  Uiso   1.00
H918   H     0.74962   0.07734   0.74230   0.00000  Uiso   1.00
H919   H     0.75037   0.42265   0.92438   0.00000  Uiso   1.00
H920   H     0.75038   0.42266   0.74230   0.00000  Uiso   1.00
H921   H     0.74963   0.07735   0.92438   0.00000  Uiso   1.00
H922   H     0.60744   0.33538   0.76251   0.00000  Uiso   1.00
H923   H     0.91388   0.14149   0.90416   0.00000  Uiso   1.00
H924   H     0.58643   0.14179   0.90423   0.00000  Uiso   1.00
H925   H     0.89276   0.33560   0.76242   0.00000  Uiso   1.00
H926   H     0.91360   0.35824   0.90422   0.00000  Uiso   1.00
H927   H     0.60721   0.16436   0.76240   0.00000  Uiso   1.00
H928   H     0.66384   0.39150   0.76253   0.00000  Uiso   1.00
N929   N     0.50000   0.25000   0.95240   0.00000  Uiso   1.00
N930   N     0.50000   0.25000   0.71427   0.00000  Uiso   1.00
N931   N     0.75000  -0.00000   0.95240   0.00000  Uiso   1.00
N932   N     0.75000  -0.00000   0.71427   0.00000  Uiso   1.00
O933   O     0.54580   0.20419   0.87154   0.00000  Uiso   1.00
O934   O     0.70419   0.04581   0.79513   0.00000  Uiso   1.00
O935   O     0.70419   0.04581   0.87154   0.00000  Uiso   1.00
O936   O     0.79580   0.45419   0.79513   0.00000  Uiso   1.00
O937   O     0.70419   0.45419   0.79513   0.00000  Uiso   1.00
O938   O     0.79580   0.04581   0.87154   0.00000  Uiso   1.00
O939   O     0.79580   0.04581   0.79513   0.00000  Uiso   1.00
O940   O     0.70419   0.45419   0.87154   0.00000  Uiso   1.00
O941   O     0.99145   0.33052   0.71099   0.00000  Uiso   1.00
O942   O     0.50839   0.16945   0.95570   0.00000  Uiso   1.00
O943   O     0.50855   0.16948   0.71099   0.00000  Uiso   1.00
O944   O     0.95419   0.29581   0.79513   0.00000  Uiso   1.00
O945   O     0.99161   0.33055   0.95570   0.00000  Uiso   1.00
O946   O     0.75835   0.08056   0.71097   0.00000  Uiso   1.00
O947   O     0.74149   0.41947   0.95568   0.00000  Uiso   1.00
O948   O     0.74165   0.41944   0.71097   0.00000  Uiso   1.00
O949   O     0.75851   0.08053   0.95567   0.00000  Uiso   1.00
O950   O     0.95419   0.29581   0.87154   0.00000  Uiso   1.00
O951   O     0.54580   0.20419   0.79513   0.00000  Uiso   1.00
O952   O     0.95419   0.20419   0.79513   0.00000  Uiso   1.00
O953   O     0.54580   0.29581   0.87154   0.00000  Uiso   1.00
O954   O     0.54580   0.29581   0.79513   0.00000  Uiso   1.00
O955   O     0.95419   0.20419   0.87154   0.00000  Uiso   1.00
O956   O     0.79580   0.45419   0.87154   0.00000  Uiso   1.00
Zn957  Zn    0.50000   0.25000   0.88437   0.00000  Uiso   1.00
Zn958  Zn    0.50000   0.25000   0.78229   0.00000  Uiso   1.00
Zn959  Zn    0.75000   0.00000   0.88437   0.00000  Uiso   1.00
Zn960  Zn    0.75000  -0.00000   0.78229   0.00000  Uiso   1.00
C961   C     0.05986   0.68998   0.83333   0.00000  Uiso   1.00
C962   C     0.00439   0.71063   0.97635   0.00000  Uiso   1.00
C963   C     0.00442   0.71063   0.69033   0.00000  Uiso   1.00
C964   C     0.49561   0.78937   0.97635   0.00000  Uiso   1.00
C965   C     0.25437   0.53937   0.69032   0.00000  Uiso   1.00
C966   C     0.24560   0.96063   0.97634   0.00000  Uiso   1.00
C967   C     0.24563   0.96063   0.69032   0.00000  Uiso   1.00
C968   C     0.25440   0.53937   0.97634   0.00000  Uiso   1.00
C969   C     0.38519   0.64729   0.79348   0.00000  Uiso   1.00
C970   C     0.10305   0.86548   0.87317   0.00000  Uiso   1.00
C971   C     0.11484   0.85269   0.79349   0.00000  Uiso   1.00
C972   C     0.44014   0.81002   0.83333   0.00000  Uiso   1.00
C973   C     0.39692   0.63455   0.87318   0.00000  Uiso   1.00
C974   C     0.10326   0.63473   0.87321   0.00000  Uiso   1.00
C975   C     0.38525   0.85279   0.79344   0.00000  Uiso   1.00
C976   C     0.39676   0.86529   0.87321   0.00000  Uiso   1.00
C977   C     0.11473   0.64719   0.79343   0.00000  Uiso   1.00
C978   C     0.14690   0.88457   0.79350   0.00000  Uiso   1.00
C979   C     0.36485   0.60267   0.87320   0.00000  Uiso   1.00
C980   C     0.35313   0.61540   0.79349   0.00000  Uiso   1.00
C981   C     0.13512   0.89735   0.87319   0.00000  Uiso   1.00
C982   C     0.36471   0.89717   0.87322   0.00000  Uiso   1.00
C983   C     0.44015   0.68997   0.83333   0.00000  Uiso   1.00
C984   C     0.14680   0.61532   0.79344   0.00000  Uiso   1.00
C985   C     0.13531   0.60285   0.87323   0.00000  Uiso   1.00
C986   C     0.35318   0.88466   0.79345   0.00000  Uiso   1.00
C987   C     0.09301   0.84320   0.83333   0.00000  Uiso   1.00
C988   C     0.40699   0.65680   0.83333   0.00000  Uiso   1.00
C989   C     0.40696   0.84317   0.83332   0.00000  Uiso   1.00
C990   C     0.09304   0.65683   0.83332   0.00000  Uiso   1.00
C991   C     0.34304   0.59317   0.83335   0.00000  Uiso   1.00
C992   C     0.15696   0.90683   0.83335   0.00000  Uiso   1.00
C993   C     0.15699   0.59320   0.83334   0.00000  Uiso   1.00
C994   C     0.05985   0.81003   0.83333   0.00000  Uiso   1.00
C995   C     0.34301   0.90680   0.83334   0.00000  Uiso   1.00
C996   C     0.30985   0.93997   0.83333   0.00000  Uiso   1.00
C997   C     0.19015   0.56003   0.83333   0.00000  Uiso   1.00
C998   C     0.19014   0.93998   0.83334   0.00000  Uiso   1.00
C999   C     0.30986   0.56002   0.83334   0.00000  Uiso   1.00
C1000  C     0.49558   0.78937   0.69033   0.00000  Uiso   1.00
H1001  H     0.39260   0.66457   0.76249   0.00000  Uiso   1.00
H1002  H     0.35743   0.58539   0.90419   0.00000  Uiso   1.00
H1003  H     0.33620   0.60845   0.76251   0.00000  Uiso   1.00
H1004  H     0.14252   0.91466   0.90417   0.00000  Uiso   1.00
H1005  H     0.35721   0.91436   0.90424   0.00000  Uiso   1.00
H1006  H     0.16365   0.60827   0.76243   0.00000  Uiso   1.00
H1007  H     0.14282   0.58568   0.90425   0.00000  Uiso   1.00
H1008  H     0.33631   0.89169   0.76245   0.00000  Uiso   1.00
H1009  H     0.00037   0.82735   0.74228   0.00000  Uiso   1.00
H1010  H     0.49962   0.67266   0.92438   0.00000  Uiso   1.00
H1011  H     0.49963   0.67265   0.74228   0.00000  Uiso   1.00
H1012  H     0.08607   0.85855   0.90414   0.00000  Uiso   1.00
H1013  H     0.00038   0.82734   0.92438   0.00000  Uiso   1.00
H1014  H     0.24962   0.57734   0.74230   0.00000  Uiso   1.00
H1015  H     0.25037   0.92265   0.92438   0.00000  Uiso   1.00
H1016  H     0.25038   0.92266   0.74230   0.00000  Uiso   1.00
H1017  H     0.24963   0.57735   0.92438   0.00000  Uiso   1.00
H1018  H     0.10744   0.83538   0.76251   0.00000  Uiso   1.00
H1019  H     0.41388   0.64149   0.90416   0.00000  Uiso   1.00
H1020  H     0.08643   0.64179   0.90423   0.00000  Uiso   1.00
H1021  H     0.39276   0.83560   0.76242   0.00000  Uiso   1.00
H1022  H     0.41360   0.85824   0.90422   0.00000  Uiso   1.00
H1023  H     0.10721   0.66436   0.76240   0.00000  Uiso   1.00
H1024  H     0.16384   0.89150   0.76253   0.00000  Uiso   1.00
N1025  N    -0.00000   0.75000   0.95240   0.00000  Uiso   1.00
N1026  N    -0.00000   0.75000   0.71427   0.00000  Uiso   1.00
N1027  N     0.25000   0.50000   0.95240   0.00000  Uiso   1.00
N1028  N     0.25000   0.50000   0.71427   0.00000  Uiso   1.00
O1029  O     0.04580   0.70419   0.87154   0.00000  Uiso   1.00
O1030  O     0.20419   0.54581   0.79513   0.00000  Uiso   1.00
O1031  O     0.20419   0.54581   0.87154   0.00000  Uiso   1.00
O1032  O     0.29580   0.95419   0.79513   0.00000  Uiso   1.00
O1033  O     0.20419   0.95419   0.79513   0.00000  Uiso   1.00
O1034  O     0.29580   0.54581   0.87154   0.00000  Uiso   1.00
O1035  O     0.29580   0.54581   0.79513   0.00000  Uiso   1.00
O1036  O     0.20419   0.95419   0.87154   0.00000  Uiso   1.00
O1037  O     0.49145   0.83052   0.71099   0.00000  Uiso   1.00
O1038  O     0.00839   0.66945   0.95570   0.00000  Uiso   1.00
O1039  O     0.00855   0.66948   0.71099   0.00000  Uiso   1.00
O1040  O     0.45419   0.79581   0.79513   0.00000  Uiso   1.00
O1041  O     0.49161   0.83055   0.95570   0.00000  Uiso   1.00
O1042  O     0.25835   0.58056   0.71097   0.00000  Uiso   1.00
O1043  O     0.24149   0.91947   0.95568   0.00000  Uiso   1.00
O1044  O     0.24165   0.91944   0.71097   0.00000  Uiso   1.00
O1045  O     0.25851   0.58053   0.95567   0.00000  Uiso   1.00
O1046  O     0.45419   0.79581   0.87154   0.00000  Uiso   1.00
O1047  O     0.04580   0.70419   0.79513   0.00000  Uiso   1.00
O1048  O     0.45419   0.70419   0.79513   0.00000  Uiso   1.00
O1049  O     0.04580   0.79581   0.87154   0.00000  Uiso   1.00
O1050  O     0.04580   0.79581   0.79513   0.00000  Uiso   1.00
O1051  O     0.45419   0.70419   0.87154   0.00000  Uiso   1.00
O1052  O     0.29580   0.95419   0.87154   0.00000  Uiso   1.00
Zn1053 Zn   -0.00000   0.75000   0.88437   0.00000  Uiso   1.00
Zn1054 Zn   -0.00000   0.75000   0.78229   0.00000  Uiso   1.00
Zn1055 Zn    0.25000   0.50000   0.88437   0.00000  Uiso   1.00
Zn1056 Zn    0.25000   0.50000   0.78229   0.00000  Uiso   1.00
C1057  C     0.55986   0.68998   0.83333   0.00000  Uiso   1.00
C1058  C     0.50439   0.71063   0.97635   0.00000  Uiso   1.00
C1059  C     0.50442   0.71063   0.69033   0.00000  Uiso   1.00
C1060  C     0.99561   0.78937   0.97635   0.00000  Uiso   1.00
C1061  C     0.75437   0.53937   0.69032   0.00000  Uiso   1.00
C1062  C     0.74560   0.96063   0.97634   0.00000  Uiso   1.00
C1063  C     0.74563   0.96063   0.69032   0.00000  Uiso   1.00
C1064  C     0.75440   0.53937   0.97634   0.00000  Uiso   1.00
C1065  C     0.88519   0.64729   0.79348   0.00000  Uiso   1.00
C1066  C     0.60305   0.86548   0.87317   0.00000  Uiso   1.00
C1067  C     0.61484   0.85269   0.79349   0.00000  Uiso   1.00
C1068  C     0.94014   0.81002   0.83333   0.00000  Uiso   1.00
C1069  C     0.89692   0.63455   0.87318   0.00000  Uiso   1.00
C1070  C     0.60326   0.63473   0.87321   0.00000  Uiso   1.00
C1071  C     0.88525   0.85279   0.79344   0.00000  Uiso   1.00
C1072  C     0.89676   0.86529   0.87321   0.00000  Uiso   1.00
C1073  C     0.61473   0.64719   0.79343   0.00000  Uiso   1.00
C1074  C     0.64690   0.88457   0.79350   0.00000  Uiso   1.00
C1075  C     0.86485   0.60267   0.87320   0.00000  Uiso   1.00
C1076  C     0.85313   0.61540   0.79349   0.00000  Uiso   1.00
C1077  C     0.63512   0.89735   0.87319   0.00000  Uiso   1.00
C1078  C     0.86471   0.89717   0.87322   0.00000  Uiso   1.00
C1079  C     0.94015   0.68997   0.83333   0.00000  Uiso   1.00
C1080  C     0.64680   0.61532   0.79344   0.00000  Uiso   1.00
C1081  C     0.63531   0.60285   0.87323   0.00000  Uiso   1.00
C1082  C     0.85318   0.88466   0.79345   0.00000  Uiso   1.00
C1083  C     0.59301   0.84320   0.83333   0.00000  Uiso   1.00
C1084  C     0.90699   0.65680   0.83333   0.00000  Uiso   1.00
C1085  C     0.90696   0.84317   0.83332   0.00000  Uiso   1.00
C1086  C     0.59304   0.65683   0.83332   0.00000  Uiso   1.00
C1087  C     0.84304   0.59317   0.83335   0.00000  Uiso   1.00
C1088  C     0.65696   0.90683   0.83335   0.00000  Uiso   1.00
C1089  C     0.65699   0.59320   0.83334   0.00000  Uiso   1.00
C1090  C     0.55985   0.81003   0.83333   0.00000  Uiso   1.00
C1091  C     0.84301   0.90680   0.83334   0.00000  Uiso   1.00
C1092  C     0.80985   0.93997   0.83333   0.00000  Uiso   1.00
C1093  C     0.69015   0.56003   0.83333   0.00000  Uiso   1.00
C1094  C     0.69014   0.93998   0.83334   0.00000  Uiso   1.00
C1095  C     0.80986   0.56002   0.83334   0.00000  Uiso   1.00
C1096  C     0.99558   0.78937   0.69033   0.00000  Uiso   1.00
H1097  H     0.89260   0.66457   0.76249   0.00000  Uiso   1.00
H1098  H     0.85743   0.58539   0.90419   0.00000  Uiso   1.00
H1099  H     0.83620   0.60845   0.76251   0.00000  Uiso   1.00
H1100  H     0.64252   0.91466   0.90417   0.00000  Uiso   1.00
H1101  H     0.85721   0.91436   0.90424   0.00000  Uiso   1.00
H1102  H     0.66365   0.60827   0.76243   0.00000  Uiso   1.00
H1103  H     0.64282   0.58568   0.90425   0.00000  Uiso   1.00
H1104  H     0.83631   0.89169   0.76245   0.00000  Uiso   1.00
H1105  H     0.50037   0.82735   0.74228   0.00000  Uiso   1.00
H1106  H     0.99962   0.67266   0.92438   0.00000  Uiso   1.00
H1107  H     0.99963   0.67265   0.74228   0.00000  Uiso   1.00
H1108  H     0.58607   0.85855   0.90414   0.00000  Uiso   1.00
H1109  H     0.50038   0.82734   0.92438   0.00000  Uiso   1.00
H1110  H     0.74962   0.57734   0.74230   0.00000  Uiso   1.00
H1111  H     0.75037   0.92265   0.92438   0.00000  Uiso   1.00
H1112  H     0.75038   0.92266   0.74230   0.00000  Uiso   1.00
H1113  H     0.74963   0.57735   0.92438   0.00000  Uiso   1.00
H1114  H     0.60744   0.83538   0.76251   0.00000  Uiso   1.00
H1115  H     0.91388   0.64149   0.90416   0.00000  Uiso   1.00
H1116  H     0.58643   0.64179   0.90423   0.00000  Uiso   1.00
H1117  H     0.89276   0.83560   0.76242   0.00000  Uiso   1.00
H1118  H     0.91360   0.85824   0.90422   0.00000  Uiso   1.00
H1119  H     0.60721   0.66436   0.76240   0.00000  Uiso   1.00
H1120  H     0.66384   0.89150   0.76253   0.00000  Uiso   1.00
N1121  N     0.50000   0.75000   0.95240   0.00000  Uiso   1.00
N1122  N     0.50000   0.75000   0.71427   0.00000  Uiso   1.00
N1123  N     0.75000   0.50000   0.95240   0.00000  Uiso   1.00
N1124  N     0.75000   0.50000   0.71427   0.00000  Uiso   1.00
O1125  O     0.54580   0.70419   0.87154   0.00000  Uiso   1.00
O1126  O     0.70419   0.54581   0.79513   0.00000  Uiso   1.00
O1127  O     0.70419   0.54581   0.87154   0.00000  Uiso   1.00
O1128  O     0.79580   0.95419   0.79513   0.00000  Uiso   1.00
O1129  O     0.70419   0.95419   0.79513   0.00000  Uiso   1.00
O1130  O     0.79580   0.54581   0.87154   0.00000  Uiso   1.00
O1131  O     0.79580   0.54581   0.79513   0.00000  Uiso   1.00
O1132  O     0.70419   0.95419   0.87154   0.00000  Uiso   1.00
O1133  O     0.99145   0.83052   0.71099   0.00000  Uiso   1.00
O1134  O     0.50839   0.66945   0.95570   0.00000  Uiso   1.00
O1135  O     0.50855   0.66948   0.71099   0.00000  Uiso   1.00
O1136  O     0.95419   0.79581   0.79513   0.00000  Uiso   1.00
O1137  O     0.99161   0.83055   0.95570   0.00000  Uiso   1.00
O1138  O     0.75835   0.58056   0.71097   0.00000  Uiso   1.00
O1139  O     0.74149   0.91947   0.95568   0.00000  Uiso   1.00
O1140  O     0.74165   0.91944   0.71097   0.00000  Uiso   1.00
O1141  O     0.75851   0.58053   0.95567   0.00000  Uiso   1.00
O1142  O     0.95419   0.79581   0.87154   0.00000  Uiso   1.00
O1143  O     0.54580   0.70419   0.79513   0.00000  Uiso   1.00
O1144  O     0.95419   0.70419   0.79513   0.00000  Uiso   1.00
O1145  O     0.54580   0.79581   0.87154   0.00000  Uiso   1.00
O1146  O     0.54580   0.79581   0.79513   0.00000  Uiso   1.00
O1147  O     0.95419   0.70419   0.87154   0.00000  Uiso   1.00
O1148  O     0.79580   0.95419   0.87154   0.00000  Uiso   1.00
Zn1149 Zn    0.50000   0.75000   0.88437   0.00000  Uiso   1.00
Zn1150 Zn    0.50000   0.75000   0.78229   0.00000  Uiso   1.00
Zn1151 Zn    0.75000   0.50000   0.88437   0.00000  Uiso   1.00
Zn1152 Zn    0.75000   0.50000   0.78229   0.00000  Uiso   1.00
loop_
_geom_bond_atom_site_label_1
_geom_bond_atom_site_label_2
_geom_bond_distance
_geom_bond_site_symmetry_2
_ccdc_geom_bond_type
C1     O87     1.293   .     A
C1     C30     1.422   .     S
C1     O69     1.293   .     A
C2     O78     1.376   .     S
C2     C387    1.414   .     S
C2     N65     1.378   .     S
C3     O79     1.376   .     S
C3     C770    1.414   1_554 S
C3     N66     1.378   .     S
C4     N161    1.378   .     A
C4     O81     1.376   .     S
C4     C424    1.414   .     S
C5     O82     1.376   .     S
C5     C776    1.414   1_554 S
C5     N68     1.378   .     S
C6     N259    1.378   .     A
C6     O83     1.376   .     S
C6     C391    1.414   .     S
C7     N260    1.378   .     A
C7     O84     1.376   .     S
C7     C774    1.414   1_554 S
C8     O85     1.376   .     S
C8     C389    1.414   .     S
C8     N67     1.378   .     S
C9     C20     1.370   .     A
C9     H41     1.084   .     S
C9     C28     1.397   .     A
C10    C27     1.397   .     A
C10    H52     1.084   .     S
C10    C21     1.371   .     A
C11    C18     1.370   .     A
C11    H58     1.084   .     S
C11    C27     1.397   .     A
C12    C29     1.422   .     S
C12    O86     1.293   .     A
C12    O80     1.293   .     A
C13    C28     1.397   .     A
C13    C19     1.371   .     A
C13    H59     1.084   .     S
C14    C30     1.397   .     A
C14    H60     1.083   .     S
C14    C25     1.370   .     A
C15    C29     1.397   .     A
C15    C26     1.371   .     A
C15    H61     1.084   .     S
C16    H62     1.083   .     S
C16    C29     1.397   .     A
C16    C22     1.370   .     A
C17    C30     1.397   .     A
C17    C24     1.371   .     A
C17    H63     1.084   .     S
C18    C32     1.397   .     A
C18    H64     1.083   .     S
C19    H42     1.084   .     S
C19    C31     1.397   .     A
C20    C31     1.397   .     A
C20    H43     1.083   .     S
C21    C32     1.397   .     A
C21    H44     1.084   .     S
C22    C35     1.397   .     A
C22    H45     1.084   .     S
C23    C28     1.421   .     S
C23    O88     1.293   .     A
C23    O91     1.293   .     A
C24    C33     1.397   .     A
C24    H46     1.084   .     S
C25    H47     1.084   .     S
C25    C33     1.397   .     A
C26    H48     1.084   .     S
C26    C35     1.397   .     A
C27    C34     1.421   .     S
C31    C39     1.422   .     S
C32    C38     1.422   .     S
C33    C37     1.422   .     S
C34    O90     1.293   .     A
C34    O89     1.293   .     A
C35    C36     1.422   .     S
C36    O92     1.293   .     A
C36    O72     1.293   .     A
C37    O70     1.293   .     A
C37    O71     1.293   .     A
C38    O76     1.293   .     A
C38    O73     1.293   .     A
C39    O74     1.293   .     A
C39    O75     1.293   .     A
C40    N162    1.378   .     A
C40    O77     1.376   .     S
C40    C772    1.414   1_554 S
H49    O173    0.979   1_455 S
H50    O174    0.979   .     S
H51    O175    0.979   .     S
H53    O177    0.979   1_455 S
H54    O82     0.979   .     S
H55    O83     0.979   .     S
H56    O84     0.979   .     S
H57    O85     0.979   .     S
N65    C100    1.378   1_455 A
N65    Zn93    2.033   .     S
N66    Zn94    2.033   .     S
N66    C136    1.378   1_455 A
N67    C198    1.378   1_545 A
N67    Zn95    2.033   .     S
N68    Zn96    2.033   .     S
N68    C199    1.378   1_545 A
O69    Zn93    2.001   .     S
O70    Zn96    2.001   .     S
O71    Zn95    2.001   .     S
O72    Zn288   2.001   .     S
O73    Zn288   2.000   .     S
O74    Zn95    2.000   .     S
O75    Zn96    2.000   .     S
O76    Zn287   2.000   .     S
O77    H145    0.979   .     S
O78    H146    0.979   1_455 S
O79    H147    0.979   1_455 S
O80    Zn190   2.001   .     S
O81    H149    0.979   .     S
O86    Zn189   2.001   .     S
O87    Zn94    2.001   .     S
O88    Zn190   2.000   .     S
O89    Zn93    2.000   .     S
O90    Zn94    2.000   .     S
O91    Zn189   2.000   .     S
O92    Zn287   2.001   .     S
Zn93   O182    2.001   1_455 S
Zn93   O187    2.000   1_455 S
Zn94   O184    2.000   1_455 S
Zn94   O176    2.001   1_455 S
Zn95   O268    2.000   1_545 S
Zn95   O284    2.001   1_545 S
Zn96   O264    2.001   1_545 S
Zn96   O265    2.000   1_545 S
C97    O183    1.293   .     A
C97    C126    1.422   .     S
C97    O165    1.293   .     A
C98    O174    1.376   .     S
C98    C483    1.414   .     S
C98    N161    1.378   .     S
C99    O175    1.376   .     S
C99    C866    1.414   1_554 S
C99    N162    1.378   .     S
C100   N65     1.378   1_655 A
C100   O177    1.376   .     S
C100   C520    1.414   .     S
C101   O178    1.376   .     S
C101   C872    1.414   1_554 S
C101   N164    1.378   .     S
C102   N355    1.378   .     A
C102   O179    1.376   .     S
C102   C487    1.414   .     S
C103   N356    1.378   .     A
C103   O180    1.376   .     S
C103   C870    1.414   1_554 S
C104   O181    1.376   .     S
C104   C485    1.414   .     S
C104   N163    1.378   .     S
C105   C116    1.370   .     A
C105   H137    1.084   .     S
C105   C124    1.397   .     A
C106   C123    1.397   .     A
C106   H148    1.084   .     S
C106   C117    1.371   .     A
C107   C114    1.370   .     A
C107   H154    1.084   .     S
C107   C123    1.397   .     A
C108   C125    1.422   .     S
C108   O182    1.293   .     A
C108   O176    1.293   .     A
C109   C124    1.397   .     A
C109   C115    1.371   .     A
C109   H155    1.084   .     S
C110   C126    1.397   .     A
C110   H156    1.083   .     S
C110   C121    1.370   .     A
C111   C125    1.397   .     A
C111   C122    1.371   .     A
C111   H157    1.084   .     S
C112   H158    1.083   .     S
C112   C125    1.397   .     A
C112   C118    1.370   .     A
C113   C126    1.397   .     A
C113   C120    1.371   .     A
C113   H159    1.084   .     S
C114   C128    1.397   .     A
C114   H160    1.083   .     S
C115   H138    1.084   .     S
C115   C127    1.397   .     A
C116   C127    1.397   .     A
C116   H139    1.083   .     S
C117   C128    1.397   .     A
C117   H140    1.084   .     S
C118   C131    1.397   .     A
C118   H141    1.084   .     S
C119   C124    1.421   .     S
C119   O184    1.293   .     A
C119   O187    1.293   .     A
C120   C129    1.397   .     A
C120   H142    1.084   .     S
C121   H143    1.084   .     S
C121   C129    1.397   .     A
C122   H144    1.084   .     S
C122   C131    1.397   .     A
C123   C130    1.421   .     S
C127   C135    1.422   .     S
C128   C134    1.422   .     S
C129   C133    1.422   .     S
C130   O186    1.293   .     A
C130   O185    1.293   .     A
C131   C132    1.422   .     S
C132   O188    1.293   .     A
C132   O168    1.293   .     A
C133   O166    1.293   .     A
C133   O167    1.293   .     A
C134   O172    1.293   .     A
C134   O169    1.293   .     A
C135   O170    1.293   .     A
C135   O171    1.293   .     A
C136   N66     1.378   1_655 A
C136   O173    1.376   .     S
C136   C868    1.414   1_554 S
H146   O78     0.979   1_655 S
H147   O79     0.979   1_655 S
H150   O178    0.979   .     S
H151   O179    0.979   .     S
H152   O180    0.979   .     S
H153   O181    0.979   .     S
N161   Zn189   2.033   .     S
N162   Zn190   2.033   .     S
N163   C294    1.378   1_545 A
N163   Zn191   2.033   .     S
N164   Zn192   2.033   .     S
N164   C295    1.378   1_545 A
O165   Zn189   2.001   .     S
O166   Zn192   2.001   .     S
O167   Zn191   2.001   .     S
O168   Zn384   2.001   .     S
O169   Zn384   2.000   .     S
O170   Zn191   2.000   .     S
O171   Zn192   2.000   .     S
O172   Zn383   2.000   .     S
O173   H49     0.979   1_655 S
O176   Zn94    2.001   1_655 S
O177   H53     0.979   1_655 S
O182   Zn93    2.001   1_655 S
O183   Zn190   2.001   .     S
O184   Zn94    2.000   1_655 S
O185   Zn189   2.000   .     S
O186   Zn190   2.000   .     S
O187   Zn93    2.000   1_655 S
O188   Zn383   2.001   .     S
Zn191  O364    2.000   1_545 S
Zn191  O380    2.001   1_545 S
Zn192  O360    2.001   1_545 S
Zn192  O361    2.000   1_545 S
C193   O279    1.293   .     A
C193   C222    1.422   .     S
C193   O261    1.293   .     A
C194   O270    1.376   .     S
C194   C579    1.414   .     S
C194   N257    1.378   .     S
C195   O271    1.376   .     S
C195   C962    1.414   1_554 S
C195   N258    1.378   .     S
C196   N353    1.378   .     A
C196   O273    1.376   .     S
C196   C616    1.414   .     S
C197   O274    1.376   .     S
C197   C968    1.414   1_554 S
C197   N260    1.378   .     S
C198   N67     1.378   1_565 A
C198   O275    1.376   .     S
C198   C583    1.414   .     S
C199   N68     1.378   1_565 A
C199   O276    1.376   .     S
C199   C966    1.414   1_554 S
C200   O277    1.376   .     S
C200   C581    1.414   .     S
C200   N259    1.378   .     S
C201   C212    1.370   .     A
C201   H233    1.084   .     S
C201   C220    1.397   .     A
C202   C219    1.397   .     A
C202   H244    1.084   .     S
C202   C213    1.371   .     A
C203   C210    1.370   .     A
C203   H250    1.084   .     S
C203   C219    1.397   .     A
C204   C221    1.422   .     S
C204   O278    1.293   .     A
C204   O272    1.293   .     A
C205   C220    1.397   .     A
C205   C211    1.371   .     A
C205   H251    1.084   .     S
C206   C222    1.397   .     A
C206   H252    1.083   .     S
C206   C217    1.370   .     A
C207   C221    1.397   .     A
C207   C218    1.371   .     A
C207   H253    1.084   .     S
C208   H254    1.083   .     S
C208   C221    1.397   .     A
C208   C214    1.370   .     A
C209   C222    1.397   .     A
C209   C216    1.371   .     A
C209   H255    1.084   .     S
C210   C224    1.397   .     A
C210   H256    1.083   .     S
C211   H234    1.084   .     S
C211   C223    1.397   .     A
C212   C223    1.397   .     A
C212   H235    1.083   .     S
C213   C224    1.397   .     A
C213   H236    1.084   .     S
C214   C227    1.397   .     A
C214   H237    1.084   .     S
C215   C220    1.421   .     S
C215   O280    1.293   .     A
C215   O283    1.293   .     A
C216   C225    1.397   .     A
C216   H238    1.084   .     S
C217   H239    1.084   .     S
C217   C225    1.397   .     A
C218   H240    1.084   .     S
C218   C227    1.397   .     A
C219   C226    1.421   .     S
C223   C231    1.422   .     S
C224   C230    1.422   .     S
C225   C229    1.422   .     S
C226   O282    1.293   .     A
C226   O281    1.293   .     A
C227   C228    1.422   .     S
C228   O284    1.293   .     A
C228   O264    1.293   .     A
C229   O262    1.293   .     A
C229   O263    1.293   .     A
C230   O268    1.293   .     A
C230   O265    1.293   .     A
C231   O266    1.293   .     A
C231   O267    1.293   .     A
C232   N354    1.378   .     A
C232   O269    1.376   .     S
C232   C964    1.414   1_554 S
H241   O365    0.979   1_455 S
H242   O366    0.979   .     S
H243   O367    0.979   .     S
H245   O369    0.979   1_455 S
H246   O274    0.979   .     S
H247   O275    0.979   .     S
H248   O276    0.979   .     S
H249   O277    0.979   .     S
N257   C292    1.378   1_455 A
N257   Zn285   2.033   .     S
N258   Zn286   2.033   .     S
N258   C328    1.378   1_455 A
N259   Zn287   2.033   .     S
N260   Zn288   2.033   .     S
O261   Zn285   2.001   .     S
O262   Zn288   2.001   .     S
O263   Zn287   2.001   .     S
O264   Zn96    2.001   1_565 S
O265   Zn96    2.000   1_565 S
O266   Zn287   2.000   .     S
O267   Zn288   2.000   .     S
O268   Zn95    2.000   1_565 S
O269   H337    0.979   .     S
O270   H338    0.979   1_455 S
O271   H339    0.979   1_455 S
O272   Zn382   2.001   .     S
O273   H341    0.979   .     S
O278   Zn381   2.001   .     S
O279   Zn286   2.001   .     S
O280   Zn382   2.000   .     S
O281   Zn285   2.000   .     S
O282   Zn286   2.000   .     S
O283   Zn381   2.000   .     S
O284   Zn95    2.001   1_565 S
Zn285  O374    2.001   1_455 S
Zn285  O379    2.000   1_455 S
Zn286  O376    2.000   1_455 S
Zn286  O368    2.001   1_455 S
C289   O375    1.293   .     A
C289   C318    1.422   .     S
C289   O357    1.293   .     A
C290   O366    1.376   .     S
C290   C675    1.414   .     S
C290   N353    1.378   .     S
C291   O367    1.376   .     S
C291   C1058   1.414   1_554 S
C291   N354    1.378   .     S
C292   N257    1.378   1_655 A
C292   O369    1.376   .     S
C292   C712    1.414   .     S
C293   O370    1.376   .     S
C293   C1064   1.414   1_554 S
C293   N356    1.378   .     S
C294   N163    1.378   1_565 A
C294   O371    1.376   .     S
C294   C679    1.414   .     S
C295   N164    1.378   1_565 A
C295   O372    1.376   .     S
C295   C1062   1.414   1_554 S
C296   O373    1.376   .     S
C296   C677    1.414   .     S
C296   N355    1.378   .     S
C297   C308    1.370   .     A
C297   H329    1.084   .     S
C297   C316    1.397   .     A
C298   C315    1.397   .     A
C298   H340    1.084   .     S
C298   C309    1.371   .     A
C299   C306    1.370   .     A
C299   H346    1.084   .     S
C299   C315    1.397   .     A
C300   C317    1.422   .     S
C300   O374    1.293   .     A
C300   O368    1.293   .     A
C301   C316    1.397   .     A
C301   C307    1.371   .     A
C301   H347    1.084   .     S
C302   C318    1.397   .     A
C302   H348    1.083   .     S
C302   C313    1.370   .     A
C303   C317    1.397   .     A
C303   C314    1.371   .     A
C303   H349    1.084   .     S
C304   H350    1.083   .     S
C304   C317    1.397   .     A
C304   C310    1.370   .     A
C305   C318    1.397   .     A
C305   C312    1.371   .     A
C305   H351    1.084   .     S
C306   C320    1.397   .     A
C306   H352    1.083   .     S
C307   H330    1.084   .     S
C307   C319    1.397   .     A
C308   C319    1.397   .     A
C308   H331    1.083   .     S
C309   C320    1.397   .     A
C309   H332    1.084   .     S
C310   C323    1.397   .     A
C310   H333    1.084   .     S
C311   C316    1.421   .     S
C311   O376    1.293   .     A
C311   O379    1.293   .     A
C312   C321    1.397   .     A
C312   H334    1.084   .     S
C313   H335    1.084   .     S
C313   C321    1.397   .     A
C314   H336    1.084   .     S
C314   C323    1.397   .     A
C315   C322    1.421   .     S
C319   C327    1.422   .     S
C320   C326    1.422   .     S
C321   C325    1.422   .     S
C322   O378    1.293   .     A
C322   O377    1.293   .     A
C323   C324    1.422   .     S
C324   O380    1.293   .     A
C324   O360    1.293   .     A
C325   O358    1.293   .     A
C325   O359    1.293   .     A
C326   O364    1.293   .     A
C326   O361    1.293   .     A
C327   O362    1.293   .     A
C327   O363    1.293   .     A
C328   N258    1.378   1_655 A
C328   O365    1.376   .     S
C328   C1060   1.414   1_554 S
H338   O270    0.979   1_655 S
H339   O271    0.979   1_655 S
H342   O370    0.979   .     S
H343   O371    0.979   .     S
H344   O372    0.979   .     S
H345   O373    0.979   .     S
N353   Zn381   2.033   .     S
N354   Zn382   2.033   .     S
N355   Zn383   2.033   .     S
N356   Zn384   2.033   .     S
O357   Zn381   2.001   .     S
O358   Zn384   2.001   .     S
O359   Zn383   2.001   .     S
O360   Zn192   2.001   1_565 S
O361   Zn192   2.000   1_565 S
O362   Zn383   2.000   .     S
O363   Zn384   2.000   .     S
O364   Zn191   2.000   1_565 S
O365   H241    0.979   1_655 S
O368   Zn286   2.001   1_655 S
O369   H245    0.979   1_655 S
O374   Zn285   2.001   1_655 S
O375   Zn382   2.001   .     S
O376   Zn286   2.000   1_655 S
O377   Zn381   2.000   .     S
O378   Zn382   2.000   .     S
O379   Zn285   2.000   1_655 S
O380   Zn191   2.001   1_565 S
C385   O471    1.293   .     A
C385   C414    1.422   .     S
C385   O453    1.293   .     A
C386   O462    1.376   .     S
C386   C771    1.414   .     S
C386   N449    1.378   .     S
C387   O463    1.376   .     S
C387   N450    1.378   .     S
C388   N545    1.378   .     A
C388   O465    1.376   .     S
C388   C808    1.414   .     S
C389   O466    1.376   .     S
C389   N452    1.378   .     S
C390   N643    1.378   .     A
C390   O467    1.376   .     S
C390   C775    1.414   .     S
C391   N644    1.378   .     A
C391   O468    1.376   .     S
C392   O469    1.376   .     S
C392   C773    1.414   .     S
C392   N451    1.378   .     S
C393   C404    1.370   .     A
C393   H425    1.084   .     S
C393   C412    1.397   .     A
C394   C411    1.397   .     A
C394   H436    1.084   .     S
C394   C405    1.371   .     A
C395   C402    1.370   .     A
C395   H442    1.084   .     S
C395   C411    1.397   .     A
C396   C413    1.422   .     S
C396   O470    1.293   .     A
C396   O464    1.293   .     A
C397   C412    1.397   .     A
C397   C403    1.371   .     A
C397   H443    1.084   .     S
C398   C414    1.397   .     A
C398   H444    1.083   .     S
C398   C409    1.370   .     A
C399   C413    1.397   .     A
C399   C410    1.371   .     A
C399   H445    1.084   .     S
C400   H446    1.083   .     S
C400   C413    1.397   .     A
C400   C406    1.370   .     A
C401   C414    1.397   .     A
C401   C408    1.371   .     A
C401   H447    1.084   .     S
C402   C416    1.397   .     A
C402   H448    1.083   .     S
C403   H426    1.084   .     S
C403   C415    1.397   .     A
C404   C415    1.397   .     A
C404   H427    1.083   .     S
C405   C416    1.397   .     A
C405   H428    1.084   .     S
C406   C419    1.397   .     A
C406   H429    1.084   .     S
C407   C412    1.421   .     S
C407   O472    1.293   .     A
C407   O475    1.293   .     A
C408   C417    1.397   .     A
C408   H430    1.084   .     S
C409   H431    1.084   .     S
C409   C417    1.397   .     A
C410   H432    1.084   .     S
C410   C419    1.397   .     A
C411   C418    1.421   .     S
C415   C423    1.422   .     S
C416   C422    1.422   .     S
C417   C421    1.422   .     S
C418   O474    1.293   .     A
C418   O473    1.293   .     A
C419   C420    1.422   .     S
C420   O476    1.293   .     A
C420   O456    1.293   .     A
C421   O454    1.293   .     A
C421   O455    1.293   .     A
C422   O460    1.293   .     A
C422   O457    1.293   .     A
C423   O458    1.293   .     A
C423   O459    1.293   .     A
C424   N546    1.378   .     A
C424   O461    1.376   .     S
H433   O557    0.979   1_455 S
H434   O558    0.979   .     S
H435   O559    0.979   .     S
H437   O561    0.979   1_455 S
H438   O466    0.979   .     S
H439   O467    0.979   .     S
H440   O468    0.979   .     S
H441   O469    0.979   .     S
N449   C484    1.378   1_455 A
N449   Zn477   2.033   .     S
N450   Zn478   2.033   .     S
N450   C520    1.378   1_455 A
N451   C582    1.378   1_545 A
N451   Zn479   2.033   .     S
N452   Zn480   2.033   .     S
N452   C583    1.378   1_545 A
O453   Zn477   2.001   .     S
O454   Zn480   2.001   .     S
O455   Zn479   2.001   .     S
O456   Zn672   2.001   .     S
O457   Zn672   2.000   .     S
O458   Zn479   2.000   .     S
O459   Zn480   2.000   .     S
O460   Zn671   2.000   .     S
O461   H529    0.979   .     S
O462   H530    0.979   1_455 S
O463   H531    0.979   1_455 S
O464   Zn574   2.001   .     S
O465   H533    0.979   .     S
O470   Zn573   2.001   .     S
O471   Zn478   2.001   .     S
O472   Zn574   2.000   .     S
O473   Zn477   2.000   .     S
O474   Zn478   2.000   .     S
O475   Zn573   2.000   .     S
O476   Zn671   2.001   .     S
Zn477  O566    2.001   1_455 S
Zn477  O571    2.000   1_455 S
Zn478  O568    2.000   1_455 S
Zn478  O560    2.001   1_455 S
Zn479  O652    2.000   1_545 S
Zn479  O668    2.001   1_545 S
Zn480  O648    2.001   1_545 S
Zn480  O649    2.000   1_545 S
C481   O567    1.293   .     A
C481   C510    1.422   .     S
C481   O549    1.293   .     A
C482   O558    1.376   .     S
C482   C867    1.414   .     S
C482   N545    1.378   .     S
C483   O559    1.376   .     S
C483   N546    1.378   .     S
C484   N449    1.378   1_655 A
C484   O561    1.376   .     S
C484   C904    1.414   .     S
C485   O562    1.376   .     S
C485   N548    1.378   .     S
C486   N739    1.378   .     A
C486   O563    1.376   .     S
C486   C871    1.414   .     S
C487   N740    1.378   .     A
C487   O564    1.376   .     S
C488   O565    1.376   .     S
C488   C869    1.414   .     S
C488   N547    1.378   .     S
C489   C500    1.370   .     A
C489   H521    1.084   .     S
C489   C508    1.397   .     A
C490   C507    1.397   .     A
C490   H532    1.084   .     S
C490   C501    1.371   .     A
C491   C498    1.370   .     A
C491   H538    1.084   .     S
C491   C507    1.397   .     A
C492   C509    1.422   .     S
C492   O566    1.293   .     A
C492   O560    1.293   .     A
C493   C508    1.397   .     A
C493   C499    1.371   .     A
C493   H539    1.084   .     S
C494   C510    1.397   .     A
C494   H540    1.083   .     S
C494   C505    1.370   .     A
C495   C509    1.397   .     A
C495   C506    1.371   .     A
C495   H541    1.084   .     S
C496   H542    1.083   .     S
C496   C509    1.397   .     A
C496   C502    1.370   .     A
C497   C510    1.397   .     A
C497   C504    1.371   .     A
C497   H543    1.084   .     S
C498   C512    1.397   .     A
C498   H544    1.083   .     S
C499   H522    1.084   .     S
C499   C511    1.397   .     A
C500   C511    1.397   .     A
C500   H523    1.083   .     S
C501   C512    1.397   .     A
C501   H524    1.084   .     S
C502   C515    1.397   .     A
C502   H525    1.084   .     S
C503   C508    1.421   .     S
C503   O568    1.293   .     A
C503   O571    1.293   .     A
C504   C513    1.397   .     A
C504   H526    1.084   .     S
C505   H527    1.084   .     S
C505   C513    1.397   .     A
C506   H528    1.084   .     S
C506   C515    1.397   .     A
C507   C514    1.421   .     S
C511   C519    1.422   .     S
C512   C518    1.422   .     S
C513   C517    1.422   .     S
C514   O570    1.293   .     A
C514   O569    1.293   .     A
C515   C516    1.422   .     S
C516   O572    1.293   .     A
C516   O552    1.293   .     A
C517   O550    1.293   .     A
C517   O551    1.293   .     A
C518   O556    1.293   .     A
C518   O553    1.293   .     A
C519   O554    1.293   .     A
C519   O555    1.293   .     A
C520   N450    1.378   1_655 A
C520   O557    1.376   .     S
H530   O462    0.979   1_655 S
H531   O463    0.979   1_655 S
H534   O562    0.979   .     S
H535   O563    0.979   .     S
H536   O564    0.979   .     S
H537   O565    0.979   .     S
N545   Zn573   2.033   .     S
N546   Zn574   2.033   .     S
N547   C678    1.378   1_545 A
N547   Zn575   2.033   .     S
N548   Zn576   2.033   .     S
N548   C679    1.378   1_545 A
O549   Zn573   2.001   .     S
O550   Zn576   2.001   .     S
O551   Zn575   2.001   .     S
O552   Zn768   2.001   .     S
O553   Zn768   2.000   .     S
O554   Zn575   2.000   .     S
O555   Zn576   2.000   .     S
O556   Zn767   2.000   .     S
O557   H433    0.979   1_655 S
O560   Zn478   2.001   1_655 S
O561   H437    0.979   1_655 S
O566   Zn477   2.001   1_655 S
O567   Zn574   2.001   .     S
O568   Zn478   2.000   1_655 S
O569   Zn573   2.000   .     S
O570   Zn574   2.000   .     S
O571   Zn477   2.000   1_655 S
O572   Zn767   2.001   .     S
Zn575  O748    2.000   1_545 S
Zn575  O764    2.001   1_545 S
Zn576  O744    2.001   1_545 S
Zn576  O745    2.000   1_545 S
C577   O663    1.293   .     A
C577   C606    1.422   .     S
C577   O645    1.293   .     A
C578   O654    1.376   .     S
C578   C963    1.414   .     S
C578   N641    1.378   .     S
C579   O655    1.376   .     S
C579   N642    1.378   .     S
C580   N737    1.378   .     A
C580   O657    1.376   .     S
C580   C1000   1.414   .     S
C581   O658    1.376   .     S
C581   N644    1.378   .     S
C582   N451    1.378   1_565 A
C582   O659    1.376   .     S
C582   C967    1.414   .     S
C583   N452    1.378   1_565 A
C583   O660    1.376   .     S
C584   O661    1.376   .     S
C584   C965    1.414   .     S
C584   N643    1.378   .     S
C585   C596    1.370   .     A
C585   H617    1.084   .     S
C585   C604    1.397   .     A
C586   C603    1.397   .     A
C586   H628    1.084   .     S
C586   C597    1.371   .     A
C587   C594    1.370   .     A
C587   H634    1.084   .     S
C587   C603    1.397   .     A
C588   C605    1.422   .     S
C588   O662    1.293   .     A
C588   O656    1.293   .     A
C589   C604    1.397   .     A
C589   C595    1.371   .     A
C589   H635    1.084   .     S
C590   C606    1.397   .     A
C590   H636    1.083   .     S
C590   C601    1.370   .     A
C591   C605    1.397   .     A
C591   C602    1.371   .     A
C591   H637    1.084   .     S
C592   H638    1.083   .     S
C592   C605    1.397   .     A
C592   C598    1.370   .     A
C593   C606    1.397   .     A
C593   C600    1.371   .     A
C593   H639    1.084   .     S
C594   C608    1.397   .     A
C594   H640    1.083   .     S
C595   H618    1.084   .     S
C595   C607    1.397   .     A
C596   C607    1.397   .     A
C596   H619    1.083   .     S
C597   C608    1.397   .     A
C597   H620    1.084   .     S
C598   C611    1.397   .     A
C598   H621    1.084   .     S
C599   C604    1.421   .     S
C599   O664    1.293   .     A
C599   O667    1.293   .     A
C600   C609    1.397   .     A
C600   H622    1.084   .     S
C601   H623    1.084   .     S
C601   C609    1.397   .     A
C602   H624    1.084   .     S
C602   C611    1.397   .     A
C603   C610    1.421   .     S
C607   C615    1.422   .     S
C608   C614    1.422   .     S
C609   C613    1.422   .     S
C610   O666    1.293   .     A
C610   O665    1.293   .     A
C611   C612    1.422   .     S
C612   O668    1.293   .     A
C612   O648    1.293   .     A
C613   O646    1.293   .     A
C613   O647    1.293   .     A
C614   O652    1.293   .     A
C614   O649    1.293   .     A
C615   O650    1.293   .     A
C615   O651    1.293   .     A
C616   N738    1.378   .     A
C616   O653    1.376   .     S
H625   O749    0.979   1_455 S
H626   O750    0.979   .     S
H627   O751    0.979   .     S
H629   O753    0.979   1_455 S
H630   O658    0.979   .     S
H631   O659    0.979   .     S
H632   O660    0.979   .     S
H633   O661    0.979   .     S
N641   C676    1.378   1_455 A
N641   Zn669   2.033   .     S
N642   Zn670   2.033   .     S
N642   C712    1.378   1_455 A
N643   Zn671   2.033   .     S
N644   Zn672   2.033   .     S
O645   Zn669   2.001   .     S
O646   Zn672   2.001   .     S
O647   Zn671   2.001   .     S
O648   Zn480   2.001   1_565 S
O649   Zn480   2.000   1_565 S
O650   Zn671   2.000   .     S
O651   Zn672   2.000   .     S
O652   Zn479   2.000   1_565 S
O653   H721    0.979   .     S
O654   H722    0.979   1_455 S
O655   H723    0.979   1_455 S
O656   Zn766   2.001   .     S
O657   H725    0.979   .     S
O662   Zn765   2.001   .     S
O663   Zn670   2.001   .     S
O664   Zn766   2.000   .     S
O665   Zn669   2.000   .     S
O666   Zn670   2.000   .     S
O667   Zn765   2.000   .     S
O668   Zn479   2.001   1_565 S
Zn669  O758    2.001   1_455 S
Zn669  O763    2.000   1_455 S
Zn670  O760    2.000   1_455 S
Zn670  O752    2.001   1_455 S
C673   O759    1.293   .     A
C673   C702    1.422   .     S
C673   O741    1.293   .     A
C674   O750    1.376   .     S
C674   C1059   1.414   .     S
C674   N737    1.378   .     S
C675   O751    1.376   .     S
C675   N738    1.378   .     S
C676   N641    1.378   1_655 A
C676   O753    1.376   .     S
C676   C1096   1.414   .     S
C677   O754    1.376   .     S
C677   N740    1.378   .     S
C678   N547    1.378   1_565 A
C678   O755    1.376   .     S
C678   C1063   1.414   .     S
C679   N548    1.378   1_565 A
C679   O756    1.376   .     S
C680   O757    1.376   .     S
C680   C1061   1.414   .     S
C680   N739    1.378   .     S
C681   C692    1.370   .     A
C681   H713    1.084   .     S
C681   C700    1.397   .     A
C682   C699    1.397   .     A
C682   H724    1.084   .     S
C682   C693    1.371   .     A
C683   C690    1.370   .     A
C683   H730    1.084   .     S
C683   C699    1.397   .     A
C684   C701    1.422   .     S
C684   O758    1.293   .     A
C684   O752    1.293   .     A
C685   C700    1.397   .     A
C685   C691    1.371   .     A
C685   H731    1.084   .     S
C686   C702    1.397   .     A
C686   H732    1.083   .     S
C686   C697    1.370   .     A
C687   C701    1.397   .     A
C687   C698    1.371   .     A
C687   H733    1.084   .     S
C688   H734    1.083   .     S
C688   C701    1.397   .     A
C688   C694    1.370   .     A
C689   C702    1.397   .     A
C689   C696    1.371   .     A
C689   H735    1.084   .     S
C690   C704    1.397   .     A
C690   H736    1.083   .     S
C691   H714    1.084   .     S
C691   C703    1.397   .     A
C692   C703    1.397   .     A
C692   H715    1.083   .     S
C693   C704    1.397   .     A
C693   H716    1.084   .     S
C694   C707    1.397   .     A
C694   H717    1.084   .     S
C695   C700    1.421   .     S
C695   O760    1.293   .     A
C695   O763    1.293   .     A
C696   C705    1.397   .     A
C696   H718    1.084   .     S
C697   H719    1.084   .     S
C697   C705    1.397   .     A
C698   H720    1.084   .     S
C698   C707    1.397   .     A
C699   C706    1.421   .     S
C703   C711    1.422   .     S
C704   C710    1.422   .     S
C705   C709    1.422   .     S
C706   O762    1.293   .     A
C706   O761    1.293   .     A
C707   C708    1.422   .     S
C708   O764    1.293   .     A
C708   O744    1.293   .     A
C709   O742    1.293   .     A
C709   O743    1.293   .     A
C710   O748    1.293   .     A
C710   O745    1.293   .     A
C711   O746    1.293   .     A
C711   O747    1.293   .     A
C712   N642    1.378   1_655 A
C712   O749    1.376   .     S
H722   O654    0.979   1_655 S
H723   O655    0.979   1_655 S
H726   O754    0.979   .     S
H727   O755    0.979   .     S
H728   O756    0.979   .     S
H729   O757    0.979   .     S
N737   Zn765   2.033   .     S
N738   Zn766   2.033   .     S
N739   Zn767   2.033   .     S
N740   Zn768   2.033   .     S
O741   Zn765   2.001   .     S
O742   Zn768   2.001   .     S
O743   Zn767   2.001   .     S
O744   Zn576   2.001   1_565 S
O745   Zn576   2.000   1_565 S
O746   Zn767   2.000   .     S
O747   Zn768   2.000   .     S
O748   Zn575   2.000   1_565 S
O749   H625    0.979   1_655 S
O752   Zn670   2.001   1_655 S
O753   H629    0.979   1_655 S
O758   Zn669   2.001   1_655 S
O759   Zn766   2.001   .     S
O760   Zn670   2.000   1_655 S
O761   Zn765   2.000   .     S
O762   Zn766   2.000   .     S
O763   Zn669   2.000   1_655 S
O764   Zn575   2.001   1_565 S
C769   O855    1.293   .     A
C769   C798    1.422   .     S
C769   O837    1.293   .     A
C770   O846    1.376   .     S
C770   C3      1.414   1_556 S
C770   N833    1.378   .     S
C771   O847    1.376   .     S
C771   N834    1.378   .     S
C772   N929    1.378   .     A
C772   O849    1.376   .     S
C772   C40     1.414   1_556 S
C773   O850    1.376   .     S
C773   N836    1.378   .     S
C774   N1027   1.378   .     A
C774   O851    1.376   .     S
C774   C7      1.414   1_556 S
C775   N1028   1.378   .     A
C775   O852    1.376   .     S
C776   O853    1.376   .     S
C776   C5      1.414   1_556 S
C776   N835    1.378   .     S
C777   C788    1.370   .     A
C777   H809    1.084   .     S
C777   C796    1.397   .     A
C778   C795    1.397   .     A
C778   H820    1.084   .     S
C778   C789    1.371   .     A
C779   C786    1.370   .     A
C779   H826    1.084   .     S
C779   C795    1.397   .     A
C780   C797    1.422   .     S
C780   O854    1.293   .     A
C780   O848    1.293   .     A
C781   C796    1.397   .     A
C781   C787    1.371   .     A
C781   H827    1.084   .     S
C782   C798    1.397   .     A
C782   H828    1.083   .     S
C782   C793    1.370   .     A
C783   C797    1.397   .     A
C783   C794    1.371   .     A
C783   H829    1.084   .     S
C784   H830    1.083   .     S
C784   C797    1.397   .     A
C784   C790    1.370   .     A
C785   C798    1.397   .     A
C785   C792    1.371   .     A
C785   H831    1.084   .     S
C786   C800    1.397   .     A
C786   H832    1.083   .     S
C787   H810    1.084   .     S
C787   C799    1.397   .     A
C788   C799    1.397   .     A
C788   H811    1.083   .     S
C789   C800    1.397   .     A
C789   H812    1.084   .     S
C790   C803    1.397   .     A
C790   H813    1.084   .     S
C791   C796    1.421   .     S
C791   O856    1.293   .     A
C791   O859    1.293   .     A
C792   C801    1.397   .     A
C792   H814    1.084   .     S
C793   H815    1.084   .     S
C793   C801    1.397   .     A
C794   H816    1.084   .     S
C794   C803    1.397   .     A
C795   C802    1.421   .     S
C799   C807    1.422   .     S
C800   C806    1.422   .     S
C801   C805    1.422   .     S
C802   O858    1.293   .     A
C802   O857    1.293   .     A
C803   C804    1.422   .     S
C804   O860    1.293   .     A
C804   O840    1.293   .     A
C805   O838    1.293   .     A
C805   O839    1.293   .     A
C806   O844    1.293   .     A
C806   O841    1.293   .     A
C807   O842    1.293   .     A
C807   O843    1.293   .     A
C808   N930    1.378   .     A
C808   O845    1.376   .     S
H817   O941    0.979   1_455 S
H818   O942    0.979   .     S
H819   O943    0.979   .     S
H821   O945    0.979   1_455 S
H822   O850    0.979   .     S
H823   O851    0.979   .     S
H824   O852    0.979   .     S
H825   O853    0.979   .     S
N833   C868    1.378   1_455 A
N833   Zn861   2.033   .     S
N834   Zn862   2.033   .     S
N834   C904    1.378   1_455 A
N835   C966    1.378   1_545 A
N835   Zn863   2.033   .     S
N836   Zn864   2.033   .     S
N836   C967    1.378   1_545 A
O837   Zn861   2.001   .     S
O838   Zn864   2.001   .     S
O839   Zn863   2.001   .     S
O840   Zn1056  2.001   .     S
O841   Zn1056  2.000   .     S
O842   Zn863   2.000   .     S
O843   Zn864   2.000   .     S
O844   Zn1055  2.000   .     S
O845   H913    0.979   .     S
O846   H914    0.979   1_455 S
O847   H915    0.979   1_455 S
O848   Zn958   2.001   .     S
O849   H917    0.979   .     S
O854   Zn957   2.001   .     S
O855   Zn862   2.001   .     S
O856   Zn958   2.000   .     S
O857   Zn861   2.000   .     S
O858   Zn862   2.000   .     S
O859   Zn957   2.000   .     S
O860   Zn1055  2.001   .     S
Zn861  O950    2.001   1_455 S
Zn861  O955    2.000   1_455 S
Zn862  O952    2.000   1_455 S
Zn862  O944    2.001   1_455 S
Zn863  O1036   2.000   1_545 S
Zn863  O1052   2.001   1_545 S
Zn864  O1032   2.001   1_545 S
Zn864  O1033   2.000   1_545 S
C865   O951    1.293   .     A
C865   C894    1.422   .     S
C865   O933    1.293   .     A
C866   O942    1.376   .     S
C866   C99     1.414   1_556 S
C866   N929    1.378   .     S
C867   O943    1.376   .     S
C867   N930    1.378   .     S
C868   N833    1.378   1_655 A
C868   O945    1.376   .     S
C868   C136    1.414   1_556 S
C869   O946    1.376   .     S
C869   N932    1.378   .     S
C870   N1123   1.378   .     A
C870   O947    1.376   .     S
C870   C103    1.414   1_556 S
C871   N1124   1.378   .     A
C871   O948    1.376   .     S
C872   O949    1.376   .     S
C872   C101    1.414   1_556 S
C872   N931    1.378   .     S
C873   C884    1.370   .     A
C873   H905    1.084   .     S
C873   C892    1.397   .     A
C874   C891    1.397   .     A
C874   H916    1.084   .     S
C874   C885    1.371   .     A
C875   C882    1.370   .     A
C875   H922    1.084   .     S
C875   C891    1.397   .     A
C876   C893    1.422   .     S
C876   O950    1.293   .     A
C876   O944    1.293   .     A
C877   C892    1.397   .     A
C877   C883    1.371   .     A
C877   H923    1.084   .     S
C878   C894    1.397   .     A
C878   H924    1.083   .     S
C878   C889    1.370   .     A
C879   C893    1.397   .     A
C879   C890    1.371   .     A
C879   H925    1.084   .     S
C880   H926    1.083   .     S
C880   C893    1.397   .     A
C880   C886    1.370   .     A
C881   C894    1.397   .     A
C881   C888    1.371   .     A
C881   H927    1.084   .     S
C882   C896    1.397   .     A
C882   H928    1.083   .     S
C883   H906    1.084   .     S
C883   C895    1.397   .     A
C884   C895    1.397   .     A
C884   H907    1.083   .     S
C885   C896    1.397   .     A
C885   H908    1.084   .     S
C886   C899    1.397   .     A
C886   H909    1.084   .     S
C887   C892    1.421   .     S
C887   O952    1.293   .     A
C887   O955    1.293   .     A
C888   C897    1.397   .     A
C888   H910    1.084   .     S
C889   H911    1.084   .     S
C889   C897    1.397   .     A
C890   H912    1.084   .     S
C890   C899    1.397   .     A
C891   C898    1.421   .     S
C895   C903    1.422   .     S
C896   C902    1.422   .     S
C897   C901    1.422   .     S
C898   O954    1.293   .     A
C898   O953    1.293   .     A
C899   C900    1.422   .     S
C900   O956    1.293   .     A
C900   O936    1.293   .     A
C901   O934    1.293   .     A
C901   O935    1.293   .     A
C902   O940    1.293   .     A
C902   O937    1.293   .     A
C903   O938    1.293   .     A
C903   O939    1.293   .     A
C904   N834    1.378   1_655 A
C904   O941    1.376   .     S
H914   O846    0.979   1_655 S
H915   O847    0.979   1_655 S
H918   O946    0.979   .     S
H919   O947    0.979   .     S
H920   O948    0.979   .     S
H921   O949    0.979   .     S
N929   Zn957   2.033   .     S
N930   Zn958   2.033   .     S
N931   C1062   1.378   1_545 A
N931   Zn959   2.033   .     S
N932   Zn960   2.033   .     S
N932   C1063   1.378   1_545 A
O933   Zn957   2.001   .     S
O934   Zn960   2.001   .     S
O935   Zn959   2.001   .     S
O936   Zn1152  2.001   .     S
O937   Zn1152  2.000   .     S
O938   Zn959   2.000   .     S
O939   Zn960   2.000   .     S
O940   Zn1151  2.000   .     S
O941   H817    0.979   1_655 S
O944   Zn862   2.001   1_655 S
O945   H821    0.979   1_655 S
O950   Zn861   2.001   1_655 S
O951   Zn958   2.001   .     S
O952   Zn862   2.000   1_655 S
O953   Zn957   2.000   .     S
O954   Zn958   2.000   .     S
O955   Zn861   2.000   1_655 S
O956   Zn1151  2.001   .     S
Zn959  O1132   2.000   1_545 S
Zn959  O1148   2.001   1_545 S
Zn960  O1128   2.001   1_545 S
Zn960  O1129   2.000   1_545 S
C961   O1047   1.293   .     A
C961   C990    1.422   .     S
C961   O1029   1.293   .     A
C962   O1038   1.376   .     S
C962   C195    1.414   1_556 S
C962   N1025   1.378   .     S
C963   O1039   1.376   .     S
C963   N1026   1.378   .     S
C964   N1121   1.378   .     A
C964   O1041   1.376   .     S
C964   C232    1.414   1_556 S
C965   O1042   1.376   .     S
C965   N1028   1.378   .     S
C966   N835    1.378   1_565 A
C966   O1043   1.376   .     S
C966   C199    1.414   1_556 S
C967   N836    1.378   1_565 A
C967   O1044   1.376   .     S
C968   O1045   1.376   .     S
C968   C197    1.414   1_556 S
C968   N1027   1.378   .     S
C969   C980    1.370   .     A
C969   H1001   1.084   .     S
C969   C988    1.397   .     A
C970   C987    1.397   .     A
C970   H1012   1.084   .     S
C970   C981    1.371   .     A
C971   C978    1.370   .     A
C971   H1018   1.084   .     S
C971   C987    1.397   .     A
C972   C989    1.422   .     S
C972   O1046   1.293   .     A
C972   O1040   1.293   .     A
C973   C988    1.397   .     A
C973   C979    1.371   .     A
C973   H1019   1.084   .     S
C974   C990    1.397   .     A
C974   H1020   1.083   .     S
C974   C985    1.370   .     A
C975   C989    1.397   .     A
C975   C986    1.371   .     A
C975   H1021   1.084   .     S
C976   H1022   1.083   .     S
C976   C989    1.397   .     A
C976   C982    1.370   .     A
C977   C990    1.397   .     A
C977   C984    1.371   .     A
C977   H1023   1.084   .     S
C978   C992    1.397   .     A
C978   H1024   1.083   .     S
C979   H1002   1.084   .     S
C979   C991    1.397   .     A
C980   C991    1.397   .     A
C980   H1003   1.083   .     S
C981   C992    1.397   .     A
C981   H1004   1.084   .     S
C982   C995    1.397   .     A
C982   H1005   1.084   .     S
C983   C988    1.421   .     S
C983   O1048   1.293   .     A
C983   O1051   1.293   .     A
C984   C993    1.397   .     A
C984   H1006   1.084   .     S
C985   H1007   1.084   .     S
C985   C993    1.397   .     A
C986   H1008   1.084   .     S
C986   C995    1.397   .     A
C987   C994    1.421   .     S
C991   C999    1.422   .     S
C992   C998    1.422   .     S
C993   C997    1.422   .     S
C994   O1050   1.293   .     A
C994   O1049   1.293   .     A
C995   C996    1.422   .     S
C996   O1052   1.293   .     A
C996   O1032   1.293   .     A
C997   O1030   1.293   .     A
C997   O1031   1.293   .     A
C998   O1036   1.293   .     A
C998   O1033   1.293   .     A
C999   O1034   1.293   .     A
C999   O1035   1.293   .     A
C1000  N1122   1.378   .     A
C1000  O1037   1.376   .     S
H1009  O1133   0.979   1_455 S
H1010  O1134   0.979   .     S
H1011  O1135   0.979   .     S
H1013  O1137   0.979   1_455 S
H1014  O1042   0.979   .     S
H1015  O1043   0.979   .     S
H1016  O1044   0.979   .     S
H1017  O1045   0.979   .     S
N1025  C1060   1.378   1_455 A
N1025  Zn1053  2.033   .     S
N1026  Zn1054  2.033   .     S
N1026  C1096   1.378   1_455 A
N1027  Zn1055  2.033   .     S
N1028  Zn1056  2.033   .     S
O1029  Zn1053  2.001   .     S
O1030  Zn1056  2.001   .     S
O1031  Zn1055  2.001   .     S
O1032  Zn864   2.001   1_565 S
O1033  Zn864   2.000   1_565 S
O1034  Zn1055  2.000   .     S
O1035  Zn1056  2.000   .     S
O1036  Zn863   2.000   1_565 S
O1037  H1105   0.979   .     S
O1038  H1106   0.979   1_455 S
O1039  H1107   0.979   1_455 S
O1040  Zn1150  2.001   .     S
O1041  H1109   0.979   .     S
O1046  Zn1149  2.001   .     S
O1047  Zn1054  2.001   .     S
O1048  Zn1150  2.000   .     S
O1049  Zn1053  2.000   .     S
O1050  Zn1054  2.000   .     S
O1051  Zn1149  2.000   .     S
O1052  Zn863   2.001   1_565 S
Zn1053 O1142   2.001   1_455 S
Zn1053 O1147   2.000   1_455 S
Zn1054 O1144   2.000   1_455 S
Zn1054 O1136   2.001   1_455 S
C1057  O1143   1.293   .     A
C1057  C1086   1.422   .     S
C1057  O1125   1.293   .     A
C1058  O1134   1.376   .     S
C1058  C291    1.414   1_556 S
C1058  N1121   1.378   .     S
C1059  O1135   1.376   .     S
C1059  N1122   1.378   .     S
C1060  N1025   1.378   1_655 A
C1060  O1137   1.376   .     S
C1060  C328    1.414   1_556 S
C1061  O1138   1.376   .     S
C1061  N1124   1.378   .     S
C1062  N931    1.378   1_565 A
C1062  O1139   1.376   .     S
C1062  C295    1.414   1_556 S
C1063  N932    1.378   1_565 A
C1063  O1140   1.376   .     S
C1064  O1141   1.376   .     S
C1064  C293    1.414   1_556 S
C1064  N1123   1.378   .     S
C1065  C1076   1.370   .     A
C1065  H1097   1.084   .     S
C1065  C1084   1.397   .     A
C1066  C1083   1.397   .     A
C1066  H1108   1.084   .     S
C1066  C1077   1.371   .     A
C1067  C1074   1.370   .     A
C1067  H1114   1.084   .     S
C1067  C1083   1.397   .     A
C1068  C1085   1.422   .     S
C1068  O1142   1.293   .     A
C1068  O1136   1.293   .     A
C1069  C1084   1.397   .     A
C1069  C1075   1.371   .     A
C1069  H1115   1.084   .     S
C1070  C1086   1.397   .     A
C1070  H1116   1.083   .     S
C1070  C1081   1.370   .     A
C1071  C1085   1.397   .     A
C1071  C1082   1.371   .     A
C1071  H1117   1.084   .     S
C1072  H1118   1.083   .     S
C1072  C1085   1.397   .     A
C1072  C1078   1.370   .     A
C1073  C1086   1.397   .     A
C1073  C1080   1.371   .     A
C1073  H1119   1.084   .     S
C1074  C1088   1.397   .     A
C1074  H1120   1.083   .     S
C1075  H1098   1.084   .     S
C1075  C1087   1.397   .     A
C1076  C1087   1.397   .     A
C1076  H1099   1.083   .     S
C1077  C1088   1.397   .     A
C1077  H1100   1.084   .     S
C1078  C1091   1.397   .     A
C1078  H1101   1.084   .     S
C1079  C1084   1.421   .     S
C1079  O1144   1.293   .     A
C1079  O1147   1.293   .     A
C1080  C1089   1.397   .     A
C1080  H1102   1.084   .     S
C1081  H1103   1.084   .     S
C1081  C1089   1.397   .     A
C1082  H1104   1.084   .     S
C1082  C1091   1.397   .     A
C1083  C1090   1.421   .     S
C1087  C1095   1.422   .     S
C1088  C1094   1.422   .     S
C1089  C1093   1.422   .     S
C1090  O1146   1.293   .     A
C1090  O1145   1.293   .     A
C1091  C1092   1.422   .     S
C1092  O1148   1.293   .     A
C1092  O1128   1.293   .     A
C1093  O1126   1.293   .     A
C1093  O1127   1.293   .     A
C1094  O1132   1.293   .     A
C1094  O1129   1.293   .     A
C1095  O1130   1.293   .     A
C1095  O1131   1.293   .     A
C1096  N1026   1.378   1_655 A
C1096  O1133   1.376   .     S
H1106  O1038   0.979   1_655 S
H1107  O1039   0.979   1_655 S
H1110  O1138   0.979   .     S
H1111  O1139   0.979   .     S
H1112  O1140   0.979   .     S
H1113  O1141   0.979   .     S
N1121  Zn1149  2.033   .     S
N1122  Zn1150  2.033   .     S
N1123  Zn1151  2.033   .     S
N1124  Zn1152  2.033   .     S
O1125  Zn1149  2.001   .     S
O1126  Zn1152  2.001   .     S
O1127  Zn1151  2.001   .     S
O1128  Zn960   2.001   1_565 S
O1129  Zn960   2.000   1_565 S
O1130  Zn1151  2.000   .     S
O1131  Zn1152  2.000   .     S
O1132  Zn959   2.000   1_565 S
O1133  H1009   0.979   1_655 S
O1136  Zn1054  2.001   1_655 S
O1137  H1013   0.979   1_655 S
O1142  Zn1053  2.001   1_655 S
O1143  Zn1150  2.001   .     S
O1144  Zn1054  2.000   1_655 S
O1145  Zn1149  2.000   .     S
O1146  Zn1150  2.000   .     S
O1147  Zn1053  2.000   1_655 S
O1148  Zn959   2.001   1_565 S
