data_str_m3_o1_o16_pcu_sym.126
_audit_creation_date              2020-01-03
_audit_creation_method            'Materials Studio'
_symmetry_space_group_name_H-M    'P1'
_symmetry_Int_Tables_number       1
_symmetry_cell_setting            triclinic
loop_
_symmetry_equiv_pos_as_xyz
  x,y,z
_cell_length_a                    29.5685
_cell_length_b                    31.9528
_cell_length_c                    26.4104
_cell_angle_alpha                 89.7844
_cell_angle_beta                  70.0875
_cell_angle_gamma                 89.6066
loop_
_atom_site_label
_atom_site_type_symbol
_atom_site_fract_x
_atom_site_fract_y
_atom_site_fract_z
_atom_site_U_iso_or_equiv
_atom_site_adp_type
_atom_site_occupancy
C1     C     0.16615   0.24655   0.25126   0.00000  Uiso   1.00
C2     C     0.15585   0.18261   0.48224   0.00000  Uiso   1.00
C3     C     0.15688   0.15839   0.43718   0.00000  Uiso   1.00
C4     C     0.18925   0.17258   0.00814   0.00000  Uiso   1.00
C5     C     0.23090   0.14849   0.48107   0.00000  Uiso   1.00
C6     C     0.23232   0.12613   0.43536   0.00000  Uiso   1.00
C7     C     0.19315   0.12719   0.41770   0.00000  Uiso   1.00
C8     C     0.17764   0.17891   0.06329   0.00000  Uiso   1.00
C9     C     0.25634   0.15302   0.05877   0.00000  Uiso   1.00
C10    C     0.12400   0.16827   0.41060   0.00000  Uiso   1.00
C11    C     0.12903   0.31197   0.29245   0.00000  Uiso   1.00
C12    C     0.14010   0.16510   0.35206   0.00000  Uiso   1.00
C13    C     0.12916   0.02199   0.29159   0.00000  Uiso   1.00
C14    C     0.16607   0.04254   0.25089   0.00000  Uiso   1.00
C15    C     0.20176   0.02067   0.21071   0.00000  Uiso   1.00
C16    C     0.20151   0.31113   0.21218   0.00000  Uiso   1.00
C17    C     0.16546   0.29060   0.25247   0.00000  Uiso   1.00
C18    C     0.32060   0.14301   0.21387   0.00000  Uiso   1.00
C19    C     0.03514   0.14300   0.21392   0.00000  Uiso   1.00
C20    C     0.01283   0.19028   0.28619   0.00000  Uiso   1.00
C21    C     0.29827   0.19038   0.28614   0.00000  Uiso   1.00
C22    C     0.16672   0.08671   0.24980   0.00000  Uiso   1.00
C23    C     0.19333   0.16756   0.14786   0.00000  Uiso   1.00
C24    C     0.26648   0.14232   0.00486   0.00000  Uiso   1.00
C25    C     0.21026   0.16782   0.08908   0.00000  Uiso   1.00
C26    C     0.08469   0.19457   0.43523   0.00000  Uiso   1.00
C27    C     0.08421   0.21911   0.47865   0.00000  Uiso   1.00
C28    C     0.12201   0.21617   0.49890   0.00000  Uiso   1.00
H29    H     0.22865   0.29370   0.18107   0.00000  Uiso   1.00
H30    H     0.06221   0.12404   0.18504   0.00000  Uiso   1.00
H31    H     0.02208   0.20914   0.31513   0.00000  Uiso   1.00
H32    H     0.26070   0.10360   0.41734   0.00000  Uiso   1.00
H33    H     0.05833   0.20106   0.41604   0.00000  Uiso   1.00
N34    N     0.04760   0.16668   0.25002   0.00000  Uiso   1.00
N35    N     0.28573   0.16665   0.25001   0.00000  Uiso   1.00
O36    O     0.12846   0.22775   0.25001   0.00000  Uiso   1.00
O37    O     0.20490   0.22774   0.25001   0.00000  Uiso   1.00
O38    O     0.10947   0.16666   0.32681   0.00000  Uiso   1.00
O39    O     0.18591   0.16665   0.32681   0.00000  Uiso   1.00
O40    O     0.12843   0.10559   0.25000   0.00000  Uiso   1.00
O41    O     0.20488   0.10558   0.25000   0.00000  Uiso   1.00
O42    O     0.14742   0.16668   0.17319   0.00000  Uiso   1.00
O43    O     0.22387   0.16667   0.17319   0.00000  Uiso   1.00
Zn44   Zn    0.11562   0.16667   0.25000   0.00000  Uiso   1.00
Zn45   Zn    0.21771   0.16666   0.25000   0.00000  Uiso   1.00
F46    F     0.28942   0.14449   0.08264   0.00000  Uiso   1.00
Br47   Br    0.07948   0.05254   0.34642   0.00000  Uiso   1.00
Br48   Br    0.24889   0.04746   0.15060   0.00000  Uiso   1.00
F49    F     0.30940   0.11943   0.17745   0.00000  Uiso   1.00
F50    F     0.26470   0.21449   0.32219   0.00000  Uiso   1.00
Br51   Br    0.32718   0.11563   0.46745   0.00000  Uiso   1.00
F52    F     0.13156   0.18921   0.09317   0.00000  Uiso   1.00
Br53   Br    0.13214   0.26457   0.03728   0.00000  Uiso   1.00
F54    F     0.05022   0.24950   0.49634   0.00000  Uiso   1.00
Br55   Br    0.18835   0.08080   0.37380   0.00000  Uiso   1.00
Br56   Br    0.08079   0.28231   0.34921   0.00000  Uiso   1.00
C57    C     0.49948   0.24655   0.25126   0.00000  Uiso   1.00
C58    C     0.48918   0.18261   0.48224   0.00000  Uiso   1.00
C59    C     0.49021   0.15839   0.43718   0.00000  Uiso   1.00
C60    C     0.52259   0.17258   0.00814   0.00000  Uiso   1.00
C61    C     0.56424   0.14849   0.48107   0.00000  Uiso   1.00
C62    C     0.56566   0.12613   0.43536   0.00000  Uiso   1.00
C63    C     0.52648   0.12719   0.41770   0.00000  Uiso   1.00
C64    C     0.51098   0.17891   0.06329   0.00000  Uiso   1.00
C65    C     0.58967   0.15302   0.05877   0.00000  Uiso   1.00
C66    C     0.45734   0.16827   0.41060   0.00000  Uiso   1.00
C67    C     0.46236   0.31197   0.29245   0.00000  Uiso   1.00
C68    C     0.47344   0.16510   0.35206   0.00000  Uiso   1.00
C69    C     0.46249   0.02199   0.29159   0.00000  Uiso   1.00
C70    C     0.49940   0.04254   0.25089   0.00000  Uiso   1.00
C71    C     0.53509   0.02067   0.21071   0.00000  Uiso   1.00
C72    C     0.53484   0.31113   0.21218   0.00000  Uiso   1.00
C73    C     0.49879   0.29060   0.25247   0.00000  Uiso   1.00
C74    C     0.65393   0.14301   0.21387   0.00000  Uiso   1.00
C75    C     0.36847   0.14300   0.21392   0.00000  Uiso   1.00
C76    C     0.34617   0.19028   0.28619   0.00000  Uiso   1.00
C77    C     0.63160   0.19038   0.28614   0.00000  Uiso   1.00
C78    C     0.50005   0.08671   0.24980   0.00000  Uiso   1.00
C79    C     0.52666   0.16756   0.14786   0.00000  Uiso   1.00
C80    C     0.59982   0.14232   0.00486   0.00000  Uiso   1.00
C81    C     0.54359   0.16782   0.08908   0.00000  Uiso   1.00
C82    C     0.41802   0.19457   0.43523   0.00000  Uiso   1.00
C83    C     0.41755   0.21911   0.47865   0.00000  Uiso   1.00
C84    C     0.45534   0.21617   0.49890   0.00000  Uiso   1.00
H85    H     0.56198   0.29370   0.18107   0.00000  Uiso   1.00
H86    H     0.39554   0.12404   0.18504   0.00000  Uiso   1.00
H87    H     0.35541   0.20914   0.31513   0.00000  Uiso   1.00
H88    H     0.59403   0.10360   0.41734   0.00000  Uiso   1.00
H89    H     0.39166   0.20106   0.41604   0.00000  Uiso   1.00
N90    N     0.38093   0.16668   0.25002   0.00000  Uiso   1.00
N91    N     0.61906   0.16665   0.25001   0.00000  Uiso   1.00
O92    O     0.46179   0.22775   0.25001   0.00000  Uiso   1.00
O93    O     0.53823   0.22774   0.25001   0.00000  Uiso   1.00
O94    O     0.44280   0.16666   0.32681   0.00000  Uiso   1.00
O95    O     0.51924   0.16665   0.32681   0.00000  Uiso   1.00
O96    O     0.46177   0.10559   0.25000   0.00000  Uiso   1.00
O97    O     0.53821   0.10558   0.25000   0.00000  Uiso   1.00
O98    O     0.48076   0.16668   0.17319   0.00000  Uiso   1.00
O99    O     0.55720   0.16667   0.17319   0.00000  Uiso   1.00
Zn100  Zn    0.44896   0.16667   0.25000   0.00000  Uiso   1.00
Zn101  Zn    0.55104   0.16666   0.25000   0.00000  Uiso   1.00
F102   F     0.62276   0.14449   0.08264   0.00000  Uiso   1.00
Br103  Br    0.41281   0.05254   0.34642   0.00000  Uiso   1.00
Br104  Br    0.58222   0.04746   0.15060   0.00000  Uiso   1.00
F105   F     0.64274   0.11943   0.17745   0.00000  Uiso   1.00
F106   F     0.59803   0.21449   0.32219   0.00000  Uiso   1.00
Br107  Br    0.66051   0.11563   0.46745   0.00000  Uiso   1.00
F108   F     0.46490   0.18921   0.09317   0.00000  Uiso   1.00
Br109  Br    0.46548   0.26457   0.03728   0.00000  Uiso   1.00
F110   F     0.38356   0.24950   0.49634   0.00000  Uiso   1.00
Br111  Br    0.52169   0.08080   0.37380   0.00000  Uiso   1.00
Br112  Br    0.41413   0.28231   0.34921   0.00000  Uiso   1.00
C113   C     0.83281   0.24655   0.25126   0.00000  Uiso   1.00
C114   C     0.82251   0.18261   0.48224   0.00000  Uiso   1.00
C115   C     0.82355   0.15839   0.43718   0.00000  Uiso   1.00
C116   C     0.85592   0.17258   0.00814   0.00000  Uiso   1.00
C117   C     0.89757   0.14849   0.48107   0.00000  Uiso   1.00
C118   C     0.89899   0.12613   0.43536   0.00000  Uiso   1.00
C119   C     0.85981   0.12719   0.41770   0.00000  Uiso   1.00
C120   C     0.84431   0.17891   0.06329   0.00000  Uiso   1.00
C121   C     0.92300   0.15302   0.05877   0.00000  Uiso   1.00
C122   C     0.79067   0.16827   0.41060   0.00000  Uiso   1.00
C123   C     0.79570   0.31197   0.29245   0.00000  Uiso   1.00
C124   C     0.80677   0.16510   0.35206   0.00000  Uiso   1.00
C125   C     0.79582   0.02199   0.29159   0.00000  Uiso   1.00
C126   C     0.83274   0.04254   0.25089   0.00000  Uiso   1.00
C127   C     0.86843   0.02067   0.21071   0.00000  Uiso   1.00
C128   C     0.86818   0.31113   0.21218   0.00000  Uiso   1.00
C129   C     0.83213   0.29060   0.25247   0.00000  Uiso   1.00
C130   C     0.98726   0.14301   0.21387   0.00000  Uiso   1.00
C131   C     0.70181   0.14300   0.21392   0.00000  Uiso   1.00
C132   C     0.67950   0.19028   0.28619   0.00000  Uiso   1.00
C133   C     0.96494   0.19038   0.28614   0.00000  Uiso   1.00
C134   C     0.83338   0.08671   0.24980   0.00000  Uiso   1.00
C135   C     0.85999   0.16756   0.14786   0.00000  Uiso   1.00
C136   C     0.93315   0.14232   0.00486   0.00000  Uiso   1.00
C137   C     0.87693   0.16782   0.08908   0.00000  Uiso   1.00
C138   C     0.75135   0.19457   0.43523   0.00000  Uiso   1.00
C139   C     0.75088   0.21911   0.47865   0.00000  Uiso   1.00
C140   C     0.78867   0.21617   0.49890   0.00000  Uiso   1.00
H141   H     0.89531   0.29370   0.18107   0.00000  Uiso   1.00
H142   H     0.72887   0.12404   0.18504   0.00000  Uiso   1.00
H143   H     0.68874   0.20914   0.31513   0.00000  Uiso   1.00
H144   H     0.92736   0.10360   0.41734   0.00000  Uiso   1.00
H145   H     0.72499   0.20106   0.41604   0.00000  Uiso   1.00
N146   N     0.71426   0.16668   0.25002   0.00000  Uiso   1.00
N147   N     0.95239   0.16665   0.25001   0.00000  Uiso   1.00
O148   O     0.79512   0.22775   0.25001   0.00000  Uiso   1.00
O149   O     0.87157   0.22774   0.25001   0.00000  Uiso   1.00
O150   O     0.77613   0.16666   0.32681   0.00000  Uiso   1.00
O151   O     0.85258   0.16665   0.32681   0.00000  Uiso   1.00
O152   O     0.79510   0.10559   0.25000   0.00000  Uiso   1.00
O153   O     0.87154   0.10558   0.25000   0.00000  Uiso   1.00
O154   O     0.81409   0.16668   0.17319   0.00000  Uiso   1.00
O155   O     0.89053   0.16667   0.17319   0.00000  Uiso   1.00
Zn156  Zn    0.78229   0.16667   0.25000   0.00000  Uiso   1.00
Zn157  Zn    0.88438   0.16666   0.25000   0.00000  Uiso   1.00
F158   F     0.95609   0.14449   0.08264   0.00000  Uiso   1.00
Br159  Br    0.74615   0.05254   0.34642   0.00000  Uiso   1.00
Br160  Br    0.91555   0.04746   0.15060   0.00000  Uiso   1.00
F161   F     0.97607   0.11943   0.17745   0.00000  Uiso   1.00
F162   F     0.93137   0.21449   0.32219   0.00000  Uiso   1.00
Br163  Br    0.99384   0.11563   0.46745   0.00000  Uiso   1.00
F164   F     0.79823   0.18921   0.09317   0.00000  Uiso   1.00
Br165  Br    0.79881   0.26457   0.03728   0.00000  Uiso   1.00
F166   F     0.71689   0.24950   0.49634   0.00000  Uiso   1.00
Br167  Br    0.85502   0.08080   0.37380   0.00000  Uiso   1.00
Br168  Br    0.74746   0.28231   0.34921   0.00000  Uiso   1.00
C169   C     0.16615   0.57988   0.25126   0.00000  Uiso   1.00
C170   C     0.15585   0.51594   0.48224   0.00000  Uiso   1.00
C171   C     0.15688   0.49172   0.43718   0.00000  Uiso   1.00
C172   C     0.18925   0.50591   0.00814   0.00000  Uiso   1.00
C173   C     0.23090   0.48183   0.48107   0.00000  Uiso   1.00
C174   C     0.23232   0.45946   0.43536   0.00000  Uiso   1.00
C175   C     0.19315   0.46052   0.41770   0.00000  Uiso   1.00
C176   C     0.17764   0.51224   0.06329   0.00000  Uiso   1.00
C177   C     0.25634   0.48636   0.05877   0.00000  Uiso   1.00
C178   C     0.12400   0.50160   0.41060   0.00000  Uiso   1.00
C179   C     0.12903   0.64530   0.29245   0.00000  Uiso   1.00
C180   C     0.14010   0.49844   0.35206   0.00000  Uiso   1.00
C181   C     0.12916   0.35533   0.29159   0.00000  Uiso   1.00
C182   C     0.16607   0.37587   0.25089   0.00000  Uiso   1.00
C183   C     0.20176   0.35400   0.21071   0.00000  Uiso   1.00
C184   C     0.20151   0.64446   0.21218   0.00000  Uiso   1.00
C185   C     0.16546   0.62393   0.25247   0.00000  Uiso   1.00
C186   C     0.32060   0.47635   0.21387   0.00000  Uiso   1.00
C187   C     0.03514   0.47633   0.21392   0.00000  Uiso   1.00
C188   C     0.01283   0.52362   0.28619   0.00000  Uiso   1.00
C189   C     0.29827   0.52372   0.28614   0.00000  Uiso   1.00
C190   C     0.16672   0.42004   0.24980   0.00000  Uiso   1.00
C191   C     0.19333   0.50089   0.14786   0.00000  Uiso   1.00
C192   C     0.26648   0.47565   0.00486   0.00000  Uiso   1.00
C193   C     0.21026   0.50115   0.08908   0.00000  Uiso   1.00
C194   C     0.08469   0.52791   0.43523   0.00000  Uiso   1.00
C195   C     0.08421   0.55244   0.47865   0.00000  Uiso   1.00
C196   C     0.12201   0.54951   0.49890   0.00000  Uiso   1.00
H197   H     0.22865   0.62704   0.18107   0.00000  Uiso   1.00
H198   H     0.06221   0.45738   0.18504   0.00000  Uiso   1.00
H199   H     0.02208   0.54247   0.31513   0.00000  Uiso   1.00
H200   H     0.26070   0.43694   0.41734   0.00000  Uiso   1.00
H201   H     0.05833   0.53439   0.41604   0.00000  Uiso   1.00
N202   N     0.04760   0.50001   0.25002   0.00000  Uiso   1.00
N203   N     0.28573   0.49998   0.25001   0.00000  Uiso   1.00
O204   O     0.12846   0.56108   0.25001   0.00000  Uiso   1.00
O205   O     0.20490   0.56107   0.25001   0.00000  Uiso   1.00
O206   O     0.10947   0.50000   0.32681   0.00000  Uiso   1.00
O207   O     0.18591   0.49999   0.32681   0.00000  Uiso   1.00
O208   O     0.12843   0.43893   0.25000   0.00000  Uiso   1.00
O209   O     0.20488   0.43892   0.25000   0.00000  Uiso   1.00
O210   O     0.14742   0.50001   0.17319   0.00000  Uiso   1.00
O211   O     0.22387   0.50000   0.17319   0.00000  Uiso   1.00
Zn212  Zn    0.11562   0.50001   0.25000   0.00000  Uiso   1.00
Zn213  Zn    0.21771   0.49999   0.25000   0.00000  Uiso   1.00
F214   F     0.28942   0.47782   0.08264   0.00000  Uiso   1.00
Br215  Br    0.07948   0.38587   0.34642   0.00000  Uiso   1.00
Br216  Br    0.24889   0.38079   0.15060   0.00000  Uiso   1.00
F217   F     0.30940   0.45276   0.17745   0.00000  Uiso   1.00
F218   F     0.26470   0.54782   0.32219   0.00000  Uiso   1.00
Br219  Br    0.32718   0.44896   0.46745   0.00000  Uiso   1.00
F220   F     0.13156   0.52254   0.09317   0.00000  Uiso   1.00
Br221  Br    0.13214   0.59790   0.03728   0.00000  Uiso   1.00
F222   F     0.05022   0.58284   0.49634   0.00000  Uiso   1.00
Br223  Br    0.18835   0.41414   0.37380   0.00000  Uiso   1.00
Br224  Br    0.08079   0.61564   0.34921   0.00000  Uiso   1.00
C225   C     0.49948   0.57988   0.25126   0.00000  Uiso   1.00
C226   C     0.48918   0.51594   0.48224   0.00000  Uiso   1.00
C227   C     0.49021   0.49172   0.43718   0.00000  Uiso   1.00
C228   C     0.52259   0.50591   0.00814   0.00000  Uiso   1.00
C229   C     0.56424   0.48183   0.48107   0.00000  Uiso   1.00
C230   C     0.56566   0.45946   0.43536   0.00000  Uiso   1.00
C231   C     0.52648   0.46052   0.41770   0.00000  Uiso   1.00
C232   C     0.51098   0.51224   0.06329   0.00000  Uiso   1.00
C233   C     0.58967   0.48636   0.05877   0.00000  Uiso   1.00
C234   C     0.45734   0.50160   0.41060   0.00000  Uiso   1.00
C235   C     0.46236   0.64530   0.29245   0.00000  Uiso   1.00
C236   C     0.47344   0.49844   0.35206   0.00000  Uiso   1.00
C237   C     0.46249   0.35533   0.29159   0.00000  Uiso   1.00
C238   C     0.49940   0.37587   0.25089   0.00000  Uiso   1.00
C239   C     0.53509   0.35400   0.21071   0.00000  Uiso   1.00
C240   C     0.53484   0.64446   0.21218   0.00000  Uiso   1.00
C241   C     0.49879   0.62393   0.25247   0.00000  Uiso   1.00
C242   C     0.65393   0.47635   0.21387   0.00000  Uiso   1.00
C243   C     0.36847   0.47633   0.21392   0.00000  Uiso   1.00
C244   C     0.34617   0.52362   0.28619   0.00000  Uiso   1.00
C245   C     0.63160   0.52372   0.28614   0.00000  Uiso   1.00
C246   C     0.50005   0.42004   0.24980   0.00000  Uiso   1.00
C247   C     0.52666   0.50089   0.14786   0.00000  Uiso   1.00
C248   C     0.59982   0.47565   0.00486   0.00000  Uiso   1.00
C249   C     0.54359   0.50115   0.08908   0.00000  Uiso   1.00
C250   C     0.41802   0.52791   0.43523   0.00000  Uiso   1.00
C251   C     0.41755   0.55244   0.47865   0.00000  Uiso   1.00
C252   C     0.45534   0.54951   0.49890   0.00000  Uiso   1.00
H253   H     0.56198   0.62704   0.18107   0.00000  Uiso   1.00
H254   H     0.39554   0.45738   0.18504   0.00000  Uiso   1.00
H255   H     0.35541   0.54247   0.31513   0.00000  Uiso   1.00
H256   H     0.59403   0.43694   0.41734   0.00000  Uiso   1.00
H257   H     0.39166   0.53439   0.41604   0.00000  Uiso   1.00
N258   N     0.38093   0.50001   0.25002   0.00000  Uiso   1.00
N259   N     0.61906   0.49998   0.25001   0.00000  Uiso   1.00
O260   O     0.46179   0.56108   0.25001   0.00000  Uiso   1.00
O261   O     0.53823   0.56107   0.25001   0.00000  Uiso   1.00
O262   O     0.44280   0.50000   0.32681   0.00000  Uiso   1.00
O263   O     0.51924   0.49999   0.32681   0.00000  Uiso   1.00
O264   O     0.46177   0.43893   0.25000   0.00000  Uiso   1.00
O265   O     0.53821   0.43892   0.25000   0.00000  Uiso   1.00
O266   O     0.48076   0.50001   0.17319   0.00000  Uiso   1.00
O267   O     0.55720   0.50000   0.17319   0.00000  Uiso   1.00
Zn268  Zn    0.44896   0.50001   0.25000   0.00000  Uiso   1.00
Zn269  Zn    0.55104   0.49999   0.25000   0.00000  Uiso   1.00
F270   F     0.62276   0.47782   0.08264   0.00000  Uiso   1.00
Br271  Br    0.41281   0.38587   0.34642   0.00000  Uiso   1.00
Br272  Br    0.58222   0.38079   0.15060   0.00000  Uiso   1.00
F273   F     0.64274   0.45276   0.17745   0.00000  Uiso   1.00
F274   F     0.59803   0.54782   0.32219   0.00000  Uiso   1.00
Br275  Br    0.66051   0.44896   0.46745   0.00000  Uiso   1.00
F276   F     0.46490   0.52254   0.09317   0.00000  Uiso   1.00
Br277  Br    0.46548   0.59790   0.03728   0.00000  Uiso   1.00
F278   F     0.38356   0.58284   0.49634   0.00000  Uiso   1.00
Br279  Br    0.52169   0.41414   0.37380   0.00000  Uiso   1.00
Br280  Br    0.41413   0.61564   0.34921   0.00000  Uiso   1.00
C281   C     0.83281   0.57988   0.25126   0.00000  Uiso   1.00
C282   C     0.82251   0.51594   0.48224   0.00000  Uiso   1.00
C283   C     0.82355   0.49172   0.43718   0.00000  Uiso   1.00
C284   C     0.85592   0.50591   0.00814   0.00000  Uiso   1.00
C285   C     0.89757   0.48183   0.48107   0.00000  Uiso   1.00
C286   C     0.89899   0.45946   0.43536   0.00000  Uiso   1.00
C287   C     0.85981   0.46052   0.41770   0.00000  Uiso   1.00
C288   C     0.84431   0.51224   0.06329   0.00000  Uiso   1.00
C289   C     0.92300   0.48636   0.05877   0.00000  Uiso   1.00
C290   C     0.79067   0.50160   0.41060   0.00000  Uiso   1.00
C291   C     0.79570   0.64530   0.29245   0.00000  Uiso   1.00
C292   C     0.80677   0.49844   0.35206   0.00000  Uiso   1.00
C293   C     0.79582   0.35533   0.29159   0.00000  Uiso   1.00
C294   C     0.83274   0.37587   0.25089   0.00000  Uiso   1.00
C295   C     0.86843   0.35400   0.21071   0.00000  Uiso   1.00
C296   C     0.86818   0.64446   0.21218   0.00000  Uiso   1.00
C297   C     0.83213   0.62393   0.25247   0.00000  Uiso   1.00
C298   C     0.98726   0.47635   0.21387   0.00000  Uiso   1.00
C299   C     0.70181   0.47633   0.21392   0.00000  Uiso   1.00
C300   C     0.67950   0.52362   0.28619   0.00000  Uiso   1.00
C301   C     0.96494   0.52372   0.28614   0.00000  Uiso   1.00
C302   C     0.83338   0.42004   0.24980   0.00000  Uiso   1.00
C303   C     0.85999   0.50089   0.14786   0.00000  Uiso   1.00
C304   C     0.93315   0.47565   0.00486   0.00000  Uiso   1.00
C305   C     0.87693   0.50115   0.08908   0.00000  Uiso   1.00
C306   C     0.75135   0.52791   0.43523   0.00000  Uiso   1.00
C307   C     0.75088   0.55244   0.47865   0.00000  Uiso   1.00
C308   C     0.78867   0.54951   0.49890   0.00000  Uiso   1.00
H309   H     0.89531   0.62704   0.18107   0.00000  Uiso   1.00
H310   H     0.72887   0.45738   0.18504   0.00000  Uiso   1.00
H311   H     0.68874   0.54247   0.31513   0.00000  Uiso   1.00
H312   H     0.92736   0.43694   0.41734   0.00000  Uiso   1.00
H313   H     0.72499   0.53439   0.41604   0.00000  Uiso   1.00
N314   N     0.71426   0.50001   0.25002   0.00000  Uiso   1.00
N315   N     0.95239   0.49998   0.25001   0.00000  Uiso   1.00
O316   O     0.79512   0.56108   0.25001   0.00000  Uiso   1.00
O317   O     0.87157   0.56107   0.25001   0.00000  Uiso   1.00
O318   O     0.77613   0.50000   0.32681   0.00000  Uiso   1.00
O319   O     0.85258   0.49999   0.32681   0.00000  Uiso   1.00
O320   O     0.79510   0.43893   0.25000   0.00000  Uiso   1.00
O321   O     0.87154   0.43892   0.25000   0.00000  Uiso   1.00
O322   O     0.81409   0.50001   0.17319   0.00000  Uiso   1.00
O323   O     0.89053   0.50000   0.17319   0.00000  Uiso   1.00
Zn324  Zn    0.78229   0.50001   0.25000   0.00000  Uiso   1.00
Zn325  Zn    0.88438   0.49999   0.25000   0.00000  Uiso   1.00
F326   F     0.95609   0.47782   0.08264   0.00000  Uiso   1.00
Br327  Br    0.74615   0.38587   0.34642   0.00000  Uiso   1.00
Br328  Br    0.91555   0.38079   0.15060   0.00000  Uiso   1.00
F329   F     0.97607   0.45276   0.17745   0.00000  Uiso   1.00
F330   F     0.93137   0.54782   0.32219   0.00000  Uiso   1.00
Br331  Br    0.99384   0.44896   0.46745   0.00000  Uiso   1.00
F332   F     0.79823   0.52254   0.09317   0.00000  Uiso   1.00
Br333  Br    0.79881   0.59790   0.03728   0.00000  Uiso   1.00
F334   F     0.71689   0.58284   0.49634   0.00000  Uiso   1.00
Br335  Br    0.85502   0.41414   0.37380   0.00000  Uiso   1.00
Br336  Br    0.74746   0.61564   0.34921   0.00000  Uiso   1.00
C337   C     0.16615   0.91322   0.25126   0.00000  Uiso   1.00
C338   C     0.15585   0.84927   0.48224   0.00000  Uiso   1.00
C339   C     0.15688   0.82505   0.43718   0.00000  Uiso   1.00
C340   C     0.18925   0.83924   0.00814   0.00000  Uiso   1.00
C341   C     0.23090   0.81516   0.48107   0.00000  Uiso   1.00
C342   C     0.23232   0.79279   0.43536   0.00000  Uiso   1.00
C343   C     0.19315   0.79385   0.41770   0.00000  Uiso   1.00
C344   C     0.17764   0.84558   0.06329   0.00000  Uiso   1.00
C345   C     0.25634   0.81969   0.05877   0.00000  Uiso   1.00
C346   C     0.12400   0.83494   0.41060   0.00000  Uiso   1.00
C347   C     0.12903   0.97864   0.29245   0.00000  Uiso   1.00
C348   C     0.14010   0.83177   0.35206   0.00000  Uiso   1.00
C349   C     0.12916   0.68866   0.29159   0.00000  Uiso   1.00
C350   C     0.16607   0.70920   0.25089   0.00000  Uiso   1.00
C351   C     0.20176   0.68733   0.21071   0.00000  Uiso   1.00
C352   C     0.20151   0.97780   0.21218   0.00000  Uiso   1.00
C353   C     0.16546   0.95726   0.25247   0.00000  Uiso   1.00
C354   C     0.32060   0.80968   0.21387   0.00000  Uiso   1.00
C355   C     0.03514   0.80967   0.21392   0.00000  Uiso   1.00
C356   C     0.01283   0.85695   0.28619   0.00000  Uiso   1.00
C357   C     0.29827   0.85705   0.28614   0.00000  Uiso   1.00
C358   C     0.16672   0.75338   0.24980   0.00000  Uiso   1.00
C359   C     0.19333   0.83422   0.14786   0.00000  Uiso   1.00
C360   C     0.26648   0.80899   0.00486   0.00000  Uiso   1.00
C361   C     0.21026   0.83448   0.08908   0.00000  Uiso   1.00
C362   C     0.08469   0.86124   0.43523   0.00000  Uiso   1.00
C363   C     0.08421   0.88578   0.47865   0.00000  Uiso   1.00
C364   C     0.12201   0.88284   0.49890   0.00000  Uiso   1.00
H365   H     0.22865   0.96037   0.18107   0.00000  Uiso   1.00
H366   H     0.06221   0.79071   0.18504   0.00000  Uiso   1.00
H367   H     0.02208   0.87581   0.31513   0.00000  Uiso   1.00
H368   H     0.26070   0.77027   0.41734   0.00000  Uiso   1.00
H369   H     0.05833   0.86772   0.41604   0.00000  Uiso   1.00
N370   N     0.04760   0.83334   0.25002   0.00000  Uiso   1.00
N371   N     0.28573   0.83331   0.25001   0.00000  Uiso   1.00
O372   O     0.12846   0.89442   0.25001   0.00000  Uiso   1.00
O373   O     0.20490   0.89441   0.25001   0.00000  Uiso   1.00
O374   O     0.10947   0.83333   0.32681   0.00000  Uiso   1.00
O375   O     0.18591   0.83332   0.32681   0.00000  Uiso   1.00
O376   O     0.12843   0.77226   0.25000   0.00000  Uiso   1.00
O377   O     0.20488   0.77225   0.25000   0.00000  Uiso   1.00
O378   O     0.14742   0.83335   0.17319   0.00000  Uiso   1.00
O379   O     0.22387   0.83334   0.17319   0.00000  Uiso   1.00
Zn380  Zn    0.11562   0.83334   0.25000   0.00000  Uiso   1.00
Zn381  Zn    0.21771   0.83333   0.25000   0.00000  Uiso   1.00
F382   F     0.28942   0.81116   0.08264   0.00000  Uiso   1.00
Br383  Br    0.07948   0.71921   0.34642   0.00000  Uiso   1.00
Br384  Br    0.24889   0.71413   0.15060   0.00000  Uiso   1.00
F385   F     0.30940   0.78609   0.17745   0.00000  Uiso   1.00
F386   F     0.26470   0.88115   0.32219   0.00000  Uiso   1.00
Br387  Br    0.32718   0.78229   0.46745   0.00000  Uiso   1.00
F388   F     0.13156   0.85587   0.09317   0.00000  Uiso   1.00
Br389  Br    0.13214   0.93124   0.03728   0.00000  Uiso   1.00
F390   F     0.05022   0.91617   0.49634   0.00000  Uiso   1.00
Br391  Br    0.18835   0.74747   0.37380   0.00000  Uiso   1.00
Br392  Br    0.08079   0.94898   0.34921   0.00000  Uiso   1.00
C393   C     0.49948   0.91322   0.25126   0.00000  Uiso   1.00
C394   C     0.48918   0.84927   0.48224   0.00000  Uiso   1.00
C395   C     0.49021   0.82505   0.43718   0.00000  Uiso   1.00
C396   C     0.52259   0.83924   0.00814   0.00000  Uiso   1.00
C397   C     0.56424   0.81516   0.48107   0.00000  Uiso   1.00
C398   C     0.56566   0.79279   0.43536   0.00000  Uiso   1.00
C399   C     0.52648   0.79385   0.41770   0.00000  Uiso   1.00
C400   C     0.51098   0.84558   0.06329   0.00000  Uiso   1.00
C401   C     0.58967   0.81969   0.05877   0.00000  Uiso   1.00
C402   C     0.45734   0.83494   0.41060   0.00000  Uiso   1.00
C403   C     0.46236   0.97864   0.29245   0.00000  Uiso   1.00
C404   C     0.47344   0.83177   0.35206   0.00000  Uiso   1.00
C405   C     0.46249   0.68866   0.29159   0.00000  Uiso   1.00
C406   C     0.49940   0.70920   0.25089   0.00000  Uiso   1.00
C407   C     0.53509   0.68733   0.21071   0.00000  Uiso   1.00
C408   C     0.53484   0.97780   0.21218   0.00000  Uiso   1.00
C409   C     0.49879   0.95726   0.25247   0.00000  Uiso   1.00
C410   C     0.65393   0.80968   0.21387   0.00000  Uiso   1.00
C411   C     0.36847   0.80967   0.21392   0.00000  Uiso   1.00
C412   C     0.34617   0.85695   0.28619   0.00000  Uiso   1.00
C413   C     0.63160   0.85705   0.28614   0.00000  Uiso   1.00
C414   C     0.50005   0.75338   0.24980   0.00000  Uiso   1.00
C415   C     0.52666   0.83422   0.14786   0.00000  Uiso   1.00
C416   C     0.59982   0.80899   0.00486   0.00000  Uiso   1.00
C417   C     0.54359   0.83448   0.08908   0.00000  Uiso   1.00
C418   C     0.41802   0.86124   0.43523   0.00000  Uiso   1.00
C419   C     0.41755   0.88578   0.47865   0.00000  Uiso   1.00
C420   C     0.45534   0.88284   0.49890   0.00000  Uiso   1.00
H421   H     0.56198   0.96037   0.18107   0.00000  Uiso   1.00
H422   H     0.39554   0.79071   0.18504   0.00000  Uiso   1.00
H423   H     0.35541   0.87581   0.31513   0.00000  Uiso   1.00
H424   H     0.59403   0.77027   0.41734   0.00000  Uiso   1.00
H425   H     0.39166   0.86772   0.41604   0.00000  Uiso   1.00
N426   N     0.38093   0.83334   0.25002   0.00000  Uiso   1.00
N427   N     0.61906   0.83331   0.25001   0.00000  Uiso   1.00
O428   O     0.46179   0.89442   0.25001   0.00000  Uiso   1.00
O429   O     0.53823   0.89441   0.25001   0.00000  Uiso   1.00
O430   O     0.44280   0.83333   0.32681   0.00000  Uiso   1.00
O431   O     0.51924   0.83332   0.32681   0.00000  Uiso   1.00
O432   O     0.46177   0.77226   0.25000   0.00000  Uiso   1.00
O433   O     0.53821   0.77225   0.25000   0.00000  Uiso   1.00
O434   O     0.48076   0.83335   0.17319   0.00000  Uiso   1.00
O435   O     0.55720   0.83334   0.17319   0.00000  Uiso   1.00
Zn436  Zn    0.44896   0.83334   0.25000   0.00000  Uiso   1.00
Zn437  Zn    0.55104   0.83333   0.25000   0.00000  Uiso   1.00
F438   F     0.62276   0.81116   0.08264   0.00000  Uiso   1.00
Br439  Br    0.41281   0.71921   0.34642   0.00000  Uiso   1.00
Br440  Br    0.58222   0.71413   0.15060   0.00000  Uiso   1.00
F441   F     0.64274   0.78609   0.17745   0.00000  Uiso   1.00
F442   F     0.59803   0.88115   0.32219   0.00000  Uiso   1.00
Br443  Br    0.66051   0.78229   0.46745   0.00000  Uiso   1.00
F444   F     0.46490   0.85587   0.09317   0.00000  Uiso   1.00
Br445  Br    0.46548   0.93124   0.03728   0.00000  Uiso   1.00
F446   F     0.38356   0.91617   0.49634   0.00000  Uiso   1.00
Br447  Br    0.52169   0.74747   0.37380   0.00000  Uiso   1.00
Br448  Br    0.41413   0.94898   0.34921   0.00000  Uiso   1.00
C449   C     0.83281   0.91322   0.25126   0.00000  Uiso   1.00
C450   C     0.82251   0.84927   0.48224   0.00000  Uiso   1.00
C451   C     0.82355   0.82505   0.43718   0.00000  Uiso   1.00
C452   C     0.85592   0.83924   0.00814   0.00000  Uiso   1.00
C453   C     0.89757   0.81516   0.48107   0.00000  Uiso   1.00
C454   C     0.89899   0.79279   0.43536   0.00000  Uiso   1.00
C455   C     0.85981   0.79385   0.41770   0.00000  Uiso   1.00
C456   C     0.84431   0.84558   0.06329   0.00000  Uiso   1.00
C457   C     0.92300   0.81969   0.05877   0.00000  Uiso   1.00
C458   C     0.79067   0.83494   0.41060   0.00000  Uiso   1.00
C459   C     0.79570   0.97864   0.29245   0.00000  Uiso   1.00
C460   C     0.80677   0.83177   0.35206   0.00000  Uiso   1.00
C461   C     0.79582   0.68866   0.29159   0.00000  Uiso   1.00
C462   C     0.83274   0.70920   0.25089   0.00000  Uiso   1.00
C463   C     0.86843   0.68733   0.21071   0.00000  Uiso   1.00
C464   C     0.86818   0.97780   0.21218   0.00000  Uiso   1.00
C465   C     0.83213   0.95726   0.25247   0.00000  Uiso   1.00
C466   C     0.98726   0.80968   0.21387   0.00000  Uiso   1.00
C467   C     0.70181   0.80967   0.21392   0.00000  Uiso   1.00
C468   C     0.67950   0.85695   0.28619   0.00000  Uiso   1.00
C469   C     0.96494   0.85705   0.28614   0.00000  Uiso   1.00
C470   C     0.83338   0.75338   0.24980   0.00000  Uiso   1.00
C471   C     0.85999   0.83422   0.14786   0.00000  Uiso   1.00
C472   C     0.93315   0.80899   0.00486   0.00000  Uiso   1.00
C473   C     0.87693   0.83448   0.08908   0.00000  Uiso   1.00
C474   C     0.75135   0.86124   0.43523   0.00000  Uiso   1.00
C475   C     0.75088   0.88578   0.47865   0.00000  Uiso   1.00
C476   C     0.78867   0.88284   0.49890   0.00000  Uiso   1.00
H477   H     0.89531   0.96037   0.18107   0.00000  Uiso   1.00
H478   H     0.72887   0.79071   0.18504   0.00000  Uiso   1.00
H479   H     0.68874   0.87581   0.31513   0.00000  Uiso   1.00
H480   H     0.92736   0.77027   0.41734   0.00000  Uiso   1.00
H481   H     0.72499   0.86772   0.41604   0.00000  Uiso   1.00
N482   N     0.71426   0.83334   0.25002   0.00000  Uiso   1.00
N483   N     0.95239   0.83331   0.25001   0.00000  Uiso   1.00
O484   O     0.79512   0.89442   0.25001   0.00000  Uiso   1.00
O485   O     0.87157   0.89441   0.25001   0.00000  Uiso   1.00
O486   O     0.77613   0.83333   0.32681   0.00000  Uiso   1.00
O487   O     0.85258   0.83332   0.32681   0.00000  Uiso   1.00
O488   O     0.79510   0.77226   0.25000   0.00000  Uiso   1.00
O489   O     0.87154   0.77225   0.25000   0.00000  Uiso   1.00
O490   O     0.81409   0.83335   0.17319   0.00000  Uiso   1.00
O491   O     0.89053   0.83334   0.17319   0.00000  Uiso   1.00
Zn492  Zn    0.78229   0.83334   0.25000   0.00000  Uiso   1.00
Zn493  Zn    0.88438   0.83333   0.25000   0.00000  Uiso   1.00
F494   F     0.95609   0.81116   0.08264   0.00000  Uiso   1.00
Br495  Br    0.74615   0.71921   0.34642   0.00000  Uiso   1.00
Br496  Br    0.91555   0.71413   0.15060   0.00000  Uiso   1.00
F497   F     0.97607   0.78609   0.17745   0.00000  Uiso   1.00
F498   F     0.93137   0.88115   0.32219   0.00000  Uiso   1.00
Br499  Br    0.99384   0.78229   0.46745   0.00000  Uiso   1.00
F500   F     0.79823   0.85587   0.09317   0.00000  Uiso   1.00
Br501  Br    0.79881   0.93124   0.03728   0.00000  Uiso   1.00
F502   F     0.71689   0.91617   0.49634   0.00000  Uiso   1.00
Br503  Br    0.85502   0.74747   0.37380   0.00000  Uiso   1.00
Br504  Br    0.74746   0.94898   0.34921   0.00000  Uiso   1.00
C505   C     0.16615   0.24655   0.75126   0.00000  Uiso   1.00
C506   C     0.15585   0.18261   0.98224   0.00000  Uiso   1.00
C507   C     0.15688   0.15839   0.93718   0.00000  Uiso   1.00
C508   C     0.18925   0.17258   0.50814   0.00000  Uiso   1.00
C509   C     0.23090   0.14849   0.98107   0.00000  Uiso   1.00
C510   C     0.23232   0.12613   0.93536   0.00000  Uiso   1.00
C511   C     0.19315   0.12719   0.91770   0.00000  Uiso   1.00
C512   C     0.17764   0.17891   0.56329   0.00000  Uiso   1.00
C513   C     0.25634   0.15302   0.55877   0.00000  Uiso   1.00
C514   C     0.12400   0.16827   0.91060   0.00000  Uiso   1.00
C515   C     0.12903   0.31197   0.79245   0.00000  Uiso   1.00
C516   C     0.14010   0.16510   0.85206   0.00000  Uiso   1.00
C517   C     0.12916   0.02199   0.79159   0.00000  Uiso   1.00
C518   C     0.16607   0.04254   0.75089   0.00000  Uiso   1.00
C519   C     0.20176   0.02067   0.71071   0.00000  Uiso   1.00
C520   C     0.20151   0.31113   0.71218   0.00000  Uiso   1.00
C521   C     0.16546   0.29060   0.75247   0.00000  Uiso   1.00
C522   C     0.32060   0.14301   0.71387   0.00000  Uiso   1.00
C523   C     0.03514   0.14300   0.71392   0.00000  Uiso   1.00
C524   C     0.01283   0.19028   0.78619   0.00000  Uiso   1.00
C525   C     0.29827   0.19038   0.78614   0.00000  Uiso   1.00
C526   C     0.16672   0.08671   0.74980   0.00000  Uiso   1.00
C527   C     0.19333   0.16756   0.64786   0.00000  Uiso   1.00
C528   C     0.26648   0.14232   0.50486   0.00000  Uiso   1.00
C529   C     0.21026   0.16782   0.58908   0.00000  Uiso   1.00
C530   C     0.08469   0.19457   0.93523   0.00000  Uiso   1.00
C531   C     0.08421   0.21911   0.97865   0.00000  Uiso   1.00
C532   C     0.12201   0.21617   0.99890   0.00000  Uiso   1.00
H533   H     0.22865   0.29370   0.68107   0.00000  Uiso   1.00
H534   H     0.06221   0.12404   0.68504   0.00000  Uiso   1.00
H535   H     0.02208   0.20914   0.81513   0.00000  Uiso   1.00
H536   H     0.26070   0.10360   0.91734   0.00000  Uiso   1.00
H537   H     0.05833   0.20106   0.91604   0.00000  Uiso   1.00
N538   N     0.04760   0.16668   0.75002   0.00000  Uiso   1.00
N539   N     0.28573   0.16665   0.75001   0.00000  Uiso   1.00
O540   O     0.12846   0.22775   0.75001   0.00000  Uiso   1.00
O541   O     0.20490   0.22774   0.75001   0.00000  Uiso   1.00
O542   O     0.10947   0.16666   0.82681   0.00000  Uiso   1.00
O543   O     0.18591   0.16665   0.82681   0.00000  Uiso   1.00
O544   O     0.12843   0.10559   0.75000   0.00000  Uiso   1.00
O545   O     0.20488   0.10558   0.75000   0.00000  Uiso   1.00
O546   O     0.14742   0.16668   0.67319   0.00000  Uiso   1.00
O547   O     0.22387   0.16667   0.67319   0.00000  Uiso   1.00
Zn548  Zn    0.11562   0.16667   0.75000   0.00000  Uiso   1.00
Zn549  Zn    0.21771   0.16666   0.75000   0.00000  Uiso   1.00
F550   F     0.28942   0.14449   0.58264   0.00000  Uiso   1.00
Br551  Br    0.07948   0.05254   0.84642   0.00000  Uiso   1.00
Br552  Br    0.24889   0.04746   0.65060   0.00000  Uiso   1.00
F553   F     0.30940   0.11943   0.67745   0.00000  Uiso   1.00
F554   F     0.26470   0.21449   0.82219   0.00000  Uiso   1.00
Br555  Br    0.32718   0.11563   0.96745   0.00000  Uiso   1.00
F556   F     0.13156   0.18921   0.59317   0.00000  Uiso   1.00
Br557  Br    0.13214   0.26457   0.53728   0.00000  Uiso   1.00
F558   F     0.05022   0.24950   0.99634   0.00000  Uiso   1.00
Br559  Br    0.18835   0.08080   0.87380   0.00000  Uiso   1.00
Br560  Br    0.08079   0.28231   0.84921   0.00000  Uiso   1.00
C561   C     0.49948   0.24655   0.75126   0.00000  Uiso   1.00
C562   C     0.48918   0.18261   0.98224   0.00000  Uiso   1.00
C563   C     0.49021   0.15839   0.93718   0.00000  Uiso   1.00
C564   C     0.52259   0.17258   0.50814   0.00000  Uiso   1.00
C565   C     0.56424   0.14849   0.98107   0.00000  Uiso   1.00
C566   C     0.56566   0.12613   0.93536   0.00000  Uiso   1.00
C567   C     0.52648   0.12719   0.91770   0.00000  Uiso   1.00
C568   C     0.51098   0.17891   0.56329   0.00000  Uiso   1.00
C569   C     0.58967   0.15302   0.55877   0.00000  Uiso   1.00
C570   C     0.45734   0.16827   0.91060   0.00000  Uiso   1.00
C571   C     0.46236   0.31197   0.79245   0.00000  Uiso   1.00
C572   C     0.47344   0.16510   0.85206   0.00000  Uiso   1.00
C573   C     0.46249   0.02199   0.79159   0.00000  Uiso   1.00
C574   C     0.49940   0.04254   0.75089   0.00000  Uiso   1.00
C575   C     0.53509   0.02067   0.71071   0.00000  Uiso   1.00
C576   C     0.53484   0.31113   0.71218   0.00000  Uiso   1.00
C577   C     0.49879   0.29060   0.75247   0.00000  Uiso   1.00
C578   C     0.65393   0.14301   0.71387   0.00000  Uiso   1.00
C579   C     0.36847   0.14300   0.71392   0.00000  Uiso   1.00
C580   C     0.34617   0.19028   0.78619   0.00000  Uiso   1.00
C581   C     0.63160   0.19038   0.78614   0.00000  Uiso   1.00
C582   C     0.50005   0.08671   0.74980   0.00000  Uiso   1.00
C583   C     0.52666   0.16756   0.64786   0.00000  Uiso   1.00
C584   C     0.59982   0.14232   0.50486   0.00000  Uiso   1.00
C585   C     0.54359   0.16782   0.58908   0.00000  Uiso   1.00
C586   C     0.41802   0.19457   0.93523   0.00000  Uiso   1.00
C587   C     0.41755   0.21911   0.97865   0.00000  Uiso   1.00
C588   C     0.45534   0.21617   0.99890   0.00000  Uiso   1.00
H589   H     0.56198   0.29370   0.68107   0.00000  Uiso   1.00
H590   H     0.39554   0.12404   0.68504   0.00000  Uiso   1.00
H591   H     0.35541   0.20914   0.81513   0.00000  Uiso   1.00
H592   H     0.59403   0.10360   0.91734   0.00000  Uiso   1.00
H593   H     0.39166   0.20106   0.91604   0.00000  Uiso   1.00
N594   N     0.38093   0.16668   0.75002   0.00000  Uiso   1.00
N595   N     0.61906   0.16665   0.75001   0.00000  Uiso   1.00
O596   O     0.46179   0.22775   0.75001   0.00000  Uiso   1.00
O597   O     0.53823   0.22774   0.75001   0.00000  Uiso   1.00
O598   O     0.44280   0.16666   0.82681   0.00000  Uiso   1.00
O599   O     0.51924   0.16665   0.82681   0.00000  Uiso   1.00
O600   O     0.46177   0.10559   0.75000   0.00000  Uiso   1.00
O601   O     0.53821   0.10558   0.75000   0.00000  Uiso   1.00
O602   O     0.48076   0.16668   0.67319   0.00000  Uiso   1.00
O603   O     0.55720   0.16667   0.67319   0.00000  Uiso   1.00
Zn604  Zn    0.44896   0.16667   0.75000   0.00000  Uiso   1.00
Zn605  Zn    0.55104   0.16666   0.75000   0.00000  Uiso   1.00
F606   F     0.62276   0.14449   0.58264   0.00000  Uiso   1.00
Br607  Br    0.41281   0.05254   0.84642   0.00000  Uiso   1.00
Br608  Br    0.58222   0.04746   0.65060   0.00000  Uiso   1.00
F609   F     0.64274   0.11943   0.67745   0.00000  Uiso   1.00
F610   F     0.59803   0.21449   0.82219   0.00000  Uiso   1.00
Br611  Br    0.66051   0.11563   0.96745   0.00000  Uiso   1.00
F612   F     0.46490   0.18921   0.59317   0.00000  Uiso   1.00
Br613  Br    0.46548   0.26457   0.53728   0.00000  Uiso   1.00
F614   F     0.38356   0.24950   0.99634   0.00000  Uiso   1.00
Br615  Br    0.52169   0.08080   0.87380   0.00000  Uiso   1.00
Br616  Br    0.41413   0.28231   0.84921   0.00000  Uiso   1.00
C617   C     0.83281   0.24655   0.75126   0.00000  Uiso   1.00
C618   C     0.82251   0.18261   0.98224   0.00000  Uiso   1.00
C619   C     0.82355   0.15839   0.93718   0.00000  Uiso   1.00
C620   C     0.85592   0.17258   0.50814   0.00000  Uiso   1.00
C621   C     0.89757   0.14849   0.98107   0.00000  Uiso   1.00
C622   C     0.89899   0.12613   0.93536   0.00000  Uiso   1.00
C623   C     0.85981   0.12719   0.91770   0.00000  Uiso   1.00
C624   C     0.84431   0.17891   0.56329   0.00000  Uiso   1.00
C625   C     0.92300   0.15302   0.55877   0.00000  Uiso   1.00
C626   C     0.79067   0.16827   0.91060   0.00000  Uiso   1.00
C627   C     0.79570   0.31197   0.79245   0.00000  Uiso   1.00
C628   C     0.80677   0.16510   0.85206   0.00000  Uiso   1.00
C629   C     0.79582   0.02199   0.79159   0.00000  Uiso   1.00
C630   C     0.83274   0.04254   0.75089   0.00000  Uiso   1.00
C631   C     0.86843   0.02067   0.71071   0.00000  Uiso   1.00
C632   C     0.86818   0.31113   0.71218   0.00000  Uiso   1.00
C633   C     0.83213   0.29060   0.75247   0.00000  Uiso   1.00
C634   C     0.98726   0.14301   0.71387   0.00000  Uiso   1.00
C635   C     0.70181   0.14300   0.71392   0.00000  Uiso   1.00
C636   C     0.67950   0.19028   0.78619   0.00000  Uiso   1.00
C637   C     0.96494   0.19038   0.78614   0.00000  Uiso   1.00
C638   C     0.83338   0.08671   0.74980   0.00000  Uiso   1.00
C639   C     0.85999   0.16756   0.64786   0.00000  Uiso   1.00
C640   C     0.93315   0.14232   0.50486   0.00000  Uiso   1.00
C641   C     0.87693   0.16782   0.58908   0.00000  Uiso   1.00
C642   C     0.75135   0.19457   0.93523   0.00000  Uiso   1.00
C643   C     0.75088   0.21911   0.97865   0.00000  Uiso   1.00
C644   C     0.78867   0.21617   0.99890   0.00000  Uiso   1.00
H645   H     0.89531   0.29370   0.68107   0.00000  Uiso   1.00
H646   H     0.72887   0.12404   0.68504   0.00000  Uiso   1.00
H647   H     0.68874   0.20914   0.81513   0.00000  Uiso   1.00
H648   H     0.92736   0.10360   0.91734   0.00000  Uiso   1.00
H649   H     0.72499   0.20106   0.91604   0.00000  Uiso   1.00
N650   N     0.71426   0.16668   0.75002   0.00000  Uiso   1.00
N651   N     0.95239   0.16665   0.75001   0.00000  Uiso   1.00
O652   O     0.79512   0.22775   0.75001   0.00000  Uiso   1.00
O653   O     0.87157   0.22774   0.75001   0.00000  Uiso   1.00
O654   O     0.77613   0.16666   0.82681   0.00000  Uiso   1.00
O655   O     0.85258   0.16665   0.82681   0.00000  Uiso   1.00
O656   O     0.79510   0.10559   0.75000   0.00000  Uiso   1.00
O657   O     0.87154   0.10558   0.75000   0.00000  Uiso   1.00
O658   O     0.81409   0.16668   0.67319   0.00000  Uiso   1.00
O659   O     0.89053   0.16667   0.67319   0.00000  Uiso   1.00
Zn660  Zn    0.78229   0.16667   0.75000   0.00000  Uiso   1.00
Zn661  Zn    0.88438   0.16666   0.75000   0.00000  Uiso   1.00
F662   F     0.95609   0.14449   0.58264   0.00000  Uiso   1.00
Br663  Br    0.74615   0.05254   0.84642   0.00000  Uiso   1.00
Br664  Br    0.91555   0.04746   0.65060   0.00000  Uiso   1.00
F665   F     0.97607   0.11943   0.67745   0.00000  Uiso   1.00
F666   F     0.93137   0.21449   0.82219   0.00000  Uiso   1.00
Br667  Br    0.99384   0.11563   0.96745   0.00000  Uiso   1.00
F668   F     0.79823   0.18921   0.59317   0.00000  Uiso   1.00
Br669  Br    0.79881   0.26457   0.53728   0.00000  Uiso   1.00
F670   F     0.71689   0.24950   0.99634   0.00000  Uiso   1.00
Br671  Br    0.85502   0.08080   0.87380   0.00000  Uiso   1.00
Br672  Br    0.74746   0.28231   0.84921   0.00000  Uiso   1.00
C673   C     0.16615   0.57988   0.75126   0.00000  Uiso   1.00
C674   C     0.15585   0.51594   0.98224   0.00000  Uiso   1.00
C675   C     0.15688   0.49172   0.93718   0.00000  Uiso   1.00
C676   C     0.18925   0.50591   0.50814   0.00000  Uiso   1.00
C677   C     0.23090   0.48183   0.98107   0.00000  Uiso   1.00
C678   C     0.23232   0.45946   0.93536   0.00000  Uiso   1.00
C679   C     0.19315   0.46052   0.91770   0.00000  Uiso   1.00
C680   C     0.17764   0.51224   0.56329   0.00000  Uiso   1.00
C681   C     0.25634   0.48636   0.55877   0.00000  Uiso   1.00
C682   C     0.12400   0.50160   0.91060   0.00000  Uiso   1.00
C683   C     0.12903   0.64530   0.79245   0.00000  Uiso   1.00
C684   C     0.14010   0.49844   0.85206   0.00000  Uiso   1.00
C685   C     0.12916   0.35533   0.79159   0.00000  Uiso   1.00
C686   C     0.16607   0.37587   0.75089   0.00000  Uiso   1.00
C687   C     0.20176   0.35400   0.71071   0.00000  Uiso   1.00
C688   C     0.20151   0.64446   0.71218   0.00000  Uiso   1.00
C689   C     0.16546   0.62393   0.75247   0.00000  Uiso   1.00
C690   C     0.32060   0.47635   0.71387   0.00000  Uiso   1.00
C691   C     0.03514   0.47633   0.71392   0.00000  Uiso   1.00
C692   C     0.01283   0.52362   0.78619   0.00000  Uiso   1.00
C693   C     0.29827   0.52372   0.78614   0.00000  Uiso   1.00
C694   C     0.16672   0.42004   0.74980   0.00000  Uiso   1.00
C695   C     0.19333   0.50089   0.64786   0.00000  Uiso   1.00
C696   C     0.26648   0.47565   0.50486   0.00000  Uiso   1.00
C697   C     0.21026   0.50115   0.58908   0.00000  Uiso   1.00
C698   C     0.08469   0.52791   0.93523   0.00000  Uiso   1.00
C699   C     0.08421   0.55244   0.97865   0.00000  Uiso   1.00
C700   C     0.12201   0.54951   0.99890   0.00000  Uiso   1.00
H701   H     0.22865   0.62704   0.68107   0.00000  Uiso   1.00
H702   H     0.06221   0.45738   0.68504   0.00000  Uiso   1.00
H703   H     0.02208   0.54247   0.81513   0.00000  Uiso   1.00
H704   H     0.26070   0.43694   0.91734   0.00000  Uiso   1.00
H705   H     0.05833   0.53439   0.91604   0.00000  Uiso   1.00
N706   N     0.04760   0.50001   0.75002   0.00000  Uiso   1.00
N707   N     0.28573   0.49998   0.75001   0.00000  Uiso   1.00
O708   O     0.12846   0.56108   0.75001   0.00000  Uiso   1.00
O709   O     0.20490   0.56107   0.75001   0.00000  Uiso   1.00
O710   O     0.10947   0.50000   0.82681   0.00000  Uiso   1.00
O711   O     0.18591   0.49999   0.82681   0.00000  Uiso   1.00
O712   O     0.12843   0.43893   0.75000   0.00000  Uiso   1.00
O713   O     0.20488   0.43892   0.75000   0.00000  Uiso   1.00
O714   O     0.14742   0.50001   0.67319   0.00000  Uiso   1.00
O715   O     0.22387   0.50000   0.67319   0.00000  Uiso   1.00
Zn716  Zn    0.11562   0.50001   0.75000   0.00000  Uiso   1.00
Zn717  Zn    0.21771   0.49999   0.75000   0.00000  Uiso   1.00
F718   F     0.28942   0.47782   0.58264   0.00000  Uiso   1.00
Br719  Br    0.07948   0.38587   0.84642   0.00000  Uiso   1.00
Br720  Br    0.24889   0.38079   0.65060   0.00000  Uiso   1.00
F721   F     0.30940   0.45276   0.67745   0.00000  Uiso   1.00
F722   F     0.26470   0.54782   0.82219   0.00000  Uiso   1.00
Br723  Br    0.32718   0.44896   0.96745   0.00000  Uiso   1.00
F724   F     0.13156   0.52254   0.59317   0.00000  Uiso   1.00
Br725  Br    0.13214   0.59790   0.53728   0.00000  Uiso   1.00
F726   F     0.05022   0.58284   0.99634   0.00000  Uiso   1.00
Br727  Br    0.18835   0.41414   0.87380   0.00000  Uiso   1.00
Br728  Br    0.08079   0.61564   0.84921   0.00000  Uiso   1.00
C729   C     0.49948   0.57988   0.75126   0.00000  Uiso   1.00
C730   C     0.48918   0.51594   0.98224   0.00000  Uiso   1.00
C731   C     0.49021   0.49172   0.93718   0.00000  Uiso   1.00
C732   C     0.52259   0.50591   0.50814   0.00000  Uiso   1.00
C733   C     0.56424   0.48183   0.98107   0.00000  Uiso   1.00
C734   C     0.56566   0.45946   0.93536   0.00000  Uiso   1.00
C735   C     0.52648   0.46052   0.91770   0.00000  Uiso   1.00
C736   C     0.51098   0.51224   0.56329   0.00000  Uiso   1.00
C737   C     0.58967   0.48636   0.55877   0.00000  Uiso   1.00
C738   C     0.45734   0.50160   0.91060   0.00000  Uiso   1.00
C739   C     0.46236   0.64530   0.79245   0.00000  Uiso   1.00
C740   C     0.47344   0.49844   0.85206   0.00000  Uiso   1.00
C741   C     0.46249   0.35533   0.79159   0.00000  Uiso   1.00
C742   C     0.49940   0.37587   0.75089   0.00000  Uiso   1.00
C743   C     0.53509   0.35400   0.71071   0.00000  Uiso   1.00
C744   C     0.53484   0.64446   0.71218   0.00000  Uiso   1.00
C745   C     0.49879   0.62393   0.75247   0.00000  Uiso   1.00
C746   C     0.65393   0.47635   0.71387   0.00000  Uiso   1.00
C747   C     0.36847   0.47633   0.71392   0.00000  Uiso   1.00
C748   C     0.34617   0.52362   0.78619   0.00000  Uiso   1.00
C749   C     0.63160   0.52372   0.78614   0.00000  Uiso   1.00
C750   C     0.50005   0.42004   0.74980   0.00000  Uiso   1.00
C751   C     0.52666   0.50089   0.64786   0.00000  Uiso   1.00
C752   C     0.59982   0.47565   0.50486   0.00000  Uiso   1.00
C753   C     0.54359   0.50115   0.58908   0.00000  Uiso   1.00
C754   C     0.41802   0.52791   0.93523   0.00000  Uiso   1.00
C755   C     0.41755   0.55244   0.97865   0.00000  Uiso   1.00
C756   C     0.45534   0.54951   0.99890   0.00000  Uiso   1.00
H757   H     0.56198   0.62704   0.68107   0.00000  Uiso   1.00
H758   H     0.39554   0.45738   0.68504   0.00000  Uiso   1.00
H759   H     0.35541   0.54247   0.81513   0.00000  Uiso   1.00
H760   H     0.59403   0.43694   0.91734   0.00000  Uiso   1.00
H761   H     0.39166   0.53439   0.91604   0.00000  Uiso   1.00
N762   N     0.38093   0.50001   0.75002   0.00000  Uiso   1.00
N763   N     0.61906   0.49998   0.75001   0.00000  Uiso   1.00
O764   O     0.46179   0.56108   0.75001   0.00000  Uiso   1.00
O765   O     0.53823   0.56107   0.75001   0.00000  Uiso   1.00
O766   O     0.44280   0.50000   0.82681   0.00000  Uiso   1.00
O767   O     0.51924   0.49999   0.82681   0.00000  Uiso   1.00
O768   O     0.46177   0.43893   0.75000   0.00000  Uiso   1.00
O769   O     0.53821   0.43892   0.75000   0.00000  Uiso   1.00
O770   O     0.48076   0.50001   0.67319   0.00000  Uiso   1.00
O771   O     0.55720   0.50000   0.67319   0.00000  Uiso   1.00
Zn772  Zn    0.44896   0.50001   0.75000   0.00000  Uiso   1.00
Zn773  Zn    0.55104   0.49999   0.75000   0.00000  Uiso   1.00
F774   F     0.62276   0.47782   0.58264   0.00000  Uiso   1.00
Br775  Br    0.41281   0.38587   0.84642   0.00000  Uiso   1.00
Br776  Br    0.58222   0.38079   0.65060   0.00000  Uiso   1.00
F777   F     0.64274   0.45276   0.67745   0.00000  Uiso   1.00
F778   F     0.59803   0.54782   0.82219   0.00000  Uiso   1.00
Br779  Br    0.66051   0.44896   0.96745   0.00000  Uiso   1.00
F780   F     0.46490   0.52254   0.59317   0.00000  Uiso   1.00
Br781  Br    0.46548   0.59790   0.53728   0.00000  Uiso   1.00
F782   F     0.38356   0.58284   0.99634   0.00000  Uiso   1.00
Br783  Br    0.52169   0.41414   0.87380   0.00000  Uiso   1.00
Br784  Br    0.41413   0.61564   0.84921   0.00000  Uiso   1.00
C785   C     0.83281   0.57988   0.75126   0.00000  Uiso   1.00
C786   C     0.82251   0.51594   0.98224   0.00000  Uiso   1.00
C787   C     0.82355   0.49172   0.93718   0.00000  Uiso   1.00
C788   C     0.85592   0.50591   0.50814   0.00000  Uiso   1.00
C789   C     0.89757   0.48183   0.98107   0.00000  Uiso   1.00
C790   C     0.89899   0.45946   0.93536   0.00000  Uiso   1.00
C791   C     0.85981   0.46052   0.91770   0.00000  Uiso   1.00
C792   C     0.84431   0.51224   0.56329   0.00000  Uiso   1.00
C793   C     0.92300   0.48636   0.55877   0.00000  Uiso   1.00
C794   C     0.79067   0.50160   0.91060   0.00000  Uiso   1.00
C795   C     0.79570   0.64530   0.79245   0.00000  Uiso   1.00
C796   C     0.80677   0.49844   0.85206   0.00000  Uiso   1.00
C797   C     0.79582   0.35533   0.79159   0.00000  Uiso   1.00
C798   C     0.83274   0.37587   0.75089   0.00000  Uiso   1.00
C799   C     0.86843   0.35400   0.71071   0.00000  Uiso   1.00
C800   C     0.86818   0.64446   0.71218   0.00000  Uiso   1.00
C801   C     0.83213   0.62393   0.75247   0.00000  Uiso   1.00
C802   C     0.98726   0.47635   0.71387   0.00000  Uiso   1.00
C803   C     0.70181   0.47633   0.71392   0.00000  Uiso   1.00
C804   C     0.67950   0.52362   0.78619   0.00000  Uiso   1.00
C805   C     0.96494   0.52372   0.78614   0.00000  Uiso   1.00
C806   C     0.83338   0.42004   0.74980   0.00000  Uiso   1.00
C807   C     0.85999   0.50089   0.64786   0.00000  Uiso   1.00
C808   C     0.93315   0.47565   0.50486   0.00000  Uiso   1.00
C809   C     0.87693   0.50115   0.58908   0.00000  Uiso   1.00
C810   C     0.75135   0.52791   0.93523   0.00000  Uiso   1.00
C811   C     0.75088   0.55244   0.97865   0.00000  Uiso   1.00
C812   C     0.78867   0.54951   0.99890   0.00000  Uiso   1.00
H813   H     0.89531   0.62704   0.68107   0.00000  Uiso   1.00
H814   H     0.72887   0.45738   0.68504   0.00000  Uiso   1.00
H815   H     0.68874   0.54247   0.81513   0.00000  Uiso   1.00
H816   H     0.92736   0.43694   0.91734   0.00000  Uiso   1.00
H817   H     0.72499   0.53439   0.91604   0.00000  Uiso   1.00
N818   N     0.71426   0.50001   0.75002   0.00000  Uiso   1.00
N819   N     0.95239   0.49998   0.75001   0.00000  Uiso   1.00
O820   O     0.79512   0.56108   0.75001   0.00000  Uiso   1.00
O821   O     0.87157   0.56107   0.75001   0.00000  Uiso   1.00
O822   O     0.77613   0.50000   0.82681   0.00000  Uiso   1.00
O823   O     0.85258   0.49999   0.82681   0.00000  Uiso   1.00
O824   O     0.79510   0.43893   0.75000   0.00000  Uiso   1.00
O825   O     0.87154   0.43892   0.75000   0.00000  Uiso   1.00
O826   O     0.81409   0.50001   0.67319   0.00000  Uiso   1.00
O827   O     0.89053   0.50000   0.67319   0.00000  Uiso   1.00
Zn828  Zn    0.78229   0.50001   0.75000   0.00000  Uiso   1.00
Zn829  Zn    0.88438   0.49999   0.75000   0.00000  Uiso   1.00
F830   F     0.95609   0.47782   0.58264   0.00000  Uiso   1.00
Br831  Br    0.74615   0.38587   0.84642   0.00000  Uiso   1.00
Br832  Br    0.91555   0.38079   0.65060   0.00000  Uiso   1.00
F833   F     0.97607   0.45276   0.67745   0.00000  Uiso   1.00
F834   F     0.93137   0.54782   0.82219   0.00000  Uiso   1.00
Br835  Br    0.99384   0.44896   0.96745   0.00000  Uiso   1.00
F836   F     0.79823   0.52254   0.59317   0.00000  Uiso   1.00
Br837  Br    0.79881   0.59790   0.53728   0.00000  Uiso   1.00
F838   F     0.71689   0.58284   0.99634   0.00000  Uiso   1.00
Br839  Br    0.85502   0.41414   0.87380   0.00000  Uiso   1.00
Br840  Br    0.74746   0.61564   0.84921   0.00000  Uiso   1.00
C841   C     0.16615   0.91322   0.75126   0.00000  Uiso   1.00
C842   C     0.15585   0.84927   0.98224   0.00000  Uiso   1.00
C843   C     0.15688   0.82505   0.93718   0.00000  Uiso   1.00
C844   C     0.18925   0.83924   0.50814   0.00000  Uiso   1.00
C845   C     0.23090   0.81516   0.98107   0.00000  Uiso   1.00
C846   C     0.23232   0.79279   0.93536   0.00000  Uiso   1.00
C847   C     0.19315   0.79385   0.91770   0.00000  Uiso   1.00
C848   C     0.17764   0.84558   0.56329   0.00000  Uiso   1.00
C849   C     0.25634   0.81969   0.55877   0.00000  Uiso   1.00
C850   C     0.12400   0.83494   0.91060   0.00000  Uiso   1.00
C851   C     0.12903   0.97864   0.79245   0.00000  Uiso   1.00
C852   C     0.14010   0.83177   0.85206   0.00000  Uiso   1.00
C853   C     0.12916   0.68866   0.79159   0.00000  Uiso   1.00
C854   C     0.16607   0.70920   0.75089   0.00000  Uiso   1.00
C855   C     0.20176   0.68733   0.71071   0.00000  Uiso   1.00
C856   C     0.20151   0.97780   0.71218   0.00000  Uiso   1.00
C857   C     0.16546   0.95726   0.75247   0.00000  Uiso   1.00
C858   C     0.32060   0.80968   0.71387   0.00000  Uiso   1.00
C859   C     0.03514   0.80967   0.71392   0.00000  Uiso   1.00
C860   C     0.01283   0.85695   0.78619   0.00000  Uiso   1.00
C861   C     0.29827   0.85705   0.78614   0.00000  Uiso   1.00
C862   C     0.16672   0.75338   0.74980   0.00000  Uiso   1.00
C863   C     0.19333   0.83422   0.64786   0.00000  Uiso   1.00
C864   C     0.26648   0.80899   0.50486   0.00000  Uiso   1.00
C865   C     0.21026   0.83448   0.58908   0.00000  Uiso   1.00
C866   C     0.08469   0.86124   0.93523   0.00000  Uiso   1.00
C867   C     0.08421   0.88578   0.97865   0.00000  Uiso   1.00
C868   C     0.12201   0.88284   0.99890   0.00000  Uiso   1.00
H869   H     0.22865   0.96037   0.68107   0.00000  Uiso   1.00
H870   H     0.06221   0.79071   0.68504   0.00000  Uiso   1.00
H871   H     0.02208   0.87581   0.81513   0.00000  Uiso   1.00
H872   H     0.26070   0.77027   0.91734   0.00000  Uiso   1.00
H873   H     0.05833   0.86772   0.91604   0.00000  Uiso   1.00
N874   N     0.04760   0.83334   0.75002   0.00000  Uiso   1.00
N875   N     0.28573   0.83331   0.75001   0.00000  Uiso   1.00
O876   O     0.12846   0.89442   0.75001   0.00000  Uiso   1.00
O877   O     0.20490   0.89441   0.75001   0.00000  Uiso   1.00
O878   O     0.10947   0.83333   0.82681   0.00000  Uiso   1.00
O879   O     0.18591   0.83332   0.82681   0.00000  Uiso   1.00
O880   O     0.12843   0.77226   0.75000   0.00000  Uiso   1.00
O881   O     0.20488   0.77225   0.75000   0.00000  Uiso   1.00
O882   O     0.14742   0.83335   0.67319   0.00000  Uiso   1.00
O883   O     0.22387   0.83334   0.67319   0.00000  Uiso   1.00
Zn884  Zn    0.11562   0.83334   0.75000   0.00000  Uiso   1.00
Zn885  Zn    0.21771   0.83333   0.75000   0.00000  Uiso   1.00
F886   F     0.28942   0.81116   0.58264   0.00000  Uiso   1.00
Br887  Br    0.07948   0.71921   0.84642   0.00000  Uiso   1.00
Br888  Br    0.24889   0.71413   0.65060   0.00000  Uiso   1.00
F889   F     0.30940   0.78609   0.67745   0.00000  Uiso   1.00
F890   F     0.26470   0.88115   0.82219   0.00000  Uiso   1.00
Br891  Br    0.32718   0.78229   0.96745   0.00000  Uiso   1.00
F892   F     0.13156   0.85587   0.59317   0.00000  Uiso   1.00
Br893  Br    0.13214   0.93124   0.53728   0.00000  Uiso   1.00
F894   F     0.05022   0.91617   0.99634   0.00000  Uiso   1.00
Br895  Br    0.18835   0.74747   0.87380   0.00000  Uiso   1.00
Br896  Br    0.08079   0.94898   0.84921   0.00000  Uiso   1.00
C897   C     0.49948   0.91322   0.75126   0.00000  Uiso   1.00
C898   C     0.48918   0.84927   0.98224   0.00000  Uiso   1.00
C899   C     0.49021   0.82505   0.93718   0.00000  Uiso   1.00
C900   C     0.52259   0.83924   0.50814   0.00000  Uiso   1.00
C901   C     0.56424   0.81516   0.98107   0.00000  Uiso   1.00
C902   C     0.56566   0.79279   0.93536   0.00000  Uiso   1.00
C903   C     0.52648   0.79385   0.91770   0.00000  Uiso   1.00
C904   C     0.51098   0.84558   0.56329   0.00000  Uiso   1.00
C905   C     0.58967   0.81969   0.55877   0.00000  Uiso   1.00
C906   C     0.45734   0.83494   0.91060   0.00000  Uiso   1.00
C907   C     0.46236   0.97864   0.79245   0.00000  Uiso   1.00
C908   C     0.47344   0.83177   0.85206   0.00000  Uiso   1.00
C909   C     0.46249   0.68866   0.79159   0.00000  Uiso   1.00
C910   C     0.49940   0.70920   0.75089   0.00000  Uiso   1.00
C911   C     0.53509   0.68733   0.71071   0.00000  Uiso   1.00
C912   C     0.53484   0.97780   0.71218   0.00000  Uiso   1.00
C913   C     0.49879   0.95726   0.75247   0.00000  Uiso   1.00
C914   C     0.65393   0.80968   0.71387   0.00000  Uiso   1.00
C915   C     0.36847   0.80967   0.71392   0.00000  Uiso   1.00
C916   C     0.34617   0.85695   0.78619   0.00000  Uiso   1.00
C917   C     0.63160   0.85705   0.78614   0.00000  Uiso   1.00
C918   C     0.50005   0.75338   0.74980   0.00000  Uiso   1.00
C919   C     0.52666   0.83422   0.64786   0.00000  Uiso   1.00
C920   C     0.59982   0.80899   0.50486   0.00000  Uiso   1.00
C921   C     0.54359   0.83448   0.58908   0.00000  Uiso   1.00
C922   C     0.41802   0.86124   0.93523   0.00000  Uiso   1.00
C923   C     0.41755   0.88578   0.97865   0.00000  Uiso   1.00
C924   C     0.45534   0.88284   0.99890   0.00000  Uiso   1.00
H925   H     0.56198   0.96037   0.68107   0.00000  Uiso   1.00
H926   H     0.39554   0.79071   0.68504   0.00000  Uiso   1.00
H927   H     0.35541   0.87581   0.81513   0.00000  Uiso   1.00
H928   H     0.59403   0.77027   0.91734   0.00000  Uiso   1.00
H929   H     0.39166   0.86772   0.91604   0.00000  Uiso   1.00
N930   N     0.38093   0.83334   0.75002   0.00000  Uiso   1.00
N931   N     0.61906   0.83331   0.75001   0.00000  Uiso   1.00
O932   O     0.46179   0.89442   0.75001   0.00000  Uiso   1.00
O933   O     0.53823   0.89441   0.75001   0.00000  Uiso   1.00
O934   O     0.44280   0.83333   0.82681   0.00000  Uiso   1.00
O935   O     0.51924   0.83332   0.82681   0.00000  Uiso   1.00
O936   O     0.46177   0.77226   0.75000   0.00000  Uiso   1.00
O937   O     0.53821   0.77225   0.75000   0.00000  Uiso   1.00
O938   O     0.48076   0.83335   0.67319   0.00000  Uiso   1.00
O939   O     0.55720   0.83334   0.67319   0.00000  Uiso   1.00
Zn940  Zn    0.44896   0.83334   0.75000   0.00000  Uiso   1.00
Zn941  Zn    0.55104   0.83333   0.75000   0.00000  Uiso   1.00
F942   F     0.62276   0.81116   0.58264   0.00000  Uiso   1.00
Br943  Br    0.41281   0.71921   0.84642   0.00000  Uiso   1.00
Br944  Br    0.58222   0.71413   0.65060   0.00000  Uiso   1.00
F945   F     0.64274   0.78609   0.67745   0.00000  Uiso   1.00
F946   F     0.59803   0.88115   0.82219   0.00000  Uiso   1.00
Br947  Br    0.66051   0.78229   0.96745   0.00000  Uiso   1.00
F948   F     0.46490   0.85587   0.59317   0.00000  Uiso   1.00
Br949  Br    0.46548   0.93124   0.53728   0.00000  Uiso   1.00
F950   F     0.38356   0.91617   0.99634   0.00000  Uiso   1.00
Br951  Br    0.52169   0.74747   0.87380   0.00000  Uiso   1.00
Br952  Br    0.41413   0.94898   0.84921   0.00000  Uiso   1.00
C953   C     0.83281   0.91322   0.75126   0.00000  Uiso   1.00
C954   C     0.82251   0.84927   0.98224   0.00000  Uiso   1.00
C955   C     0.82355   0.82505   0.93718   0.00000  Uiso   1.00
C956   C     0.85592   0.83924   0.50814   0.00000  Uiso   1.00
C957   C     0.89757   0.81516   0.98107   0.00000  Uiso   1.00
C958   C     0.89899   0.79279   0.93536   0.00000  Uiso   1.00
C959   C     0.85981   0.79385   0.91770   0.00000  Uiso   1.00
C960   C     0.84431   0.84558   0.56329   0.00000  Uiso   1.00
C961   C     0.92300   0.81969   0.55877   0.00000  Uiso   1.00
C962   C     0.79067   0.83494   0.91060   0.00000  Uiso   1.00
C963   C     0.79570   0.97864   0.79245   0.00000  Uiso   1.00
C964   C     0.80677   0.83177   0.85206   0.00000  Uiso   1.00
C965   C     0.79582   0.68866   0.79159   0.00000  Uiso   1.00
C966   C     0.83274   0.70920   0.75089   0.00000  Uiso   1.00
C967   C     0.86843   0.68733   0.71071   0.00000  Uiso   1.00
C968   C     0.86818   0.97780   0.71218   0.00000  Uiso   1.00
C969   C     0.83213   0.95726   0.75247   0.00000  Uiso   1.00
C970   C     0.98726   0.80968   0.71387   0.00000  Uiso   1.00
C971   C     0.70181   0.80967   0.71392   0.00000  Uiso   1.00
C972   C     0.67950   0.85695   0.78619   0.00000  Uiso   1.00
C973   C     0.96494   0.85705   0.78614   0.00000  Uiso   1.00
C974   C     0.83338   0.75338   0.74980   0.00000  Uiso   1.00
C975   C     0.85999   0.83422   0.64786   0.00000  Uiso   1.00
C976   C     0.93315   0.80899   0.50486   0.00000  Uiso   1.00
C977   C     0.87693   0.83448   0.58908   0.00000  Uiso   1.00
C978   C     0.75135   0.86124   0.93523   0.00000  Uiso   1.00
C979   C     0.75088   0.88578   0.97865   0.00000  Uiso   1.00
C980   C     0.78867   0.88284   0.99890   0.00000  Uiso   1.00
H981   H     0.89531   0.96037   0.68107   0.00000  Uiso   1.00
H982   H     0.72887   0.79071   0.68504   0.00000  Uiso   1.00
H983   H     0.68874   0.87581   0.81513   0.00000  Uiso   1.00
H984   H     0.92736   0.77027   0.91734   0.00000  Uiso   1.00
H985   H     0.72499   0.86772   0.91604   0.00000  Uiso   1.00
N986   N     0.71426   0.83334   0.75002   0.00000  Uiso   1.00
N987   N     0.95239   0.83331   0.75001   0.00000  Uiso   1.00
O988   O     0.79512   0.89442   0.75001   0.00000  Uiso   1.00
O989   O     0.87157   0.89441   0.75001   0.00000  Uiso   1.00
O990   O     0.77613   0.83333   0.82681   0.00000  Uiso   1.00
O991   O     0.85258   0.83332   0.82681   0.00000  Uiso   1.00
O992   O     0.79510   0.77226   0.75000   0.00000  Uiso   1.00
O993   O     0.87154   0.77225   0.75000   0.00000  Uiso   1.00
O994   O     0.81409   0.83335   0.67319   0.00000  Uiso   1.00
O995   O     0.89053   0.83334   0.67319   0.00000  Uiso   1.00
Zn996  Zn    0.78229   0.83334   0.75000   0.00000  Uiso   1.00
Zn997  Zn    0.88438   0.83333   0.75000   0.00000  Uiso   1.00
F998   F     0.95609   0.81116   0.58264   0.00000  Uiso   1.00
Br999  Br    0.74615   0.71921   0.84642   0.00000  Uiso   1.00
Br1000 Br    0.91555   0.71413   0.65060   0.00000  Uiso   1.00
F1001  F     0.97607   0.78609   0.67745   0.00000  Uiso   1.00
F1002  F     0.93137   0.88115   0.82219   0.00000  Uiso   1.00
Br1003 Br    0.99384   0.78229   0.96745   0.00000  Uiso   1.00
F1004  F     0.79823   0.85587   0.59317   0.00000  Uiso   1.00
Br1005 Br    0.79881   0.93124   0.53728   0.00000  Uiso   1.00
F1006  F     0.71689   0.91617   0.99634   0.00000  Uiso   1.00
Br1007 Br    0.85502   0.74747   0.87380   0.00000  Uiso   1.00
Br1008 Br    0.74746   0.94898   0.84921   0.00000  Uiso   1.00
loop_
_geom_bond_atom_site_label_1
_geom_bond_atom_site_label_2
_geom_bond_distance
_geom_bond_site_symmetry_2
_ccdc_geom_bond_type
C1     C17     1.408   .     S
C1     O37     1.281   .     A
C1     O36     1.280   .     A
C2     C3      1.413   .     A
C2     C28     1.426   .     A
C2     C508    1.415   .     S
C3     C10     1.413   .     A
C3     C7      1.422   .     A
C4     C8      1.393   .     A
C4     C506    1.415   1_554 S
C4     C509    1.418   1_554 S
C5     C6      1.394   .     A
C5     C508    1.418   .     S
C5     C528    1.410   .     S
C6     C7      1.388   .     A
C6     H32     1.082   .     S
C7     Br55    1.921   .     S
C8     F52     1.360   .     S
C8     C25     1.400   .     A
C9     C24     1.395   .     A
C9     C25     1.404   .     A
C9     F46     1.358   .     S
C10    C26     1.399   .     A
C10    C12     1.458   .     S
C11    C17     1.401   .     A
C11    Br56    1.932   .     S
C11    C181    1.385   .     S
C12    O39     1.291   .     A
C12    O38     1.296   .     A
C13    C14     1.408   .     A
C13    Br47    1.936   .     S
C13    C347    1.385   1_545 S
C14    C22     1.412   .     S
C14    C15     1.400   .     A
C15    Br48    1.922   .     S
C15    C352    1.370   1_545 S
C16    H29     1.085   .     S
C16    C17     1.390   .     A
C16    C183    1.370   .     S
C18    N35     1.367   .     A
C18    F49     1.352   .     S
C18    C75     1.416   .     S
C19    H30     1.082   .     S
C19    N34     1.366   .     A
C19    C130    1.416   1_455 S
C20    N34     1.365   .     A
C20    H31     1.082   .     S
C20    C133    1.417   1_455 S
C21    N35     1.369   .     A
C21    F50     1.355   .     S
C21    C76     1.417   .     S
C22    O40     1.278   .     A
C22    O41     1.285   .     A
C23    C25     1.460   .     S
C23    O43     1.294   .     A
C23    O42     1.293   .     A
C24    C509    1.410   1_554 S
C24    Br555   1.924   1_554 S
C26    H33     1.083   .     S
C26    C27     1.387   .     A
C27    F54     1.357   .     S
C27    C28     1.396   .     A
C28    Br557   1.932   .     S
N34    Zn44    2.011   .     S
N35    Zn45    2.011   .     S
O36    Zn44    1.991   .     S
O37    Zn45    1.986   .     S
O38    Zn44    1.974   .     S
O39    Zn45    1.924   .     S
O40    Zn44    1.986   .     S
O41    Zn45    1.991   .     S
O42    Zn44    1.924   .     S
O43    Zn45    1.974   .     S
Br51   C528    1.924   .     S
Br53   C532    1.932   1_554 S
C57    C73     1.408   .     S
C57    O93     1.281   .     A
C57    O92     1.280   .     A
C58    C59     1.413   .     A
C58    C84     1.426   .     A
C58    C564    1.415   .     S
C59    C66     1.413   .     A
C59    C63     1.422   .     A
C60    C64     1.393   .     A
C60    C562    1.415   1_554 S
C60    C565    1.418   1_554 S
C61    C62     1.394   .     A
C61    C564    1.418   .     S
C61    C584    1.410   .     S
C62    C63     1.388   .     A
C62    H88     1.082   .     S
C63    Br111   1.921   .     S
C64    F108    1.360   .     S
C64    C81     1.400   .     A
C65    C80     1.395   .     A
C65    C81     1.404   .     A
C65    F102    1.358   .     S
C66    C82     1.399   .     A
C66    C68     1.458   .     S
C67    C73     1.401   .     A
C67    Br112   1.932   .     S
C67    C237    1.385   .     S
C68    O95     1.291   .     A
C68    O94     1.296   .     A
C69    C70     1.408   .     A
C69    Br103   1.936   .     S
C69    C403    1.385   1_545 S
C70    C78     1.412   .     S
C70    C71     1.400   .     A
C71    Br104   1.922   .     S
C71    C408    1.370   1_545 S
C72    H85     1.085   .     S
C72    C73     1.390   .     A
C72    C239    1.370   .     S
C74    N91     1.367   .     A
C74    F105    1.352   .     S
C74    C131    1.416   .     S
C75    H86     1.082   .     S
C75    N90     1.366   .     A
C76    N90     1.365   .     A
C76    H87     1.082   .     S
C77    N91     1.369   .     A
C77    F106    1.355   .     S
C77    C132    1.417   .     S
C78    O96     1.278   .     A
C78    O97     1.285   .     A
C79    C81     1.460   .     S
C79    O99     1.294   .     A
C79    O98     1.293   .     A
C80    C565    1.410   1_554 S
C80    Br611   1.924   1_554 S
C82    H89     1.083   .     S
C82    C83     1.387   .     A
C83    F110    1.357   .     S
C83    C84     1.396   .     A
C84    Br613   1.932   .     S
N90    Zn100   2.011   .     S
N91    Zn101   2.011   .     S
O92    Zn100   1.991   .     S
O93    Zn101   1.986   .     S
O94    Zn100   1.974   .     S
O95    Zn101   1.924   .     S
O96    Zn100   1.986   .     S
O97    Zn101   1.991   .     S
O98    Zn100   1.924   .     S
O99    Zn101   1.974   .     S
Br107  C584    1.924   .     S
Br109  C588    1.932   1_554 S
C113   C129    1.408   .     S
C113   O149    1.281   .     A
C113   O148    1.280   .     A
C114   C115    1.413   .     A
C114   C140    1.426   .     A
C114   C620    1.415   .     S
C115   C122    1.413   .     A
C115   C119    1.422   .     A
C116   C120    1.393   .     A
C116   C618    1.415   1_554 S
C116   C621    1.418   1_554 S
C117   C118    1.394   .     A
C117   C620    1.418   .     S
C117   C640    1.410   .     S
C118   C119    1.388   .     A
C118   H144    1.082   .     S
C119   Br167   1.921   .     S
C120   F164    1.360   .     S
C120   C137    1.400   .     A
C121   C136    1.395   .     A
C121   C137    1.404   .     A
C121   F158    1.358   .     S
C122   C138    1.399   .     A
C122   C124    1.458   .     S
C123   C129    1.401   .     A
C123   Br168   1.932   .     S
C123   C293    1.385   .     S
C124   O151    1.291   .     A
C124   O150    1.296   .     A
C125   C126    1.408   .     A
C125   Br159   1.936   .     S
C125   C459    1.385   1_545 S
C126   C134    1.412   .     S
C126   C127    1.400   .     A
C127   Br160   1.922   .     S
C127   C464    1.370   1_545 S
C128   H141    1.085   .     S
C128   C129    1.390   .     A
C128   C295    1.370   .     S
C130   N147    1.367   .     A
C130   F161    1.352   .     S
C130   C19     1.416   1_655 S
C131   H142    1.082   .     S
C131   N146    1.366   .     A
C132   N146    1.365   .     A
C132   H143    1.082   .     S
C133   N147    1.369   .     A
C133   F162    1.355   .     S
C133   C20     1.417   1_655 S
C134   O152    1.278   .     A
C134   O153    1.285   .     A
C135   C137    1.460   .     S
C135   O155    1.294   .     A
C135   O154    1.293   .     A
C136   C621    1.410   1_554 S
C136   Br667   1.924   1_554 S
C138   H145    1.083   .     S
C138   C139    1.387   .     A
C139   F166    1.357   .     S
C139   C140    1.396   .     A
C140   Br669   1.932   .     S
N146   Zn156   2.011   .     S
N147   Zn157   2.011   .     S
O148   Zn156   1.991   .     S
O149   Zn157   1.986   .     S
O150   Zn156   1.974   .     S
O151   Zn157   1.924   .     S
O152   Zn156   1.986   .     S
O153   Zn157   1.991   .     S
O154   Zn156   1.924   .     S
O155   Zn157   1.974   .     S
Br163  C640    1.924   .     S
Br165  C644    1.932   1_554 S
C169   C185    1.408   .     S
C169   O205    1.281   .     A
C169   O204    1.280   .     A
C170   C171    1.413   .     A
C170   C196    1.426   .     A
C170   C676    1.415   .     S
C171   C178    1.413   .     A
C171   C175    1.422   .     A
C172   C176    1.393   .     A
C172   C674    1.415   1_554 S
C172   C677    1.418   1_554 S
C173   C174    1.394   .     A
C173   C676    1.418   .     S
C173   C696    1.410   .     S
C174   C175    1.388   .     A
C174   H200    1.082   .     S
C175   Br223   1.921   .     S
C176   F220    1.360   .     S
C176   C193    1.400   .     A
C177   C192    1.395   .     A
C177   C193    1.404   .     A
C177   F214    1.358   .     S
C178   C194    1.399   .     A
C178   C180    1.458   .     S
C179   C185    1.401   .     A
C179   Br224   1.932   .     S
C179   C349    1.385   .     S
C180   O207    1.291   .     A
C180   O206    1.296   .     A
C181   C182    1.408   .     A
C181   Br215   1.936   .     S
C182   C190    1.412   .     S
C182   C183    1.400   .     A
C183   Br216   1.922   .     S
C184   H197    1.085   .     S
C184   C185    1.390   .     A
C184   C351    1.370   .     S
C186   N203    1.367   .     A
C186   F217    1.352   .     S
C186   C243    1.416   .     S
C187   H198    1.082   .     S
C187   N202    1.366   .     A
C187   C298    1.416   1_455 S
C188   N202    1.365   .     A
C188   H199    1.082   .     S
C188   C301    1.417   1_455 S
C189   N203    1.369   .     A
C189   F218    1.355   .     S
C189   C244    1.417   .     S
C190   O208    1.278   .     A
C190   O209    1.285   .     A
C191   C193    1.460   .     S
C191   O211    1.294   .     A
C191   O210    1.293   .     A
C192   C677    1.410   1_554 S
C192   Br723   1.924   1_554 S
C194   H201    1.083   .     S
C194   C195    1.387   .     A
C195   F222    1.357   .     S
C195   C196    1.396   .     A
C196   Br725   1.932   .     S
N202   Zn212   2.011   .     S
N203   Zn213   2.011   .     S
O204   Zn212   1.991   .     S
O205   Zn213   1.986   .     S
O206   Zn212   1.974   .     S
O207   Zn213   1.924   .     S
O208   Zn212   1.986   .     S
O209   Zn213   1.991   .     S
O210   Zn212   1.924   .     S
O211   Zn213   1.974   .     S
Br219  C696    1.924   .     S
Br221  C700    1.932   1_554 S
C225   C241    1.408   .     S
C225   O261    1.281   .     A
C225   O260    1.280   .     A
C226   C227    1.413   .     A
C226   C252    1.426   .     A
C226   C732    1.415   .     S
C227   C234    1.413   .     A
C227   C231    1.422   .     A
C228   C232    1.393   .     A
C228   C730    1.415   1_554 S
C228   C733    1.418   1_554 S
C229   C230    1.394   .     A
C229   C732    1.418   .     S
C229   C752    1.410   .     S
C230   C231    1.388   .     A
C230   H256    1.082   .     S
C231   Br279   1.921   .     S
C232   F276    1.360   .     S
C232   C249    1.400   .     A
C233   C248    1.395   .     A
C233   C249    1.404   .     A
C233   F270    1.358   .     S
C234   C250    1.399   .     A
C234   C236    1.458   .     S
C235   C241    1.401   .     A
C235   Br280   1.932   .     S
C235   C405    1.385   .     S
C236   O263    1.291   .     A
C236   O262    1.296   .     A
C237   C238    1.408   .     A
C237   Br271   1.936   .     S
C238   C246    1.412   .     S
C238   C239    1.400   .     A
C239   Br272   1.922   .     S
C240   H253    1.085   .     S
C240   C241    1.390   .     A
C240   C407    1.370   .     S
C242   N259    1.367   .     A
C242   F273    1.352   .     S
C242   C299    1.416   .     S
C243   H254    1.082   .     S
C243   N258    1.366   .     A
C244   N258    1.365   .     A
C244   H255    1.082   .     S
C245   N259    1.369   .     A
C245   F274    1.355   .     S
C245   C300    1.417   .     S
C246   O264    1.278   .     A
C246   O265    1.285   .     A
C247   C249    1.460   .     S
C247   O267    1.294   .     A
C247   O266    1.293   .     A
C248   C733    1.410   1_554 S
C248   Br779   1.924   1_554 S
C250   H257    1.083   .     S
C250   C251    1.387   .     A
C251   F278    1.357   .     S
C251   C252    1.396   .     A
C252   Br781   1.932   .     S
N258   Zn268   2.011   .     S
N259   Zn269   2.011   .     S
O260   Zn268   1.991   .     S
O261   Zn269   1.986   .     S
O262   Zn268   1.974   .     S
O263   Zn269   1.924   .     S
O264   Zn268   1.986   .     S
O265   Zn269   1.991   .     S
O266   Zn268   1.924   .     S
O267   Zn269   1.974   .     S
Br275  C752    1.924   .     S
Br277  C756    1.932   1_554 S
C281   C297    1.408   .     S
C281   O317    1.281   .     A
C281   O316    1.280   .     A
C282   C283    1.413   .     A
C282   C308    1.426   .     A
C282   C788    1.415   .     S
C283   C290    1.413   .     A
C283   C287    1.422   .     A
C284   C288    1.393   .     A
C284   C786    1.415   1_554 S
C284   C789    1.418   1_554 S
C285   C286    1.394   .     A
C285   C788    1.418   .     S
C285   C808    1.410   .     S
C286   C287    1.388   .     A
C286   H312    1.082   .     S
C287   Br335   1.921   .     S
C288   F332    1.360   .     S
C288   C305    1.400   .     A
C289   C304    1.395   .     A
C289   C305    1.404   .     A
C289   F326    1.358   .     S
C290   C306    1.399   .     A
C290   C292    1.458   .     S
C291   C297    1.401   .     A
C291   Br336   1.932   .     S
C291   C461    1.385   .     S
C292   O319    1.291   .     A
C292   O318    1.296   .     A
C293   C294    1.408   .     A
C293   Br327   1.936   .     S
C294   C302    1.412   .     S
C294   C295    1.400   .     A
C295   Br328   1.922   .     S
C296   H309    1.085   .     S
C296   C297    1.390   .     A
C296   C463    1.370   .     S
C298   N315    1.367   .     A
C298   F329    1.352   .     S
C298   C187    1.416   1_655 S
C299   H310    1.082   .     S
C299   N314    1.366   .     A
C300   N314    1.365   .     A
C300   H311    1.082   .     S
C301   N315    1.369   .     A
C301   F330    1.355   .     S
C301   C188    1.417   1_655 S
C302   O320    1.278   .     A
C302   O321    1.285   .     A
C303   C305    1.460   .     S
C303   O323    1.294   .     A
C303   O322    1.293   .     A
C304   C789    1.410   1_554 S
C304   Br835   1.924   1_554 S
C306   H313    1.083   .     S
C306   C307    1.387   .     A
C307   F334    1.357   .     S
C307   C308    1.396   .     A
C308   Br837   1.932   .     S
N314   Zn324   2.011   .     S
N315   Zn325   2.011   .     S
O316   Zn324   1.991   .     S
O317   Zn325   1.986   .     S
O318   Zn324   1.974   .     S
O319   Zn325   1.924   .     S
O320   Zn324   1.986   .     S
O321   Zn325   1.991   .     S
O322   Zn324   1.924   .     S
O323   Zn325   1.974   .     S
Br331  C808    1.924   .     S
Br333  C812    1.932   1_554 S
C337   C353    1.408   .     S
C337   O373    1.281   .     A
C337   O372    1.280   .     A
C338   C339    1.413   .     A
C338   C364    1.426   .     A
C338   C844    1.415   .     S
C339   C346    1.413   .     A
C339   C343    1.422   .     A
C340   C344    1.393   .     A
C340   C842    1.415   1_554 S
C340   C845    1.418   1_554 S
C341   C342    1.394   .     A
C341   C844    1.418   .     S
C341   C864    1.410   .     S
C342   C343    1.388   .     A
C342   H368    1.082   .     S
C343   Br391   1.921   .     S
C344   F388    1.360   .     S
C344   C361    1.400   .     A
C345   C360    1.395   .     A
C345   C361    1.404   .     A
C345   F382    1.358   .     S
C346   C362    1.399   .     A
C346   C348    1.458   .     S
C347   C353    1.401   .     A
C347   Br392   1.932   .     S
C347   C13     1.385   1_565 S
C348   O375    1.291   .     A
C348   O374    1.296   .     A
C349   C350    1.408   .     A
C349   Br383   1.936   .     S
C350   C358    1.412   .     S
C350   C351    1.400   .     A
C351   Br384   1.922   .     S
C352   H365    1.085   .     S
C352   C353    1.390   .     A
C352   C15     1.370   1_565 S
C354   N371    1.367   .     A
C354   F385    1.352   .     S
C354   C411    1.416   .     S
C355   H366    1.082   .     S
C355   N370    1.366   .     A
C355   C466    1.416   1_455 S
C356   N370    1.365   .     A
C356   H367    1.082   .     S
C356   C469    1.417   1_455 S
C357   N371    1.369   .     A
C357   F386    1.355   .     S
C357   C412    1.417   .     S
C358   O376    1.278   .     A
C358   O377    1.285   .     A
C359   C361    1.460   .     S
C359   O379    1.294   .     A
C359   O378    1.293   .     A
C360   C845    1.410   1_554 S
C360   Br891   1.924   1_554 S
C362   H369    1.083   .     S
C362   C363    1.387   .     A
C363   F390    1.357   .     S
C363   C364    1.396   .     A
C364   Br893   1.932   .     S
N370   Zn380   2.011   .     S
N371   Zn381   2.011   .     S
O372   Zn380   1.991   .     S
O373   Zn381   1.986   .     S
O374   Zn380   1.974   .     S
O375   Zn381   1.924   .     S
O376   Zn380   1.986   .     S
O377   Zn381   1.991   .     S
O378   Zn380   1.924   .     S
O379   Zn381   1.974   .     S
Br387  C864    1.924   .     S
Br389  C868    1.932   1_554 S
C393   C409    1.408   .     S
C393   O429    1.281   .     A
C393   O428    1.280   .     A
C394   C395    1.413   .     A
C394   C420    1.426   .     A
C394   C900    1.415   .     S
C395   C402    1.413   .     A
C395   C399    1.422   .     A
C396   C400    1.393   .     A
C396   C898    1.415   1_554 S
C396   C901    1.418   1_554 S
C397   C398    1.394   .     A
C397   C900    1.418   .     S
C397   C920    1.410   .     S
C398   C399    1.388   .     A
C398   H424    1.082   .     S
C399   Br447   1.921   .     S
C400   F444    1.360   .     S
C400   C417    1.400   .     A
C401   C416    1.395   .     A
C401   C417    1.404   .     A
C401   F438    1.358   .     S
C402   C418    1.399   .     A
C402   C404    1.458   .     S
C403   C409    1.401   .     A
C403   Br448   1.932   .     S
C403   C69     1.385   1_565 S
C404   O431    1.291   .     A
C404   O430    1.296   .     A
C405   C406    1.408   .     A
C405   Br439   1.936   .     S
C406   C414    1.412   .     S
C406   C407    1.400   .     A
C407   Br440   1.922   .     S
C408   H421    1.085   .     S
C408   C409    1.390   .     A
C408   C71     1.370   1_565 S
C410   N427    1.367   .     A
C410   F441    1.352   .     S
C410   C467    1.416   .     S
C411   H422    1.082   .     S
C411   N426    1.366   .     A
C412   N426    1.365   .     A
C412   H423    1.082   .     S
C413   N427    1.369   .     A
C413   F442    1.355   .     S
C413   C468    1.417   .     S
C414   O432    1.278   .     A
C414   O433    1.285   .     A
C415   C417    1.460   .     S
C415   O435    1.294   .     A
C415   O434    1.293   .     A
C416   C901    1.410   1_554 S
C416   Br947   1.924   1_554 S
C418   H425    1.083   .     S
C418   C419    1.387   .     A
C419   F446    1.357   .     S
C419   C420    1.396   .     A
C420   Br949   1.932   .     S
N426   Zn436   2.011   .     S
N427   Zn437   2.011   .     S
O428   Zn436   1.991   .     S
O429   Zn437   1.986   .     S
O430   Zn436   1.974   .     S
O431   Zn437   1.924   .     S
O432   Zn436   1.986   .     S
O433   Zn437   1.991   .     S
O434   Zn436   1.924   .     S
O435   Zn437   1.974   .     S
Br443  C920    1.924   .     S
Br445  C924    1.932   1_554 S
C449   C465    1.408   .     S
C449   O485    1.281   .     A
C449   O484    1.280   .     A
C450   C451    1.413   .     A
C450   C476    1.426   .     A
C450   C956    1.415   .     S
C451   C458    1.413   .     A
C451   C455    1.422   .     A
C452   C456    1.393   .     A
C452   C954    1.415   1_554 S
C452   C957    1.418   1_554 S
C453   C454    1.394   .     A
C453   C956    1.418   .     S
C453   C976    1.410   .     S
C454   C455    1.388   .     A
C454   H480    1.082   .     S
C455   Br503   1.921   .     S
C456   F500    1.360   .     S
C456   C473    1.400   .     A
C457   C472    1.395   .     A
C457   C473    1.404   .     A
C457   F494    1.358   .     S
C458   C474    1.399   .     A
C458   C460    1.458   .     S
C459   C465    1.401   .     A
C459   Br504   1.932   .     S
C459   C125    1.385   1_565 S
C460   O487    1.291   .     A
C460   O486    1.296   .     A
C461   C462    1.408   .     A
C461   Br495   1.936   .     S
C462   C470    1.412   .     S
C462   C463    1.400   .     A
C463   Br496   1.922   .     S
C464   H477    1.085   .     S
C464   C465    1.390   .     A
C464   C127    1.370   1_565 S
C466   N483    1.367   .     A
C466   F497    1.352   .     S
C466   C355    1.416   1_655 S
C467   H478    1.082   .     S
C467   N482    1.366   .     A
C468   N482    1.365   .     A
C468   H479    1.082   .     S
C469   N483    1.369   .     A
C469   F498    1.355   .     S
C469   C356    1.417   1_655 S
C470   O488    1.278   .     A
C470   O489    1.285   .     A
C471   C473    1.460   .     S
C471   O491    1.294   .     A
C471   O490    1.293   .     A
C472   C957    1.410   1_554 S
C472   Br1003  1.924   1_554 S
C474   H481    1.083   .     S
C474   C475    1.387   .     A
C475   F502    1.357   .     S
C475   C476    1.396   .     A
C476   Br1005  1.932   .     S
N482   Zn492   2.011   .     S
N483   Zn493   2.011   .     S
O484   Zn492   1.991   .     S
O485   Zn493   1.986   .     S
O486   Zn492   1.974   .     S
O487   Zn493   1.924   .     S
O488   Zn492   1.986   .     S
O489   Zn493   1.991   .     S
O490   Zn492   1.924   .     S
O491   Zn493   1.974   .     S
Br499  C976    1.924   .     S
Br501  C980    1.932   1_554 S
C505   C521    1.408   .     S
C505   O541    1.281   .     A
C505   O540    1.280   .     A
C506   C507    1.413   .     A
C506   C532    1.426   .     A
C506   C4      1.415   1_556 S
C507   C514    1.413   .     A
C507   C511    1.422   .     A
C508   C512    1.393   .     A
C509   C510    1.394   .     A
C509   C4      1.418   1_556 S
C509   C24     1.410   1_556 S
C510   C511    1.388   .     A
C510   H536    1.082   .     S
C511   Br559   1.921   .     S
C512   F556    1.360   .     S
C512   C529    1.400   .     A
C513   C528    1.395   .     A
C513   C529    1.404   .     A
C513   F550    1.358   .     S
C514   C530    1.399   .     A
C514   C516    1.458   .     S
C515   C521    1.401   .     A
C515   Br560   1.932   .     S
C515   C685    1.385   .     S
C516   O543    1.291   .     A
C516   O542    1.296   .     A
C517   C518    1.408   .     A
C517   Br551   1.936   .     S
C517   C851    1.385   1_545 S
C518   C526    1.412   .     S
C518   C519    1.400   .     A
C519   Br552   1.922   .     S
C519   C856    1.370   1_545 S
C520   H533    1.085   .     S
C520   C521    1.390   .     A
C520   C687    1.370   .     S
C522   N539    1.367   .     A
C522   F553    1.352   .     S
C522   C579    1.416   .     S
C523   H534    1.082   .     S
C523   N538    1.366   .     A
C523   C634    1.416   1_455 S
C524   N538    1.365   .     A
C524   H535    1.082   .     S
C524   C637    1.417   1_455 S
C525   N539    1.369   .     A
C525   F554    1.355   .     S
C525   C580    1.417   .     S
C526   O544    1.278   .     A
C526   O545    1.285   .     A
C527   C529    1.460   .     S
C527   O547    1.294   .     A
C527   O546    1.293   .     A
C530   H537    1.083   .     S
C530   C531    1.387   .     A
C531   F558    1.357   .     S
C531   C532    1.396   .     A
C532   Br53    1.932   1_556 S
N538   Zn548   2.011   .     S
N539   Zn549   2.011   .     S
O540   Zn548   1.991   .     S
O541   Zn549   1.986   .     S
O542   Zn548   1.974   .     S
O543   Zn549   1.924   .     S
O544   Zn548   1.986   .     S
O545   Zn549   1.991   .     S
O546   Zn548   1.924   .     S
O547   Zn549   1.974   .     S
Br555  C24     1.924   1_556 S
C561   C577    1.408   .     S
C561   O597    1.281   .     A
C561   O596    1.280   .     A
C562   C563    1.413   .     A
C562   C588    1.426   .     A
C562   C60     1.415   1_556 S
C563   C570    1.413   .     A
C563   C567    1.422   .     A
C564   C568    1.393   .     A
C565   C566    1.394   .     A
C565   C60     1.418   1_556 S
C565   C80     1.410   1_556 S
C566   C567    1.388   .     A
C566   H592    1.082   .     S
C567   Br615   1.921   .     S
C568   F612    1.360   .     S
C568   C585    1.400   .     A
C569   C584    1.395   .     A
C569   C585    1.404   .     A
C569   F606    1.358   .     S
C570   C586    1.399   .     A
C570   C572    1.458   .     S
C571   C577    1.401   .     A
C571   Br616   1.932   .     S
C571   C741    1.385   .     S
C572   O599    1.291   .     A
C572   O598    1.296   .     A
C573   C574    1.408   .     A
C573   Br607   1.936   .     S
C573   C907    1.385   1_545 S
C574   C582    1.412   .     S
C574   C575    1.400   .     A
C575   Br608   1.922   .     S
C575   C912    1.370   1_545 S
C576   H589    1.085   .     S
C576   C577    1.390   .     A
C576   C743    1.370   .     S
C578   N595    1.367   .     A
C578   F609    1.352   .     S
C578   C635    1.416   .     S
C579   H590    1.082   .     S
C579   N594    1.366   .     A
C580   N594    1.365   .     A
C580   H591    1.082   .     S
C581   N595    1.369   .     A
C581   F610    1.355   .     S
C581   C636    1.417   .     S
C582   O600    1.278   .     A
C582   O601    1.285   .     A
C583   C585    1.460   .     S
C583   O603    1.294   .     A
C583   O602    1.293   .     A
C586   H593    1.083   .     S
C586   C587    1.387   .     A
C587   F614    1.357   .     S
C587   C588    1.396   .     A
C588   Br109   1.932   1_556 S
N594   Zn604   2.011   .     S
N595   Zn605   2.011   .     S
O596   Zn604   1.991   .     S
O597   Zn605   1.986   .     S
O598   Zn604   1.974   .     S
O599   Zn605   1.924   .     S
O600   Zn604   1.986   .     S
O601   Zn605   1.991   .     S
O602   Zn604   1.924   .     S
O603   Zn605   1.974   .     S
Br611  C80     1.924   1_556 S
C617   C633    1.408   .     S
C617   O653    1.281   .     A
C617   O652    1.280   .     A
C618   C619    1.413   .     A
C618   C644    1.426   .     A
C618   C116    1.415   1_556 S
C619   C626    1.413   .     A
C619   C623    1.422   .     A
C620   C624    1.393   .     A
C621   C622    1.394   .     A
C621   C116    1.418   1_556 S
C621   C136    1.410   1_556 S
C622   C623    1.388   .     A
C622   H648    1.082   .     S
C623   Br671   1.921   .     S
C624   F668    1.360   .     S
C624   C641    1.400   .     A
C625   C640    1.395   .     A
C625   C641    1.404   .     A
C625   F662    1.358   .     S
C626   C642    1.399   .     A
C626   C628    1.458   .     S
C627   C633    1.401   .     A
C627   Br672   1.932   .     S
C627   C797    1.385   .     S
C628   O655    1.291   .     A
C628   O654    1.296   .     A
C629   C630    1.408   .     A
C629   Br663   1.936   .     S
C629   C963    1.385   1_545 S
C630   C638    1.412   .     S
C630   C631    1.400   .     A
C631   Br664   1.922   .     S
C631   C968    1.370   1_545 S
C632   H645    1.085   .     S
C632   C633    1.390   .     A
C632   C799    1.370   .     S
C634   N651    1.367   .     A
C634   F665    1.352   .     S
C634   C523    1.416   1_655 S
C635   H646    1.082   .     S
C635   N650    1.366   .     A
C636   N650    1.365   .     A
C636   H647    1.082   .     S
C637   N651    1.369   .     A
C637   F666    1.355   .     S
C637   C524    1.417   1_655 S
C638   O656    1.278   .     A
C638   O657    1.285   .     A
C639   C641    1.460   .     S
C639   O659    1.294   .     A
C639   O658    1.293   .     A
C642   H649    1.083   .     S
C642   C643    1.387   .     A
C643   F670    1.357   .     S
C643   C644    1.396   .     A
C644   Br165   1.932   1_556 S
N650   Zn660   2.011   .     S
N651   Zn661   2.011   .     S
O652   Zn660   1.991   .     S
O653   Zn661   1.986   .     S
O654   Zn660   1.974   .     S
O655   Zn661   1.924   .     S
O656   Zn660   1.986   .     S
O657   Zn661   1.991   .     S
O658   Zn660   1.924   .     S
O659   Zn661   1.974   .     S
Br667  C136    1.924   1_556 S
C673   C689    1.408   .     S
C673   O709    1.281   .     A
C673   O708    1.280   .     A
C674   C675    1.413   .     A
C674   C700    1.426   .     A
C674   C172    1.415   1_556 S
C675   C682    1.413   .     A
C675   C679    1.422   .     A
C676   C680    1.393   .     A
C677   C678    1.394   .     A
C677   C172    1.418   1_556 S
C677   C192    1.410   1_556 S
C678   C679    1.388   .     A
C678   H704    1.082   .     S
C679   Br727   1.921   .     S
C680   F724    1.360   .     S
C680   C697    1.400   .     A
C681   C696    1.395   .     A
C681   C697    1.404   .     A
C681   F718    1.358   .     S
C682   C698    1.399   .     A
C682   C684    1.458   .     S
C683   C689    1.401   .     A
C683   Br728   1.932   .     S
C683   C853    1.385   .     S
C684   O711    1.291   .     A
C684   O710    1.296   .     A
C685   C686    1.408   .     A
C685   Br719   1.936   .     S
C686   C694    1.412   .     S
C686   C687    1.400   .     A
C687   Br720   1.922   .     S
C688   H701    1.085   .     S
C688   C689    1.390   .     A
C688   C855    1.370   .     S
C690   N707    1.367   .     A
C690   F721    1.352   .     S
C690   C747    1.416   .     S
C691   H702    1.082   .     S
C691   N706    1.366   .     A
C691   C802    1.416   1_455 S
C692   N706    1.365   .     A
C692   H703    1.082   .     S
C692   C805    1.417   1_455 S
C693   N707    1.369   .     A
C693   F722    1.355   .     S
C693   C748    1.417   .     S
C694   O712    1.278   .     A
C694   O713    1.285   .     A
C695   C697    1.460   .     S
C695   O715    1.294   .     A
C695   O714    1.293   .     A
C698   H705    1.083   .     S
C698   C699    1.387   .     A
C699   F726    1.357   .     S
C699   C700    1.396   .     A
C700   Br221   1.932   1_556 S
N706   Zn716   2.011   .     S
N707   Zn717   2.011   .     S
O708   Zn716   1.991   .     S
O709   Zn717   1.986   .     S
O710   Zn716   1.974   .     S
O711   Zn717   1.924   .     S
O712   Zn716   1.986   .     S
O713   Zn717   1.991   .     S
O714   Zn716   1.924   .     S
O715   Zn717   1.974   .     S
Br723  C192    1.924   1_556 S
C729   C745    1.408   .     S
C729   O765    1.281   .     A
C729   O764    1.280   .     A
C730   C731    1.413   .     A
C730   C756    1.426   .     A
C730   C228    1.415   1_556 S
C731   C738    1.413   .     A
C731   C735    1.422   .     A
C732   C736    1.393   .     A
C733   C734    1.394   .     A
C733   C228    1.418   1_556 S
C733   C248    1.410   1_556 S
C734   C735    1.388   .     A
C734   H760    1.082   .     S
C735   Br783   1.921   .     S
C736   F780    1.360   .     S
C736   C753    1.400   .     A
C737   C752    1.395   .     A
C737   C753    1.404   .     A
C737   F774    1.358   .     S
C738   C754    1.399   .     A
C738   C740    1.458   .     S
C739   C745    1.401   .     A
C739   Br784   1.932   .     S
C739   C909    1.385   .     S
C740   O767    1.291   .     A
C740   O766    1.296   .     A
C741   C742    1.408   .     A
C741   Br775   1.936   .     S
C742   C750    1.412   .     S
C742   C743    1.400   .     A
C743   Br776   1.922   .     S
C744   H757    1.085   .     S
C744   C745    1.390   .     A
C744   C911    1.370   .     S
C746   N763    1.367   .     A
C746   F777    1.352   .     S
C746   C803    1.416   .     S
C747   H758    1.082   .     S
C747   N762    1.366   .     A
C748   N762    1.365   .     A
C748   H759    1.082   .     S
C749   N763    1.369   .     A
C749   F778    1.355   .     S
C749   C804    1.417   .     S
C750   O768    1.278   .     A
C750   O769    1.285   .     A
C751   C753    1.460   .     S
C751   O771    1.294   .     A
C751   O770    1.293   .     A
C754   H761    1.083   .     S
C754   C755    1.387   .     A
C755   F782    1.357   .     S
C755   C756    1.396   .     A
C756   Br277   1.932   1_556 S
N762   Zn772   2.011   .     S
N763   Zn773   2.011   .     S
O764   Zn772   1.991   .     S
O765   Zn773   1.986   .     S
O766   Zn772   1.974   .     S
O767   Zn773   1.924   .     S
O768   Zn772   1.986   .     S
O769   Zn773   1.991   .     S
O770   Zn772   1.924   .     S
O771   Zn773   1.974   .     S
Br779  C248    1.924   1_556 S
C785   C801    1.408   .     S
C785   O821    1.281   .     A
C785   O820    1.280   .     A
C786   C787    1.413   .     A
C786   C812    1.426   .     A
C786   C284    1.415   1_556 S
C787   C794    1.413   .     A
C787   C791    1.422   .     A
C788   C792    1.393   .     A
C789   C790    1.394   .     A
C789   C284    1.418   1_556 S
C789   C304    1.410   1_556 S
C790   C791    1.388   .     A
C790   H816    1.082   .     S
C791   Br839   1.921   .     S
C792   F836    1.360   .     S
C792   C809    1.400   .     A
C793   C808    1.395   .     A
C793   C809    1.404   .     A
C793   F830    1.358   .     S
C794   C810    1.399   .     A
C794   C796    1.458   .     S
C795   C801    1.401   .     A
C795   Br840   1.932   .     S
C795   C965    1.385   .     S
C796   O823    1.291   .     A
C796   O822    1.296   .     A
C797   C798    1.408   .     A
C797   Br831   1.936   .     S
C798   C806    1.412   .     S
C798   C799    1.400   .     A
C799   Br832   1.922   .     S
C800   H813    1.085   .     S
C800   C801    1.390   .     A
C800   C967    1.370   .     S
C802   N819    1.367   .     A
C802   F833    1.352   .     S
C802   C691    1.416   1_655 S
C803   H814    1.082   .     S
C803   N818    1.366   .     A
C804   N818    1.365   .     A
C804   H815    1.082   .     S
C805   N819    1.369   .     A
C805   F834    1.355   .     S
C805   C692    1.417   1_655 S
C806   O824    1.278   .     A
C806   O825    1.285   .     A
C807   C809    1.460   .     S
C807   O827    1.294   .     A
C807   O826    1.293   .     A
C810   H817    1.083   .     S
C810   C811    1.387   .     A
C811   F838    1.357   .     S
C811   C812    1.396   .     A
C812   Br333   1.932   1_556 S
N818   Zn828   2.011   .     S
N819   Zn829   2.011   .     S
O820   Zn828   1.991   .     S
O821   Zn829   1.986   .     S
O822   Zn828   1.974   .     S
O823   Zn829   1.924   .     S
O824   Zn828   1.986   .     S
O825   Zn829   1.991   .     S
O826   Zn828   1.924   .     S
O827   Zn829   1.974   .     S
Br835  C304    1.924   1_556 S
C841   C857    1.408   .     S
C841   O877    1.281   .     A
C841   O876    1.280   .     A
C842   C843    1.413   .     A
C842   C868    1.426   .     A
C842   C340    1.415   1_556 S
C843   C850    1.413   .     A
C843   C847    1.422   .     A
C844   C848    1.393   .     A
C845   C846    1.394   .     A
C845   C340    1.418   1_556 S
C845   C360    1.410   1_556 S
C846   C847    1.388   .     A
C846   H872    1.082   .     S
C847   Br895   1.921   .     S
C848   F892    1.360   .     S
C848   C865    1.400   .     A
C849   C864    1.395   .     A
C849   C865    1.404   .     A
C849   F886    1.358   .     S
C850   C866    1.399   .     A
C850   C852    1.458   .     S
C851   C857    1.401   .     A
C851   Br896   1.932   .     S
C851   C517    1.385   1_565 S
C852   O879    1.291   .     A
C852   O878    1.296   .     A
C853   C854    1.408   .     A
C853   Br887   1.936   .     S
C854   C862    1.412   .     S
C854   C855    1.400   .     A
C855   Br888   1.922   .     S
C856   H869    1.085   .     S
C856   C857    1.390   .     A
C856   C519    1.370   1_565 S
C858   N875    1.367   .     A
C858   F889    1.352   .     S
C858   C915    1.416   .     S
C859   H870    1.082   .     S
C859   N874    1.366   .     A
C859   C970    1.416   1_455 S
C860   N874    1.365   .     A
C860   H871    1.082   .     S
C860   C973    1.417   1_455 S
C861   N875    1.369   .     A
C861   F890    1.355   .     S
C861   C916    1.417   .     S
C862   O880    1.278   .     A
C862   O881    1.285   .     A
C863   C865    1.460   .     S
C863   O883    1.294   .     A
C863   O882    1.293   .     A
C866   H873    1.083   .     S
C866   C867    1.387   .     A
C867   F894    1.357   .     S
C867   C868    1.396   .     A
C868   Br389   1.932   1_556 S
N874   Zn884   2.011   .     S
N875   Zn885   2.011   .     S
O876   Zn884   1.991   .     S
O877   Zn885   1.986   .     S
O878   Zn884   1.974   .     S
O879   Zn885   1.924   .     S
O880   Zn884   1.986   .     S
O881   Zn885   1.991   .     S
O882   Zn884   1.924   .     S
O883   Zn885   1.974   .     S
Br891  C360    1.924   1_556 S
C897   C913    1.408   .     S
C897   O933    1.281   .     A
C897   O932    1.280   .     A
C898   C899    1.413   .     A
C898   C924    1.426   .     A
C898   C396    1.415   1_556 S
C899   C906    1.413   .     A
C899   C903    1.422   .     A
C900   C904    1.393   .     A
C901   C902    1.394   .     A
C901   C396    1.418   1_556 S
C901   C416    1.410   1_556 S
C902   C903    1.388   .     A
C902   H928    1.082   .     S
C903   Br951   1.921   .     S
C904   F948    1.360   .     S
C904   C921    1.400   .     A
C905   C920    1.395   .     A
C905   C921    1.404   .     A
C905   F942    1.358   .     S
C906   C922    1.399   .     A
C906   C908    1.458   .     S
C907   C913    1.401   .     A
C907   Br952   1.932   .     S
C907   C573    1.385   1_565 S
C908   O935    1.291   .     A
C908   O934    1.296   .     A
C909   C910    1.408   .     A
C909   Br943   1.936   .     S
C910   C918    1.412   .     S
C910   C911    1.400   .     A
C911   Br944   1.922   .     S
C912   H925    1.085   .     S
C912   C913    1.390   .     A
C912   C575    1.370   1_565 S
C914   N931    1.367   .     A
C914   F945    1.352   .     S
C914   C971    1.416   .     S
C915   H926    1.082   .     S
C915   N930    1.366   .     A
C916   N930    1.365   .     A
C916   H927    1.082   .     S
C917   N931    1.369   .     A
C917   F946    1.355   .     S
C917   C972    1.417   .     S
C918   O936    1.278   .     A
C918   O937    1.285   .     A
C919   C921    1.460   .     S
C919   O939    1.294   .     A
C919   O938    1.293   .     A
C922   H929    1.083   .     S
C922   C923    1.387   .     A
C923   F950    1.357   .     S
C923   C924    1.396   .     A
C924   Br445   1.932   1_556 S
N930   Zn940   2.011   .     S
N931   Zn941   2.011   .     S
O932   Zn940   1.991   .     S
O933   Zn941   1.986   .     S
O934   Zn940   1.974   .     S
O935   Zn941   1.924   .     S
O936   Zn940   1.986   .     S
O937   Zn941   1.991   .     S
O938   Zn940   1.924   .     S
O939   Zn941   1.974   .     S
Br947  C416    1.924   1_556 S
C953   C969    1.408   .     S
C953   O989    1.281   .     A
C953   O988    1.280   .     A
C954   C955    1.413   .     A
C954   C980    1.426   .     A
C954   C452    1.415   1_556 S
C955   C962    1.413   .     A
C955   C959    1.422   .     A
C956   C960    1.393   .     A
C957   C958    1.394   .     A
C957   C452    1.418   1_556 S
C957   C472    1.410   1_556 S
C958   C959    1.388   .     A
C958   H984    1.082   .     S
C959   Br1007  1.921   .     S
C960   F1004   1.360   .     S
C960   C977    1.400   .     A
C961   C976    1.395   .     A
C961   C977    1.404   .     A
C961   F998    1.358   .     S
C962   C978    1.399   .     A
C962   C964    1.458   .     S
C963   C969    1.401   .     A
C963   Br1008  1.932   .     S
C963   C629    1.385   1_565 S
C964   O991    1.291   .     A
C964   O990    1.296   .     A
C965   C966    1.408   .     A
C965   Br999   1.936   .     S
C966   C974    1.412   .     S
C966   C967    1.400   .     A
C967   Br1000  1.922   .     S
C968   H981    1.085   .     S
C968   C969    1.390   .     A
C968   C631    1.370   1_565 S
C970   N987    1.367   .     A
C970   F1001   1.352   .     S
C970   C859    1.416   1_655 S
C971   H982    1.082   .     S
C971   N986    1.366   .     A
C972   N986    1.365   .     A
C972   H983    1.082   .     S
C973   N987    1.369   .     A
C973   F1002   1.355   .     S
C973   C860    1.417   1_655 S
C974   O992    1.278   .     A
C974   O993    1.285   .     A
C975   C977    1.460   .     S
C975   O995    1.294   .     A
C975   O994    1.293   .     A
C978   H985    1.083   .     S
C978   C979    1.387   .     A
C979   F1006   1.357   .     S
C979   C980    1.396   .     A
C980   Br501   1.932   1_556 S
N986   Zn996   2.011   .     S
N987   Zn997   2.011   .     S
O988   Zn996   1.991   .     S
O989   Zn997   1.986   .     S
O990   Zn996   1.974   .     S
O991   Zn997   1.924   .     S
O992   Zn996   1.986   .     S
O993   Zn997   1.991   .     S
O994   Zn996   1.924   .     S
O995   Zn997   1.974   .     S
Br1003 C472    1.924   1_556 S
