data_str_m3_o1_o18_pcu_sym.66
_audit_creation_date              2020-01-03
_audit_creation_method            'Materials Studio'
_symmetry_space_group_name_H-M    'P1'
_symmetry_Int_Tables_number       1
_symmetry_cell_setting            triclinic
loop_
_symmetry_equiv_pos_as_xyz
  x,y,z
_cell_length_a                    29.5451
_cell_length_b                    31.9457
_cell_length_c                    30.4884
_cell_angle_alpha                 90.4015
_cell_angle_beta                  67.8158
_cell_angle_gamma                 89.9768
loop_
_atom_site_label
_atom_site_type_symbol
_atom_site_fract_x
_atom_site_fract_y
_atom_site_fract_z
_atom_site_U_iso_or_equiv
_atom_site_adp_type
_atom_site_occupancy
C1     C     0.16674   0.24652   0.24979   0.00000  Uiso   1.00
C2     C     0.16029   0.31173   0.21206   0.00000  Uiso   1.00
C3     C     0.16654   0.04260   0.25049   0.00000  Uiso   1.00
C4     C     0.16675   0.29070   0.24960   0.00000  Uiso   1.00
C5     C     0.32021   0.13973   0.22109   0.00000  Uiso   1.00
C6     C     0.01334   0.19404   0.27843   0.00000  Uiso   1.00
C7     C     0.03515   0.13889   0.22212   0.00000  Uiso   1.00
C8     C     0.29821   0.19454   0.27776   0.00000  Uiso   1.00
C9     C     0.13611   0.16506   0.33840   0.00000  Uiso   1.00
C10    C     0.19739   0.16747   0.16117   0.00000  Uiso   1.00
C11    C     0.11781   0.15369   0.38869   0.00000  Uiso   1.00
C12    C     0.16656   0.08680   0.25028   0.00000  Uiso   1.00
C13    C     0.21799   0.16690   0.10850   0.00000  Uiso   1.00
C14    C     0.07147   0.10760   0.45327   0.00000  Uiso   1.00
C15    C     0.28554   0.17594   0.03148   0.00000  Uiso   1.00
C16    C     0.08028   0.12401   0.40821   0.00000  Uiso   1.00
C17    C     0.26735   0.17759   0.08172   0.00000  Uiso   1.00
C18    C     0.14581   0.16615   0.41436   0.00000  Uiso   1.00
C19    C     0.18785   0.15396   0.08460   0.00000  Uiso   1.00
C20    C     0.14695   0.14056   0.45144   0.00000  Uiso   1.00
C21    C     0.20749   0.14672   0.03559   0.00000  Uiso   1.00
C22    C     0.10694   0.11334   0.47402   0.00000  Uiso   1.00
C23    C     0.14068   0.09924   0.03437   0.00000  Uiso   1.00
C24    C     0.25442   0.16254   0.00829   0.00000  Uiso   1.00
C25    C     0.18659   0.14189   0.46676   0.00000  Uiso   1.00
C26    C     0.17804   0.12923   0.01288   0.00000  Uiso   1.00
C27    C     0.29827   0.19399   0.10510   0.00000  Uiso   1.00
C28    C     0.05130   0.10895   0.38227   0.00000  Uiso   1.00
C29    C     0.17845   0.04468   0.32690   0.00000  Uiso   1.00
C30    C     0.15610   0.28848   0.17265   0.00000  Uiso   1.00
C31    C     0.23483   0.15434   0.43755   0.00000  Uiso   1.00
C32    C     0.10550   0.09080   0.01438   0.00000  Uiso   1.00
C33    C     0.26866   0.16504   0.45847   0.00000  Uiso   1.00
C34    C     0.17324   0.31128   0.28748   0.00000  Uiso   1.00
C35    C     0.15995   0.02200   0.21265   0.00000  Uiso   1.00
C36    C     0.17322   0.02154   0.28792   0.00000  Uiso   1.00
H37    H     0.07256   0.04807   0.06174   0.00000  Uiso   1.00
H38    H     0.14739   0.02785   0.15395   0.00000  Uiso   1.00
H39    H     0.00341   0.10890   0.16208   0.00000  Uiso   1.00
H40    H     0.33080   0.22945   0.33447   0.00000  Uiso   1.00
H41    H     0.05323   0.08467   0.19133   0.00000  Uiso   1.00
H42    H     0.27978   0.24966   0.30550   0.00000  Uiso   1.00
H43    H     0.31885   0.18161   0.39766   0.00000  Uiso   1.00
H44    H     0.12666   0.18085   0.11799   0.00000  Uiso   1.00
H45    H     0.17815   0.21389   0.42919   0.00000  Uiso   1.00
H46    H     0.01450   0.09473   0.00801   0.00000  Uiso   1.00
H47    H     0.02034   0.18767   0.02327   0.00000  Uiso   1.00
H48    H     0.17368   0.07435   0.07237   0.00000  Uiso   1.00
H49    H     0.23182   0.13242   0.37918   0.00000  Uiso   1.00
H50    H     0.18461   0.30535   0.34685   0.00000  Uiso   1.00
N51    N     0.04759   0.16668   0.25001   0.00000  Uiso   1.00
N52    N     0.28574   0.16666   0.24999   0.00000  Uiso   1.00
N53    N     0.32303   0.20710   0.12365   0.00000  Uiso   1.00
N54    N     0.02816   0.09684   0.36154   0.00000  Uiso   1.00
N55    N     0.18270   0.06301   0.35798   0.00000  Uiso   1.00
N56    N     0.15280   0.26990   0.14127   0.00000  Uiso   1.00
O57    O     0.12846   0.22775   0.25001   0.00000  Uiso   1.00
O58    O     0.31468   0.17985   0.43130   0.00000  Uiso   1.00
O59    O     0.13789   0.15179   0.10793   0.00000  Uiso   1.00
O60    O     0.17274   0.20256   0.40122   0.00000  Uiso   1.00
O61    O     0.02940   0.08473   0.47475   0.00000  Uiso   1.00
O62    O     0.33298   0.18774   0.00427   0.00000  Uiso   1.00
O63    O     0.14030   0.07509   0.07200   0.00000  Uiso   1.00
O64    O     0.25096   0.15355   0.38869   0.00000  Uiso   1.00
O65    O     0.17825   0.28742   0.32328   0.00000  Uiso   1.00
O66    O     0.15476   0.04581   0.17691   0.00000  Uiso   1.00
O67    O     0.30722   0.11478   0.19070   0.00000  Uiso   1.00
O68    O     0.20488   0.10558   0.25000   0.00000  Uiso   1.00
O69    O     0.02695   0.21986   0.30774   0.00000  Uiso   1.00
O70    O     0.06989   0.11008   0.19633   0.00000  Uiso   1.00
O71    O     0.26329   0.22308   0.30381   0.00000  Uiso   1.00
O72    O     0.20490   0.22774   0.25000   0.00000  Uiso   1.00
O73    O     0.12843   0.10559   0.25000   0.00000  Uiso   1.00
O74    O     0.10661   0.16667   0.31613   0.00000  Uiso   1.00
O75    O     0.22672   0.16666   0.18388   0.00000  Uiso   1.00
O76    O     0.18305   0.16666   0.31612   0.00000  Uiso   1.00
O77    O     0.15028   0.16667   0.18388   0.00000  Uiso   1.00
O78    O     0.07111   0.05953   0.03224   0.00000  Uiso   1.00
Zn79   Zn    0.11562   0.16667   0.25000   0.00000  Uiso   1.00
Zn80   Zn    0.21771   0.16666   0.25000   0.00000  Uiso   1.00
C81    C     0.50008   0.24652   0.24979   0.00000  Uiso   1.00
C82    C     0.49362   0.31173   0.21206   0.00000  Uiso   1.00
C83    C     0.49988   0.04260   0.25049   0.00000  Uiso   1.00
C84    C     0.50009   0.29070   0.24960   0.00000  Uiso   1.00
C85    C     0.65354   0.13973   0.22109   0.00000  Uiso   1.00
C86    C     0.34667   0.19404   0.27843   0.00000  Uiso   1.00
C87    C     0.36848   0.13889   0.22212   0.00000  Uiso   1.00
C88    C     0.63154   0.19454   0.27776   0.00000  Uiso   1.00
C89    C     0.46944   0.16506   0.33840   0.00000  Uiso   1.00
C90    C     0.53073   0.16747   0.16117   0.00000  Uiso   1.00
C91    C     0.45114   0.15369   0.38869   0.00000  Uiso   1.00
C92    C     0.49989   0.08680   0.25028   0.00000  Uiso   1.00
C93    C     0.55132   0.16690   0.10850   0.00000  Uiso   1.00
C94    C     0.40480   0.10760   0.45327   0.00000  Uiso   1.00
C95    C     0.61887   0.17594   0.03148   0.00000  Uiso   1.00
C96    C     0.41361   0.12401   0.40821   0.00000  Uiso   1.00
C97    C     0.60068   0.17759   0.08172   0.00000  Uiso   1.00
C98    C     0.47914   0.16615   0.41436   0.00000  Uiso   1.00
C99    C     0.52118   0.15396   0.08460   0.00000  Uiso   1.00
C100   C     0.48028   0.14056   0.45144   0.00000  Uiso   1.00
C101   C     0.54082   0.14672   0.03559   0.00000  Uiso   1.00
C102   C     0.44028   0.11334   0.47402   0.00000  Uiso   1.00
C103   C     0.47401   0.09924   0.03437   0.00000  Uiso   1.00
C104   C     0.58776   0.16254   0.00829   0.00000  Uiso   1.00
C105   C     0.51993   0.14189   0.46676   0.00000  Uiso   1.00
C106   C     0.51137   0.12923   0.01288   0.00000  Uiso   1.00
C107   C     0.63160   0.19399   0.10510   0.00000  Uiso   1.00
C108   C     0.38463   0.10895   0.38227   0.00000  Uiso   1.00
C109   C     0.51178   0.04468   0.32690   0.00000  Uiso   1.00
C110   C     0.48943   0.28848   0.17265   0.00000  Uiso   1.00
C111   C     0.56816   0.15434   0.43755   0.00000  Uiso   1.00
C112   C     0.43883   0.09080   0.01438   0.00000  Uiso   1.00
C113   C     0.60199   0.16504   0.45847   0.00000  Uiso   1.00
C114   C     0.50657   0.31128   0.28748   0.00000  Uiso   1.00
C115   C     0.49328   0.02200   0.21265   0.00000  Uiso   1.00
C116   C     0.50655   0.02154   0.28792   0.00000  Uiso   1.00
H117   H     0.40589   0.04807   0.06174   0.00000  Uiso   1.00
H118   H     0.48073   0.02785   0.15395   0.00000  Uiso   1.00
H119   H     0.33674   0.10890   0.16208   0.00000  Uiso   1.00
H120   H     0.66413   0.22945   0.33447   0.00000  Uiso   1.00
H121   H     0.38657   0.08467   0.19133   0.00000  Uiso   1.00
H122   H     0.61311   0.24966   0.30550   0.00000  Uiso   1.00
H123   H     0.65218   0.18161   0.39766   0.00000  Uiso   1.00
H124   H     0.46000   0.18085   0.11799   0.00000  Uiso   1.00
H125   H     0.51149   0.21389   0.42919   0.00000  Uiso   1.00
H126   H     0.34783   0.09473   0.00801   0.00000  Uiso   1.00
H127   H     0.35368   0.18767   0.02327   0.00000  Uiso   1.00
H128   H     0.50702   0.07435   0.07237   0.00000  Uiso   1.00
H129   H     0.56515   0.13242   0.37918   0.00000  Uiso   1.00
H130   H     0.51794   0.30535   0.34685   0.00000  Uiso   1.00
N131   N     0.38093   0.16668   0.25001   0.00000  Uiso   1.00
N132   N     0.61907   0.16666   0.24999   0.00000  Uiso   1.00
N133   N     0.65637   0.20710   0.12365   0.00000  Uiso   1.00
N134   N     0.36149   0.09684   0.36154   0.00000  Uiso   1.00
N135   N     0.51603   0.06301   0.35798   0.00000  Uiso   1.00
N136   N     0.48613   0.26990   0.14127   0.00000  Uiso   1.00
O137   O     0.46179   0.22775   0.25001   0.00000  Uiso   1.00
O138   O     0.64801   0.17985   0.43130   0.00000  Uiso   1.00
O139   O     0.47122   0.15179   0.10793   0.00000  Uiso   1.00
O140   O     0.50608   0.20256   0.40122   0.00000  Uiso   1.00
O141   O     0.36274   0.08473   0.47475   0.00000  Uiso   1.00
O142   O     0.66631   0.18774   0.00427   0.00000  Uiso   1.00
O143   O     0.47364   0.07509   0.07200   0.00000  Uiso   1.00
O144   O     0.58429   0.15355   0.38869   0.00000  Uiso   1.00
O145   O     0.51158   0.28742   0.32328   0.00000  Uiso   1.00
O146   O     0.48809   0.04581   0.17691   0.00000  Uiso   1.00
O147   O     0.64056   0.11478   0.19070   0.00000  Uiso   1.00
O148   O     0.53821   0.10558   0.25000   0.00000  Uiso   1.00
O149   O     0.36028   0.21986   0.30774   0.00000  Uiso   1.00
O150   O     0.40323   0.11008   0.19633   0.00000  Uiso   1.00
O151   O     0.59663   0.22308   0.30381   0.00000  Uiso   1.00
O152   O     0.53823   0.22774   0.25000   0.00000  Uiso   1.00
O153   O     0.46177   0.10559   0.25000   0.00000  Uiso   1.00
O154   O     0.43994   0.16667   0.31613   0.00000  Uiso   1.00
O155   O     0.56006   0.16666   0.18388   0.00000  Uiso   1.00
O156   O     0.51639   0.16666   0.31612   0.00000  Uiso   1.00
O157   O     0.48361   0.16667   0.18388   0.00000  Uiso   1.00
O158   O     0.40445   0.05953   0.03224   0.00000  Uiso   1.00
Zn159  Zn    0.44896   0.16667   0.25000   0.00000  Uiso   1.00
Zn160  Zn    0.55104   0.16666   0.25000   0.00000  Uiso   1.00
C161   C     0.83341   0.24652   0.24979   0.00000  Uiso   1.00
C162   C     0.82696   0.31173   0.21206   0.00000  Uiso   1.00
C163   C     0.83321   0.04260   0.25049   0.00000  Uiso   1.00
C164   C     0.83342   0.29070   0.24960   0.00000  Uiso   1.00
C165   C     0.98687   0.13973   0.22109   0.00000  Uiso   1.00
C166   C     0.68001   0.19404   0.27843   0.00000  Uiso   1.00
C167   C     0.70182   0.13889   0.22212   0.00000  Uiso   1.00
C168   C     0.96487   0.19454   0.27776   0.00000  Uiso   1.00
C169   C     0.80278   0.16506   0.33840   0.00000  Uiso   1.00
C170   C     0.86406   0.16747   0.16117   0.00000  Uiso   1.00
C171   C     0.78447   0.15369   0.38869   0.00000  Uiso   1.00
C172   C     0.83323   0.08680   0.25028   0.00000  Uiso   1.00
C173   C     0.88465   0.16690   0.10850   0.00000  Uiso   1.00
C174   C     0.73814   0.10760   0.45327   0.00000  Uiso   1.00
C175   C     0.95220   0.17594   0.03148   0.00000  Uiso   1.00
C176   C     0.74694   0.12401   0.40821   0.00000  Uiso   1.00
C177   C     0.93402   0.17759   0.08172   0.00000  Uiso   1.00
C178   C     0.81247   0.16615   0.41436   0.00000  Uiso   1.00
C179   C     0.85451   0.15396   0.08460   0.00000  Uiso   1.00
C180   C     0.81362   0.14056   0.45144   0.00000  Uiso   1.00
C181   C     0.87415   0.14672   0.03559   0.00000  Uiso   1.00
C182   C     0.77361   0.11334   0.47402   0.00000  Uiso   1.00
C183   C     0.80734   0.09924   0.03437   0.00000  Uiso   1.00
C184   C     0.92109   0.16254   0.00829   0.00000  Uiso   1.00
C185   C     0.85326   0.14189   0.46676   0.00000  Uiso   1.00
C186   C     0.84470   0.12923   0.01288   0.00000  Uiso   1.00
C187   C     0.96493   0.19399   0.10510   0.00000  Uiso   1.00
C188   C     0.71796   0.10895   0.38227   0.00000  Uiso   1.00
C189   C     0.84511   0.04468   0.32690   0.00000  Uiso   1.00
C190   C     0.82277   0.28848   0.17265   0.00000  Uiso   1.00
C191   C     0.90149   0.15434   0.43755   0.00000  Uiso   1.00
C192   C     0.77217   0.09080   0.01438   0.00000  Uiso   1.00
C193   C     0.93532   0.16504   0.45847   0.00000  Uiso   1.00
C194   C     0.83991   0.31128   0.28748   0.00000  Uiso   1.00
C195   C     0.82661   0.02200   0.21265   0.00000  Uiso   1.00
C196   C     0.83988   0.02154   0.28792   0.00000  Uiso   1.00
H197   H     0.73923   0.04807   0.06174   0.00000  Uiso   1.00
H198   H     0.81406   0.02785   0.15395   0.00000  Uiso   1.00
H199   H     0.67007   0.10890   0.16208   0.00000  Uiso   1.00
H200   H     0.99746   0.22945   0.33447   0.00000  Uiso   1.00
H201   H     0.71990   0.08467   0.19133   0.00000  Uiso   1.00
H202   H     0.94645   0.24966   0.30550   0.00000  Uiso   1.00
H203   H     0.98552   0.18161   0.39766   0.00000  Uiso   1.00
H204   H     0.79333   0.18085   0.11799   0.00000  Uiso   1.00
H205   H     0.84482   0.21389   0.42919   0.00000  Uiso   1.00
H206   H     0.68116   0.09473   0.00801   0.00000  Uiso   1.00
H207   H     0.68701   0.18767   0.02327   0.00000  Uiso   1.00
H208   H     0.84035   0.07435   0.07237   0.00000  Uiso   1.00
H209   H     0.89848   0.13242   0.37918   0.00000  Uiso   1.00
H210   H     0.85127   0.30535   0.34685   0.00000  Uiso   1.00
N211   N     0.71426   0.16668   0.25001   0.00000  Uiso   1.00
N212   N     0.95241   0.16666   0.24999   0.00000  Uiso   1.00
N213   N     0.98970   0.20710   0.12365   0.00000  Uiso   1.00
N214   N     0.69482   0.09684   0.36154   0.00000  Uiso   1.00
N215   N     0.84936   0.06301   0.35798   0.00000  Uiso   1.00
N216   N     0.81947   0.26990   0.14127   0.00000  Uiso   1.00
O217   O     0.79512   0.22775   0.25001   0.00000  Uiso   1.00
O218   O     0.98135   0.17985   0.43130   0.00000  Uiso   1.00
O219   O     0.80455   0.15179   0.10793   0.00000  Uiso   1.00
O220   O     0.83941   0.20256   0.40122   0.00000  Uiso   1.00
O221   O     0.69607   0.08473   0.47475   0.00000  Uiso   1.00
O222   O     0.99964   0.18774   0.00427   0.00000  Uiso   1.00
O223   O     0.80697   0.07509   0.07200   0.00000  Uiso   1.00
O224   O     0.91762   0.15355   0.38869   0.00000  Uiso   1.00
O225   O     0.84492   0.28742   0.32328   0.00000  Uiso   1.00
O226   O     0.82142   0.04581   0.17691   0.00000  Uiso   1.00
O227   O     0.97389   0.11478   0.19070   0.00000  Uiso   1.00
O228   O     0.87154   0.10558   0.25000   0.00000  Uiso   1.00
O229   O     0.69361   0.21986   0.30774   0.00000  Uiso   1.00
O230   O     0.73656   0.11008   0.19633   0.00000  Uiso   1.00
O231   O     0.92996   0.22308   0.30381   0.00000  Uiso   1.00
O232   O     0.87157   0.22774   0.25000   0.00000  Uiso   1.00
O233   O     0.79510   0.10559   0.25000   0.00000  Uiso   1.00
O234   O     0.77328   0.16667   0.31613   0.00000  Uiso   1.00
O235   O     0.89339   0.16666   0.18388   0.00000  Uiso   1.00
O236   O     0.84972   0.16666   0.31612   0.00000  Uiso   1.00
O237   O     0.81695   0.16667   0.18388   0.00000  Uiso   1.00
O238   O     0.73778   0.05953   0.03224   0.00000  Uiso   1.00
Zn239  Zn    0.78229   0.16667   0.25000   0.00000  Uiso   1.00
Zn240  Zn    0.88438   0.16666   0.25000   0.00000  Uiso   1.00
C241   C     0.16674   0.57985   0.24979   0.00000  Uiso   1.00
C242   C     0.16029   0.64506   0.21206   0.00000  Uiso   1.00
C243   C     0.16654   0.37593   0.25049   0.00000  Uiso   1.00
C244   C     0.16675   0.62404   0.24960   0.00000  Uiso   1.00
C245   C     0.32021   0.47306   0.22109   0.00000  Uiso   1.00
C246   C     0.01334   0.52737   0.27843   0.00000  Uiso   1.00
C247   C     0.03515   0.47222   0.22212   0.00000  Uiso   1.00
C248   C     0.29821   0.52787   0.27776   0.00000  Uiso   1.00
C249   C     0.13611   0.49839   0.33840   0.00000  Uiso   1.00
C250   C     0.19739   0.50081   0.16117   0.00000  Uiso   1.00
C251   C     0.11781   0.48702   0.38869   0.00000  Uiso   1.00
C252   C     0.16656   0.42013   0.25028   0.00000  Uiso   1.00
C253   C     0.21799   0.50023   0.10850   0.00000  Uiso   1.00
C254   C     0.07147   0.44093   0.45327   0.00000  Uiso   1.00
C255   C     0.28554   0.50927   0.03148   0.00000  Uiso   1.00
C256   C     0.08028   0.45734   0.40821   0.00000  Uiso   1.00
C257   C     0.26735   0.51092   0.08172   0.00000  Uiso   1.00
C258   C     0.14581   0.49948   0.41436   0.00000  Uiso   1.00
C259   C     0.18785   0.48730   0.08460   0.00000  Uiso   1.00
C260   C     0.14695   0.47389   0.45144   0.00000  Uiso   1.00
C261   C     0.20749   0.48005   0.03559   0.00000  Uiso   1.00
C262   C     0.10694   0.44667   0.47402   0.00000  Uiso   1.00
C263   C     0.14068   0.43257   0.03437   0.00000  Uiso   1.00
C264   C     0.25442   0.49587   0.00829   0.00000  Uiso   1.00
C265   C     0.18659   0.47522   0.46676   0.00000  Uiso   1.00
C266   C     0.17804   0.46256   0.01288   0.00000  Uiso   1.00
C267   C     0.29827   0.52732   0.10510   0.00000  Uiso   1.00
C268   C     0.05130   0.44229   0.38227   0.00000  Uiso   1.00
C269   C     0.17845   0.37801   0.32690   0.00000  Uiso   1.00
C270   C     0.15610   0.62181   0.17265   0.00000  Uiso   1.00
C271   C     0.23483   0.48768   0.43755   0.00000  Uiso   1.00
C272   C     0.10550   0.42413   0.01438   0.00000  Uiso   1.00
C273   C     0.26866   0.49837   0.45847   0.00000  Uiso   1.00
C274   C     0.17324   0.64461   0.28748   0.00000  Uiso   1.00
C275   C     0.15995   0.35533   0.21265   0.00000  Uiso   1.00
C276   C     0.17322   0.35488   0.28792   0.00000  Uiso   1.00
H277   H     0.07256   0.38140   0.06174   0.00000  Uiso   1.00
H278   H     0.14739   0.36118   0.15395   0.00000  Uiso   1.00
H279   H     0.00341   0.44223   0.16208   0.00000  Uiso   1.00
H280   H     0.33080   0.56279   0.33447   0.00000  Uiso   1.00
H281   H     0.05323   0.41801   0.19133   0.00000  Uiso   1.00
H282   H     0.27978   0.58299   0.30550   0.00000  Uiso   1.00
H283   H     0.31885   0.51494   0.39766   0.00000  Uiso   1.00
H284   H     0.12666   0.51419   0.11799   0.00000  Uiso   1.00
H285   H     0.17815   0.54722   0.42919   0.00000  Uiso   1.00
H286   H     0.01450   0.42806   0.00801   0.00000  Uiso   1.00
H287   H     0.02034   0.52100   0.02327   0.00000  Uiso   1.00
H288   H     0.17368   0.40768   0.07237   0.00000  Uiso   1.00
H289   H     0.23182   0.46576   0.37918   0.00000  Uiso   1.00
H290   H     0.18461   0.63868   0.34685   0.00000  Uiso   1.00
N291   N     0.04759   0.50001   0.25001   0.00000  Uiso   1.00
N292   N     0.28574   0.49999   0.24999   0.00000  Uiso   1.00
N293   N     0.32303   0.54043   0.12365   0.00000  Uiso   1.00
N294   N     0.02816   0.43017   0.36154   0.00000  Uiso   1.00
N295   N     0.18270   0.39635   0.35798   0.00000  Uiso   1.00
N296   N     0.15280   0.60324   0.14127   0.00000  Uiso   1.00
O297   O     0.12846   0.56108   0.25001   0.00000  Uiso   1.00
O298   O     0.31468   0.51319   0.43130   0.00000  Uiso   1.00
O299   O     0.13789   0.48513   0.10793   0.00000  Uiso   1.00
O300   O     0.17274   0.53589   0.40122   0.00000  Uiso   1.00
O301   O     0.02940   0.41807   0.47475   0.00000  Uiso   1.00
O302   O     0.33298   0.52108   0.00427   0.00000  Uiso   1.00
O303   O     0.14030   0.40843   0.07200   0.00000  Uiso   1.00
O304   O     0.25096   0.48689   0.38869   0.00000  Uiso   1.00
O305   O     0.17825   0.62075   0.32328   0.00000  Uiso   1.00
O306   O     0.15476   0.37914   0.17691   0.00000  Uiso   1.00
O307   O     0.30722   0.44811   0.19070   0.00000  Uiso   1.00
O308   O     0.20488   0.43892   0.25000   0.00000  Uiso   1.00
O309   O     0.02695   0.55319   0.30774   0.00000  Uiso   1.00
O310   O     0.06989   0.44341   0.19633   0.00000  Uiso   1.00
O311   O     0.26329   0.55641   0.30381   0.00000  Uiso   1.00
O312   O     0.20490   0.56107   0.25000   0.00000  Uiso   1.00
O313   O     0.12843   0.43893   0.25000   0.00000  Uiso   1.00
O314   O     0.10661   0.50001   0.31613   0.00000  Uiso   1.00
O315   O     0.22672   0.49999   0.18388   0.00000  Uiso   1.00
O316   O     0.18305   0.50000   0.31612   0.00000  Uiso   1.00
O317   O     0.15028   0.50000   0.18388   0.00000  Uiso   1.00
O318   O     0.07111   0.39286   0.03224   0.00000  Uiso   1.00
Zn319  Zn    0.11562   0.50001   0.25000   0.00000  Uiso   1.00
Zn320  Zn    0.21771   0.49999   0.25000   0.00000  Uiso   1.00
C321   C     0.50008   0.57985   0.24979   0.00000  Uiso   1.00
C322   C     0.49362   0.64506   0.21206   0.00000  Uiso   1.00
C323   C     0.49988   0.37593   0.25049   0.00000  Uiso   1.00
C324   C     0.50009   0.62404   0.24960   0.00000  Uiso   1.00
C325   C     0.65354   0.47306   0.22109   0.00000  Uiso   1.00
C326   C     0.34667   0.52737   0.27843   0.00000  Uiso   1.00
C327   C     0.36848   0.47222   0.22212   0.00000  Uiso   1.00
C328   C     0.63154   0.52787   0.27776   0.00000  Uiso   1.00
C329   C     0.46944   0.49839   0.33840   0.00000  Uiso   1.00
C330   C     0.53073   0.50081   0.16117   0.00000  Uiso   1.00
C331   C     0.45114   0.48702   0.38869   0.00000  Uiso   1.00
C332   C     0.49989   0.42013   0.25028   0.00000  Uiso   1.00
C333   C     0.55132   0.50023   0.10850   0.00000  Uiso   1.00
C334   C     0.40480   0.44093   0.45327   0.00000  Uiso   1.00
C335   C     0.61887   0.50927   0.03148   0.00000  Uiso   1.00
C336   C     0.41361   0.45734   0.40821   0.00000  Uiso   1.00
C337   C     0.60068   0.51092   0.08172   0.00000  Uiso   1.00
C338   C     0.47914   0.49948   0.41436   0.00000  Uiso   1.00
C339   C     0.52118   0.48730   0.08460   0.00000  Uiso   1.00
C340   C     0.48028   0.47389   0.45144   0.00000  Uiso   1.00
C341   C     0.54082   0.48005   0.03559   0.00000  Uiso   1.00
C342   C     0.44028   0.44667   0.47402   0.00000  Uiso   1.00
C343   C     0.47401   0.43257   0.03437   0.00000  Uiso   1.00
C344   C     0.58776   0.49587   0.00829   0.00000  Uiso   1.00
C345   C     0.51993   0.47522   0.46676   0.00000  Uiso   1.00
C346   C     0.51137   0.46256   0.01288   0.00000  Uiso   1.00
C347   C     0.63160   0.52732   0.10510   0.00000  Uiso   1.00
C348   C     0.38463   0.44229   0.38227   0.00000  Uiso   1.00
C349   C     0.51178   0.37801   0.32690   0.00000  Uiso   1.00
C350   C     0.48943   0.62181   0.17265   0.00000  Uiso   1.00
C351   C     0.56816   0.48768   0.43755   0.00000  Uiso   1.00
C352   C     0.43883   0.42413   0.01438   0.00000  Uiso   1.00
C353   C     0.60199   0.49837   0.45847   0.00000  Uiso   1.00
C354   C     0.50657   0.64461   0.28748   0.00000  Uiso   1.00
C355   C     0.49328   0.35533   0.21265   0.00000  Uiso   1.00
C356   C     0.50655   0.35488   0.28792   0.00000  Uiso   1.00
H357   H     0.40589   0.38140   0.06174   0.00000  Uiso   1.00
H358   H     0.48073   0.36118   0.15395   0.00000  Uiso   1.00
H359   H     0.33674   0.44223   0.16208   0.00000  Uiso   1.00
H360   H     0.66413   0.56279   0.33447   0.00000  Uiso   1.00
H361   H     0.38657   0.41801   0.19133   0.00000  Uiso   1.00
H362   H     0.61311   0.58299   0.30550   0.00000  Uiso   1.00
H363   H     0.65218   0.51494   0.39766   0.00000  Uiso   1.00
H364   H     0.46000   0.51419   0.11799   0.00000  Uiso   1.00
H365   H     0.51149   0.54722   0.42919   0.00000  Uiso   1.00
H366   H     0.34783   0.42806   0.00801   0.00000  Uiso   1.00
H367   H     0.35368   0.52100   0.02327   0.00000  Uiso   1.00
H368   H     0.50702   0.40768   0.07237   0.00000  Uiso   1.00
H369   H     0.56515   0.46576   0.37918   0.00000  Uiso   1.00
H370   H     0.51794   0.63868   0.34685   0.00000  Uiso   1.00
N371   N     0.38093   0.50001   0.25001   0.00000  Uiso   1.00
N372   N     0.61907   0.49999   0.24999   0.00000  Uiso   1.00
N373   N     0.65637   0.54043   0.12365   0.00000  Uiso   1.00
N374   N     0.36149   0.43017   0.36154   0.00000  Uiso   1.00
N375   N     0.51603   0.39635   0.35798   0.00000  Uiso   1.00
N376   N     0.48613   0.60324   0.14127   0.00000  Uiso   1.00
O377   O     0.46179   0.56108   0.25001   0.00000  Uiso   1.00
O378   O     0.64801   0.51319   0.43130   0.00000  Uiso   1.00
O379   O     0.47122   0.48513   0.10793   0.00000  Uiso   1.00
O380   O     0.50608   0.53589   0.40122   0.00000  Uiso   1.00
O381   O     0.36274   0.41807   0.47475   0.00000  Uiso   1.00
O382   O     0.66631   0.52108   0.00427   0.00000  Uiso   1.00
O383   O     0.47364   0.40843   0.07200   0.00000  Uiso   1.00
O384   O     0.58429   0.48689   0.38869   0.00000  Uiso   1.00
O385   O     0.51158   0.62075   0.32328   0.00000  Uiso   1.00
O386   O     0.48809   0.37914   0.17691   0.00000  Uiso   1.00
O387   O     0.64056   0.44811   0.19070   0.00000  Uiso   1.00
O388   O     0.53821   0.43892   0.25000   0.00000  Uiso   1.00
O389   O     0.36028   0.55319   0.30774   0.00000  Uiso   1.00
O390   O     0.40323   0.44341   0.19633   0.00000  Uiso   1.00
O391   O     0.59663   0.55641   0.30381   0.00000  Uiso   1.00
O392   O     0.53823   0.56107   0.25000   0.00000  Uiso   1.00
O393   O     0.46177   0.43893   0.25000   0.00000  Uiso   1.00
O394   O     0.43994   0.50001   0.31613   0.00000  Uiso   1.00
O395   O     0.56006   0.49999   0.18388   0.00000  Uiso   1.00
O396   O     0.51639   0.50000   0.31612   0.00000  Uiso   1.00
O397   O     0.48361   0.50000   0.18388   0.00000  Uiso   1.00
O398   O     0.40445   0.39286   0.03224   0.00000  Uiso   1.00
Zn399  Zn    0.44896   0.50001   0.25000   0.00000  Uiso   1.00
Zn400  Zn    0.55104   0.49999   0.25000   0.00000  Uiso   1.00
C401   C     0.83341   0.57985   0.24979   0.00000  Uiso   1.00
C402   C     0.82696   0.64506   0.21206   0.00000  Uiso   1.00
C403   C     0.83321   0.37593   0.25049   0.00000  Uiso   1.00
C404   C     0.83342   0.62404   0.24960   0.00000  Uiso   1.00
C405   C     0.98687   0.47306   0.22109   0.00000  Uiso   1.00
C406   C     0.68001   0.52737   0.27843   0.00000  Uiso   1.00
C407   C     0.70182   0.47222   0.22212   0.00000  Uiso   1.00
C408   C     0.96487   0.52787   0.27776   0.00000  Uiso   1.00
C409   C     0.80278   0.49839   0.33840   0.00000  Uiso   1.00
C410   C     0.86406   0.50081   0.16117   0.00000  Uiso   1.00
C411   C     0.78447   0.48702   0.38869   0.00000  Uiso   1.00
C412   C     0.83323   0.42013   0.25028   0.00000  Uiso   1.00
C413   C     0.88465   0.50023   0.10850   0.00000  Uiso   1.00
C414   C     0.73814   0.44093   0.45327   0.00000  Uiso   1.00
C415   C     0.95220   0.50927   0.03148   0.00000  Uiso   1.00
C416   C     0.74694   0.45734   0.40821   0.00000  Uiso   1.00
C417   C     0.93402   0.51092   0.08172   0.00000  Uiso   1.00
C418   C     0.81247   0.49948   0.41436   0.00000  Uiso   1.00
C419   C     0.85451   0.48730   0.08460   0.00000  Uiso   1.00
C420   C     0.81362   0.47389   0.45144   0.00000  Uiso   1.00
C421   C     0.87415   0.48005   0.03559   0.00000  Uiso   1.00
C422   C     0.77361   0.44667   0.47402   0.00000  Uiso   1.00
C423   C     0.80734   0.43257   0.03437   0.00000  Uiso   1.00
C424   C     0.92109   0.49587   0.00829   0.00000  Uiso   1.00
C425   C     0.85326   0.47522   0.46676   0.00000  Uiso   1.00
C426   C     0.84470   0.46256   0.01288   0.00000  Uiso   1.00
C427   C     0.96493   0.52732   0.10510   0.00000  Uiso   1.00
C428   C     0.71796   0.44229   0.38227   0.00000  Uiso   1.00
C429   C     0.84511   0.37801   0.32690   0.00000  Uiso   1.00
C430   C     0.82277   0.62181   0.17265   0.00000  Uiso   1.00
C431   C     0.90149   0.48768   0.43755   0.00000  Uiso   1.00
C432   C     0.77217   0.42413   0.01438   0.00000  Uiso   1.00
C433   C     0.93532   0.49837   0.45847   0.00000  Uiso   1.00
C434   C     0.83991   0.64461   0.28748   0.00000  Uiso   1.00
C435   C     0.82661   0.35533   0.21265   0.00000  Uiso   1.00
C436   C     0.83988   0.35488   0.28792   0.00000  Uiso   1.00
H437   H     0.73923   0.38140   0.06174   0.00000  Uiso   1.00
H438   H     0.81406   0.36118   0.15395   0.00000  Uiso   1.00
H439   H     0.67007   0.44223   0.16208   0.00000  Uiso   1.00
H440   H     0.99746   0.56279   0.33447   0.00000  Uiso   1.00
H441   H     0.71990   0.41801   0.19133   0.00000  Uiso   1.00
H442   H     0.94645   0.58299   0.30550   0.00000  Uiso   1.00
H443   H     0.98552   0.51494   0.39766   0.00000  Uiso   1.00
H444   H     0.79333   0.51419   0.11799   0.00000  Uiso   1.00
H445   H     0.84482   0.54722   0.42919   0.00000  Uiso   1.00
H446   H     0.68116   0.42806   0.00801   0.00000  Uiso   1.00
H447   H     0.68701   0.52100   0.02327   0.00000  Uiso   1.00
H448   H     0.84035   0.40768   0.07237   0.00000  Uiso   1.00
H449   H     0.89848   0.46576   0.37918   0.00000  Uiso   1.00
H450   H     0.85127   0.63868   0.34685   0.00000  Uiso   1.00
N451   N     0.71426   0.50001   0.25001   0.00000  Uiso   1.00
N452   N     0.95241   0.49999   0.24999   0.00000  Uiso   1.00
N453   N     0.98970   0.54043   0.12365   0.00000  Uiso   1.00
N454   N     0.69482   0.43017   0.36154   0.00000  Uiso   1.00
N455   N     0.84936   0.39635   0.35798   0.00000  Uiso   1.00
N456   N     0.81947   0.60324   0.14127   0.00000  Uiso   1.00
O457   O     0.79512   0.56108   0.25001   0.00000  Uiso   1.00
O458   O     0.98135   0.51319   0.43130   0.00000  Uiso   1.00
O459   O     0.80455   0.48513   0.10793   0.00000  Uiso   1.00
O460   O     0.83941   0.53589   0.40122   0.00000  Uiso   1.00
O461   O     0.69607   0.41807   0.47475   0.00000  Uiso   1.00
O462   O     0.99964   0.52108   0.00427   0.00000  Uiso   1.00
O463   O     0.80697   0.40843   0.07200   0.00000  Uiso   1.00
O464   O     0.91762   0.48689   0.38869   0.00000  Uiso   1.00
O465   O     0.84492   0.62075   0.32328   0.00000  Uiso   1.00
O466   O     0.82142   0.37914   0.17691   0.00000  Uiso   1.00
O467   O     0.97389   0.44811   0.19070   0.00000  Uiso   1.00
O468   O     0.87154   0.43892   0.25000   0.00000  Uiso   1.00
O469   O     0.69361   0.55319   0.30774   0.00000  Uiso   1.00
O470   O     0.73656   0.44341   0.19633   0.00000  Uiso   1.00
O471   O     0.92996   0.55641   0.30381   0.00000  Uiso   1.00
O472   O     0.87157   0.56107   0.25000   0.00000  Uiso   1.00
O473   O     0.79510   0.43893   0.25000   0.00000  Uiso   1.00
O474   O     0.77328   0.50001   0.31613   0.00000  Uiso   1.00
O475   O     0.89339   0.49999   0.18388   0.00000  Uiso   1.00
O476   O     0.84972   0.50000   0.31612   0.00000  Uiso   1.00
O477   O     0.81695   0.50000   0.18388   0.00000  Uiso   1.00
O478   O     0.73778   0.39286   0.03224   0.00000  Uiso   1.00
Zn479  Zn    0.78229   0.50001   0.25000   0.00000  Uiso   1.00
Zn480  Zn    0.88438   0.49999   0.25000   0.00000  Uiso   1.00
C481   C     0.16674   0.91319   0.24979   0.00000  Uiso   1.00
C482   C     0.16029   0.97840   0.21206   0.00000  Uiso   1.00
C483   C     0.16654   0.70927   0.25049   0.00000  Uiso   1.00
C484   C     0.16675   0.95737   0.24960   0.00000  Uiso   1.00
C485   C     0.32021   0.80640   0.22109   0.00000  Uiso   1.00
C486   C     0.01334   0.86070   0.27843   0.00000  Uiso   1.00
C487   C     0.03515   0.80555   0.22212   0.00000  Uiso   1.00
C488   C     0.29821   0.86121   0.27776   0.00000  Uiso   1.00
C489   C     0.13611   0.83173   0.33840   0.00000  Uiso   1.00
C490   C     0.19739   0.83414   0.16117   0.00000  Uiso   1.00
C491   C     0.11781   0.82035   0.38869   0.00000  Uiso   1.00
C492   C     0.16656   0.75347   0.25028   0.00000  Uiso   1.00
C493   C     0.21799   0.83356   0.10850   0.00000  Uiso   1.00
C494   C     0.07147   0.77427   0.45327   0.00000  Uiso   1.00
C495   C     0.28554   0.84260   0.03148   0.00000  Uiso   1.00
C496   C     0.08028   0.79068   0.40821   0.00000  Uiso   1.00
C497   C     0.26735   0.84425   0.08172   0.00000  Uiso   1.00
C498   C     0.14581   0.83281   0.41436   0.00000  Uiso   1.00
C499   C     0.18785   0.82063   0.08460   0.00000  Uiso   1.00
C500   C     0.14695   0.80722   0.45144   0.00000  Uiso   1.00
C501   C     0.20749   0.81339   0.03559   0.00000  Uiso   1.00
C502   C     0.10694   0.78001   0.47402   0.00000  Uiso   1.00
C503   C     0.14068   0.76591   0.03437   0.00000  Uiso   1.00
C504   C     0.25442   0.82921   0.00829   0.00000  Uiso   1.00
C505   C     0.18659   0.80856   0.46676   0.00000  Uiso   1.00
C506   C     0.17804   0.79590   0.01288   0.00000  Uiso   1.00
C507   C     0.29827   0.86065   0.10510   0.00000  Uiso   1.00
C508   C     0.05130   0.77562   0.38227   0.00000  Uiso   1.00
C509   C     0.17845   0.71134   0.32690   0.00000  Uiso   1.00
C510   C     0.15610   0.95515   0.17265   0.00000  Uiso   1.00
C511   C     0.23483   0.82101   0.43755   0.00000  Uiso   1.00
C512   C     0.10550   0.75746   0.01438   0.00000  Uiso   1.00
C513   C     0.26866   0.83170   0.45847   0.00000  Uiso   1.00
C514   C     0.17324   0.97794   0.28748   0.00000  Uiso   1.00
C515   C     0.15995   0.68867   0.21265   0.00000  Uiso   1.00
C516   C     0.17322   0.68821   0.28792   0.00000  Uiso   1.00
H517   H     0.07256   0.71473   0.06174   0.00000  Uiso   1.00
H518   H     0.14739   0.69452   0.15395   0.00000  Uiso   1.00
H519   H     0.00341   0.77557   0.16208   0.00000  Uiso   1.00
H520   H     0.33080   0.89612   0.33447   0.00000  Uiso   1.00
H521   H     0.05323   0.75134   0.19133   0.00000  Uiso   1.00
H522   H     0.27978   0.91633   0.30550   0.00000  Uiso   1.00
H523   H     0.31885   0.84828   0.39766   0.00000  Uiso   1.00
H524   H     0.12666   0.84752   0.11799   0.00000  Uiso   1.00
H525   H     0.17815   0.88055   0.42919   0.00000  Uiso   1.00
H526   H     0.01450   0.76139   0.00801   0.00000  Uiso   1.00
H527   H     0.02034   0.85434   0.02327   0.00000  Uiso   1.00
H528   H     0.17368   0.74102   0.07237   0.00000  Uiso   1.00
H529   H     0.23182   0.79909   0.37918   0.00000  Uiso   1.00
H530   H     0.18461   0.97202   0.34685   0.00000  Uiso   1.00
N531   N     0.04759   0.83334   0.25001   0.00000  Uiso   1.00
N532   N     0.28574   0.83332   0.24999   0.00000  Uiso   1.00
N533   N     0.32303   0.87376   0.12365   0.00000  Uiso   1.00
N534   N     0.02816   0.76350   0.36154   0.00000  Uiso   1.00
N535   N     0.18270   0.72968   0.35798   0.00000  Uiso   1.00
N536   N     0.15280   0.93657   0.14127   0.00000  Uiso   1.00
O537   O     0.12846   0.89442   0.25001   0.00000  Uiso   1.00
O538   O     0.31468   0.84652   0.43130   0.00000  Uiso   1.00
O539   O     0.13789   0.81846   0.10793   0.00000  Uiso   1.00
O540   O     0.17274   0.86922   0.40122   0.00000  Uiso   1.00
O541   O     0.02940   0.75140   0.47475   0.00000  Uiso   1.00
O542   O     0.33298   0.85441   0.00427   0.00000  Uiso   1.00
O543   O     0.14030   0.74176   0.07200   0.00000  Uiso   1.00
O544   O     0.25096   0.82022   0.38869   0.00000  Uiso   1.00
O545   O     0.17825   0.95408   0.32328   0.00000  Uiso   1.00
O546   O     0.15476   0.71248   0.17691   0.00000  Uiso   1.00
O547   O     0.30722   0.78144   0.19070   0.00000  Uiso   1.00
O548   O     0.20488   0.77225   0.25000   0.00000  Uiso   1.00
O549   O     0.02695   0.88652   0.30774   0.00000  Uiso   1.00
O550   O     0.06989   0.77675   0.19633   0.00000  Uiso   1.00
O551   O     0.26329   0.88974   0.30381   0.00000  Uiso   1.00
O552   O     0.20490   0.89441   0.25000   0.00000  Uiso   1.00
O553   O     0.12843   0.77226   0.25000   0.00000  Uiso   1.00
O554   O     0.10661   0.83334   0.31613   0.00000  Uiso   1.00
O555   O     0.22672   0.83333   0.18388   0.00000  Uiso   1.00
O556   O     0.18305   0.83333   0.31612   0.00000  Uiso   1.00
O557   O     0.15028   0.83334   0.18388   0.00000  Uiso   1.00
O558   O     0.07111   0.72620   0.03224   0.00000  Uiso   1.00
Zn559  Zn    0.11562   0.83334   0.25000   0.00000  Uiso   1.00
Zn560  Zn    0.21771   0.83333   0.25000   0.00000  Uiso   1.00
C561   C     0.50008   0.91319   0.24979   0.00000  Uiso   1.00
C562   C     0.49362   0.97840   0.21206   0.00000  Uiso   1.00
C563   C     0.49988   0.70927   0.25049   0.00000  Uiso   1.00
C564   C     0.50009   0.95737   0.24960   0.00000  Uiso   1.00
C565   C     0.65354   0.80640   0.22109   0.00000  Uiso   1.00
C566   C     0.34667   0.86070   0.27843   0.00000  Uiso   1.00
C567   C     0.36848   0.80555   0.22212   0.00000  Uiso   1.00
C568   C     0.63154   0.86121   0.27776   0.00000  Uiso   1.00
C569   C     0.46944   0.83173   0.33840   0.00000  Uiso   1.00
C570   C     0.53073   0.83414   0.16117   0.00000  Uiso   1.00
C571   C     0.45114   0.82035   0.38869   0.00000  Uiso   1.00
C572   C     0.49989   0.75347   0.25028   0.00000  Uiso   1.00
C573   C     0.55132   0.83356   0.10850   0.00000  Uiso   1.00
C574   C     0.40480   0.77427   0.45327   0.00000  Uiso   1.00
C575   C     0.61887   0.84260   0.03148   0.00000  Uiso   1.00
C576   C     0.41361   0.79068   0.40821   0.00000  Uiso   1.00
C577   C     0.60068   0.84425   0.08172   0.00000  Uiso   1.00
C578   C     0.47914   0.83281   0.41436   0.00000  Uiso   1.00
C579   C     0.52118   0.82063   0.08460   0.00000  Uiso   1.00
C580   C     0.48028   0.80722   0.45144   0.00000  Uiso   1.00
C581   C     0.54082   0.81339   0.03559   0.00000  Uiso   1.00
C582   C     0.44028   0.78001   0.47402   0.00000  Uiso   1.00
C583   C     0.47401   0.76591   0.03437   0.00000  Uiso   1.00
C584   C     0.58776   0.82921   0.00829   0.00000  Uiso   1.00
C585   C     0.51993   0.80856   0.46676   0.00000  Uiso   1.00
C586   C     0.51137   0.79590   0.01288   0.00000  Uiso   1.00
C587   C     0.63160   0.86065   0.10510   0.00000  Uiso   1.00
C588   C     0.38463   0.77562   0.38227   0.00000  Uiso   1.00
C589   C     0.51178   0.71134   0.32690   0.00000  Uiso   1.00
C590   C     0.48943   0.95515   0.17265   0.00000  Uiso   1.00
C591   C     0.56816   0.82101   0.43755   0.00000  Uiso   1.00
C592   C     0.43883   0.75746   0.01438   0.00000  Uiso   1.00
C593   C     0.60199   0.83170   0.45847   0.00000  Uiso   1.00
C594   C     0.50657   0.97794   0.28748   0.00000  Uiso   1.00
C595   C     0.49328   0.68867   0.21265   0.00000  Uiso   1.00
C596   C     0.50655   0.68821   0.28792   0.00000  Uiso   1.00
H597   H     0.40589   0.71473   0.06174   0.00000  Uiso   1.00
H598   H     0.48073   0.69452   0.15395   0.00000  Uiso   1.00
H599   H     0.33674   0.77557   0.16208   0.00000  Uiso   1.00
H600   H     0.66413   0.89612   0.33447   0.00000  Uiso   1.00
H601   H     0.38657   0.75134   0.19133   0.00000  Uiso   1.00
H602   H     0.61311   0.91633   0.30550   0.00000  Uiso   1.00
H603   H     0.65218   0.84828   0.39766   0.00000  Uiso   1.00
H604   H     0.46000   0.84752   0.11799   0.00000  Uiso   1.00
H605   H     0.51149   0.88055   0.42919   0.00000  Uiso   1.00
H606   H     0.34783   0.76139   0.00801   0.00000  Uiso   1.00
H607   H     0.35368   0.85434   0.02327   0.00000  Uiso   1.00
H608   H     0.50702   0.74102   0.07237   0.00000  Uiso   1.00
H609   H     0.56515   0.79909   0.37918   0.00000  Uiso   1.00
H610   H     0.51794   0.97202   0.34685   0.00000  Uiso   1.00
N611   N     0.38093   0.83334   0.25001   0.00000  Uiso   1.00
N612   N     0.61907   0.83332   0.24999   0.00000  Uiso   1.00
N613   N     0.65637   0.87376   0.12365   0.00000  Uiso   1.00
N614   N     0.36149   0.76350   0.36154   0.00000  Uiso   1.00
N615   N     0.51603   0.72968   0.35798   0.00000  Uiso   1.00
N616   N     0.48613   0.93657   0.14127   0.00000  Uiso   1.00
O617   O     0.46179   0.89442   0.25001   0.00000  Uiso   1.00
O618   O     0.64801   0.84652   0.43130   0.00000  Uiso   1.00
O619   O     0.47122   0.81846   0.10793   0.00000  Uiso   1.00
O620   O     0.50608   0.86922   0.40122   0.00000  Uiso   1.00
O621   O     0.36274   0.75140   0.47475   0.00000  Uiso   1.00
O622   O     0.66631   0.85441   0.00427   0.00000  Uiso   1.00
O623   O     0.47364   0.74176   0.07200   0.00000  Uiso   1.00
O624   O     0.58429   0.82022   0.38869   0.00000  Uiso   1.00
O625   O     0.51158   0.95408   0.32328   0.00000  Uiso   1.00
O626   O     0.48809   0.71248   0.17691   0.00000  Uiso   1.00
O627   O     0.64056   0.78144   0.19070   0.00000  Uiso   1.00
O628   O     0.53821   0.77225   0.25000   0.00000  Uiso   1.00
O629   O     0.36028   0.88652   0.30774   0.00000  Uiso   1.00
O630   O     0.40323   0.77675   0.19633   0.00000  Uiso   1.00
O631   O     0.59663   0.88974   0.30381   0.00000  Uiso   1.00
O632   O     0.53823   0.89441   0.25000   0.00000  Uiso   1.00
O633   O     0.46177   0.77226   0.25000   0.00000  Uiso   1.00
O634   O     0.43994   0.83334   0.31613   0.00000  Uiso   1.00
O635   O     0.56006   0.83333   0.18388   0.00000  Uiso   1.00
O636   O     0.51639   0.83333   0.31612   0.00000  Uiso   1.00
O637   O     0.48361   0.83334   0.18388   0.00000  Uiso   1.00
O638   O     0.40445   0.72620   0.03224   0.00000  Uiso   1.00
Zn639  Zn    0.44896   0.83334   0.25000   0.00000  Uiso   1.00
Zn640  Zn    0.55104   0.83333   0.25000   0.00000  Uiso   1.00
C641   C     0.83341   0.91319   0.24979   0.00000  Uiso   1.00
C642   C     0.82696   0.97840   0.21206   0.00000  Uiso   1.00
C643   C     0.83321   0.70927   0.25049   0.00000  Uiso   1.00
C644   C     0.83342   0.95737   0.24960   0.00000  Uiso   1.00
C645   C     0.98687   0.80640   0.22109   0.00000  Uiso   1.00
C646   C     0.68001   0.86070   0.27843   0.00000  Uiso   1.00
C647   C     0.70182   0.80555   0.22212   0.00000  Uiso   1.00
C648   C     0.96487   0.86121   0.27776   0.00000  Uiso   1.00
C649   C     0.80278   0.83173   0.33840   0.00000  Uiso   1.00
C650   C     0.86406   0.83414   0.16117   0.00000  Uiso   1.00
C651   C     0.78447   0.82035   0.38869   0.00000  Uiso   1.00
C652   C     0.83323   0.75347   0.25028   0.00000  Uiso   1.00
C653   C     0.88465   0.83356   0.10850   0.00000  Uiso   1.00
C654   C     0.73814   0.77427   0.45327   0.00000  Uiso   1.00
C655   C     0.95220   0.84260   0.03148   0.00000  Uiso   1.00
C656   C     0.74694   0.79068   0.40821   0.00000  Uiso   1.00
C657   C     0.93402   0.84425   0.08172   0.00000  Uiso   1.00
C658   C     0.81247   0.83281   0.41436   0.00000  Uiso   1.00
C659   C     0.85451   0.82063   0.08460   0.00000  Uiso   1.00
C660   C     0.81362   0.80722   0.45144   0.00000  Uiso   1.00
C661   C     0.87415   0.81339   0.03559   0.00000  Uiso   1.00
C662   C     0.77361   0.78001   0.47402   0.00000  Uiso   1.00
C663   C     0.80734   0.76591   0.03437   0.00000  Uiso   1.00
C664   C     0.92109   0.82921   0.00829   0.00000  Uiso   1.00
C665   C     0.85326   0.80856   0.46676   0.00000  Uiso   1.00
C666   C     0.84470   0.79590   0.01288   0.00000  Uiso   1.00
C667   C     0.96493   0.86065   0.10510   0.00000  Uiso   1.00
C668   C     0.71796   0.77562   0.38227   0.00000  Uiso   1.00
C669   C     0.84511   0.71134   0.32690   0.00000  Uiso   1.00
C670   C     0.82277   0.95515   0.17265   0.00000  Uiso   1.00
C671   C     0.90149   0.82101   0.43755   0.00000  Uiso   1.00
C672   C     0.77217   0.75746   0.01438   0.00000  Uiso   1.00
C673   C     0.93532   0.83170   0.45847   0.00000  Uiso   1.00
C674   C     0.83991   0.97794   0.28748   0.00000  Uiso   1.00
C675   C     0.82661   0.68867   0.21265   0.00000  Uiso   1.00
C676   C     0.83988   0.68821   0.28792   0.00000  Uiso   1.00
H677   H     0.73923   0.71473   0.06174   0.00000  Uiso   1.00
H678   H     0.81406   0.69452   0.15395   0.00000  Uiso   1.00
H679   H     0.67007   0.77557   0.16208   0.00000  Uiso   1.00
H680   H     0.99746   0.89612   0.33447   0.00000  Uiso   1.00
H681   H     0.71990   0.75134   0.19133   0.00000  Uiso   1.00
H682   H     0.94645   0.91633   0.30550   0.00000  Uiso   1.00
H683   H     0.98552   0.84828   0.39766   0.00000  Uiso   1.00
H684   H     0.79333   0.84752   0.11799   0.00000  Uiso   1.00
H685   H     0.84482   0.88055   0.42919   0.00000  Uiso   1.00
H686   H     0.68116   0.76139   0.00801   0.00000  Uiso   1.00
H687   H     0.68701   0.85434   0.02327   0.00000  Uiso   1.00
H688   H     0.84035   0.74102   0.07237   0.00000  Uiso   1.00
H689   H     0.89848   0.79909   0.37918   0.00000  Uiso   1.00
H690   H     0.85127   0.97202   0.34685   0.00000  Uiso   1.00
N691   N     0.71426   0.83334   0.25001   0.00000  Uiso   1.00
N692   N     0.95241   0.83332   0.24999   0.00000  Uiso   1.00
N693   N     0.98970   0.87376   0.12365   0.00000  Uiso   1.00
N694   N     0.69482   0.76350   0.36154   0.00000  Uiso   1.00
N695   N     0.84936   0.72968   0.35798   0.00000  Uiso   1.00
N696   N     0.81947   0.93657   0.14127   0.00000  Uiso   1.00
O697   O     0.79512   0.89442   0.25001   0.00000  Uiso   1.00
O698   O     0.98135   0.84652   0.43130   0.00000  Uiso   1.00
O699   O     0.80455   0.81846   0.10793   0.00000  Uiso   1.00
O700   O     0.83941   0.86922   0.40122   0.00000  Uiso   1.00
O701   O     0.69607   0.75140   0.47475   0.00000  Uiso   1.00
O702   O     0.99964   0.85441   0.00427   0.00000  Uiso   1.00
O703   O     0.80697   0.74176   0.07200   0.00000  Uiso   1.00
O704   O     0.91762   0.82022   0.38869   0.00000  Uiso   1.00
O705   O     0.84492   0.95408   0.32328   0.00000  Uiso   1.00
O706   O     0.82142   0.71248   0.17691   0.00000  Uiso   1.00
O707   O     0.97389   0.78144   0.19070   0.00000  Uiso   1.00
O708   O     0.87154   0.77225   0.25000   0.00000  Uiso   1.00
O709   O     0.69361   0.88652   0.30774   0.00000  Uiso   1.00
O710   O     0.73656   0.77675   0.19633   0.00000  Uiso   1.00
O711   O     0.92996   0.88974   0.30381   0.00000  Uiso   1.00
O712   O     0.87157   0.89441   0.25000   0.00000  Uiso   1.00
O713   O     0.79510   0.77226   0.25000   0.00000  Uiso   1.00
O714   O     0.77328   0.83334   0.31613   0.00000  Uiso   1.00
O715   O     0.89339   0.83333   0.18388   0.00000  Uiso   1.00
O716   O     0.84972   0.83333   0.31612   0.00000  Uiso   1.00
O717   O     0.81695   0.83334   0.18388   0.00000  Uiso   1.00
O718   O     0.73778   0.72620   0.03224   0.00000  Uiso   1.00
Zn719  Zn    0.78229   0.83334   0.25000   0.00000  Uiso   1.00
Zn720  Zn    0.88438   0.83333   0.25000   0.00000  Uiso   1.00
C721   C     0.16674   0.24652   0.74979   0.00000  Uiso   1.00
C722   C     0.16029   0.31173   0.71206   0.00000  Uiso   1.00
C723   C     0.16654   0.04260   0.75049   0.00000  Uiso   1.00
C724   C     0.16675   0.29070   0.74960   0.00000  Uiso   1.00
C725   C     0.32021   0.13973   0.72109   0.00000  Uiso   1.00
C726   C     0.01334   0.19404   0.77843   0.00000  Uiso   1.00
C727   C     0.03515   0.13889   0.72212   0.00000  Uiso   1.00
C728   C     0.29821   0.19454   0.77776   0.00000  Uiso   1.00
C729   C     0.13611   0.16506   0.83840   0.00000  Uiso   1.00
C730   C     0.19739   0.16747   0.66117   0.00000  Uiso   1.00
C731   C     0.11781   0.15369   0.88869   0.00000  Uiso   1.00
C732   C     0.16656   0.08680   0.75028   0.00000  Uiso   1.00
C733   C     0.21799   0.16690   0.60850   0.00000  Uiso   1.00
C734   C     0.07147   0.10760   0.95327   0.00000  Uiso   1.00
C735   C     0.28554   0.17594   0.53148   0.00000  Uiso   1.00
C736   C     0.08028   0.12401   0.90821   0.00000  Uiso   1.00
C737   C     0.26735   0.17759   0.58172   0.00000  Uiso   1.00
C738   C     0.14581   0.16615   0.91436   0.00000  Uiso   1.00
C739   C     0.18785   0.15396   0.58460   0.00000  Uiso   1.00
C740   C     0.14695   0.14056   0.95144   0.00000  Uiso   1.00
C741   C     0.20749   0.14672   0.53559   0.00000  Uiso   1.00
C742   C     0.10694   0.11334   0.97402   0.00000  Uiso   1.00
C743   C     0.14068   0.09924   0.53437   0.00000  Uiso   1.00
C744   C     0.25442   0.16254   0.50829   0.00000  Uiso   1.00
C745   C     0.18659   0.14189   0.96676   0.00000  Uiso   1.00
C746   C     0.17804   0.12923   0.51288   0.00000  Uiso   1.00
C747   C     0.29827   0.19399   0.60510   0.00000  Uiso   1.00
C748   C     0.05130   0.10895   0.88227   0.00000  Uiso   1.00
C749   C     0.17845   0.04468   0.82690   0.00000  Uiso   1.00
C750   C     0.15610   0.28848   0.67265   0.00000  Uiso   1.00
C751   C     0.23483   0.15434   0.93755   0.00000  Uiso   1.00
C752   C     0.10550   0.09080   0.51438   0.00000  Uiso   1.00
C753   C     0.26866   0.16504   0.95847   0.00000  Uiso   1.00
C754   C     0.17324   0.31128   0.78748   0.00000  Uiso   1.00
C755   C     0.15995   0.02200   0.71265   0.00000  Uiso   1.00
C756   C     0.17322   0.02154   0.78792   0.00000  Uiso   1.00
H757   H     0.07256   0.04807   0.56174   0.00000  Uiso   1.00
H758   H     0.14739   0.02785   0.65395   0.00000  Uiso   1.00
H759   H     0.00341   0.10890   0.66208   0.00000  Uiso   1.00
H760   H     0.33080   0.22945   0.83447   0.00000  Uiso   1.00
H761   H     0.05323   0.08467   0.69133   0.00000  Uiso   1.00
H762   H     0.27978   0.24966   0.80550   0.00000  Uiso   1.00
H763   H     0.31885   0.18161   0.89766   0.00000  Uiso   1.00
H764   H     0.12666   0.18085   0.61799   0.00000  Uiso   1.00
H765   H     0.17815   0.21389   0.92919   0.00000  Uiso   1.00
H766   H     0.01450   0.09473   0.50801   0.00000  Uiso   1.00
H767   H     0.02034   0.18767   0.52327   0.00000  Uiso   1.00
H768   H     0.17368   0.07435   0.57237   0.00000  Uiso   1.00
H769   H     0.23182   0.13242   0.87918   0.00000  Uiso   1.00
H770   H     0.18461   0.30535   0.84685   0.00000  Uiso   1.00
N771   N     0.04759   0.16668   0.75001   0.00000  Uiso   1.00
N772   N     0.28574   0.16666   0.74999   0.00000  Uiso   1.00
N773   N     0.32303   0.20710   0.62365   0.00000  Uiso   1.00
N774   N     0.02816   0.09684   0.86154   0.00000  Uiso   1.00
N775   N     0.18270   0.06301   0.85798   0.00000  Uiso   1.00
N776   N     0.15280   0.26990   0.64127   0.00000  Uiso   1.00
O777   O     0.12846   0.22775   0.75001   0.00000  Uiso   1.00
O778   O     0.31468   0.17985   0.93130   0.00000  Uiso   1.00
O779   O     0.13789   0.15179   0.60793   0.00000  Uiso   1.00
O780   O     0.17274   0.20256   0.90122   0.00000  Uiso   1.00
O781   O     0.02940   0.08473   0.97475   0.00000  Uiso   1.00
O782   O     0.33298   0.18774   0.50427   0.00000  Uiso   1.00
O783   O     0.14030   0.07509   0.57200   0.00000  Uiso   1.00
O784   O     0.25096   0.15355   0.88869   0.00000  Uiso   1.00
O785   O     0.17825   0.28742   0.82328   0.00000  Uiso   1.00
O786   O     0.15476   0.04581   0.67691   0.00000  Uiso   1.00
O787   O     0.30722   0.11478   0.69070   0.00000  Uiso   1.00
O788   O     0.20488   0.10558   0.75000   0.00000  Uiso   1.00
O789   O     0.02695   0.21986   0.80774   0.00000  Uiso   1.00
O790   O     0.06989   0.11008   0.69633   0.00000  Uiso   1.00
O791   O     0.26329   0.22308   0.80381   0.00000  Uiso   1.00
O792   O     0.20490   0.22774   0.75000   0.00000  Uiso   1.00
O793   O     0.12843   0.10559   0.75000   0.00000  Uiso   1.00
O794   O     0.10661   0.16667   0.81613   0.00000  Uiso   1.00
O795   O     0.22672   0.16666   0.68388   0.00000  Uiso   1.00
O796   O     0.18305   0.16666   0.81612   0.00000  Uiso   1.00
O797   O     0.15028   0.16667   0.68388   0.00000  Uiso   1.00
O798   O     0.07111   0.05953   0.53224   0.00000  Uiso   1.00
Zn799  Zn    0.11562   0.16667   0.75000   0.00000  Uiso   1.00
Zn800  Zn    0.21771   0.16666   0.75000   0.00000  Uiso   1.00
C801   C     0.50008   0.24652   0.74979   0.00000  Uiso   1.00
C802   C     0.49362   0.31173   0.71206   0.00000  Uiso   1.00
C803   C     0.49988   0.04260   0.75049   0.00000  Uiso   1.00
C804   C     0.50009   0.29070   0.74960   0.00000  Uiso   1.00
C805   C     0.65354   0.13973   0.72109   0.00000  Uiso   1.00
C806   C     0.34667   0.19404   0.77843   0.00000  Uiso   1.00
C807   C     0.36848   0.13889   0.72212   0.00000  Uiso   1.00
C808   C     0.63154   0.19454   0.77776   0.00000  Uiso   1.00
C809   C     0.46944   0.16506   0.83840   0.00000  Uiso   1.00
C810   C     0.53073   0.16747   0.66117   0.00000  Uiso   1.00
C811   C     0.45114   0.15369   0.88869   0.00000  Uiso   1.00
C812   C     0.49989   0.08680   0.75028   0.00000  Uiso   1.00
C813   C     0.55132   0.16690   0.60850   0.00000  Uiso   1.00
C814   C     0.40480   0.10760   0.95327   0.00000  Uiso   1.00
C815   C     0.61887   0.17594   0.53148   0.00000  Uiso   1.00
C816   C     0.41361   0.12401   0.90821   0.00000  Uiso   1.00
C817   C     0.60068   0.17759   0.58172   0.00000  Uiso   1.00
C818   C     0.47914   0.16615   0.91436   0.00000  Uiso   1.00
C819   C     0.52118   0.15396   0.58460   0.00000  Uiso   1.00
C820   C     0.48028   0.14056   0.95144   0.00000  Uiso   1.00
C821   C     0.54082   0.14672   0.53559   0.00000  Uiso   1.00
C822   C     0.44028   0.11334   0.97402   0.00000  Uiso   1.00
C823   C     0.47401   0.09924   0.53437   0.00000  Uiso   1.00
C824   C     0.58776   0.16254   0.50829   0.00000  Uiso   1.00
C825   C     0.51993   0.14189   0.96676   0.00000  Uiso   1.00
C826   C     0.51137   0.12923   0.51288   0.00000  Uiso   1.00
C827   C     0.63160   0.19399   0.60510   0.00000  Uiso   1.00
C828   C     0.38463   0.10895   0.88227   0.00000  Uiso   1.00
C829   C     0.51178   0.04468   0.82690   0.00000  Uiso   1.00
C830   C     0.48943   0.28848   0.67265   0.00000  Uiso   1.00
C831   C     0.56816   0.15434   0.93755   0.00000  Uiso   1.00
C832   C     0.43883   0.09080   0.51438   0.00000  Uiso   1.00
C833   C     0.60199   0.16504   0.95847   0.00000  Uiso   1.00
C834   C     0.50657   0.31128   0.78748   0.00000  Uiso   1.00
C835   C     0.49328   0.02200   0.71265   0.00000  Uiso   1.00
C836   C     0.50655   0.02154   0.78792   0.00000  Uiso   1.00
H837   H     0.40589   0.04807   0.56174   0.00000  Uiso   1.00
H838   H     0.48073   0.02785   0.65395   0.00000  Uiso   1.00
H839   H     0.33674   0.10890   0.66208   0.00000  Uiso   1.00
H840   H     0.66413   0.22945   0.83447   0.00000  Uiso   1.00
H841   H     0.38657   0.08467   0.69133   0.00000  Uiso   1.00
H842   H     0.61311   0.24966   0.80550   0.00000  Uiso   1.00
H843   H     0.65218   0.18161   0.89766   0.00000  Uiso   1.00
H844   H     0.46000   0.18085   0.61799   0.00000  Uiso   1.00
H845   H     0.51149   0.21389   0.92919   0.00000  Uiso   1.00
H846   H     0.34783   0.09473   0.50801   0.00000  Uiso   1.00
H847   H     0.35368   0.18767   0.52327   0.00000  Uiso   1.00
H848   H     0.50702   0.07435   0.57237   0.00000  Uiso   1.00
H849   H     0.56515   0.13242   0.87918   0.00000  Uiso   1.00
H850   H     0.51794   0.30535   0.84685   0.00000  Uiso   1.00
N851   N     0.38093   0.16668   0.75001   0.00000  Uiso   1.00
N852   N     0.61907   0.16666   0.74999   0.00000  Uiso   1.00
N853   N     0.65637   0.20710   0.62365   0.00000  Uiso   1.00
N854   N     0.36149   0.09684   0.86154   0.00000  Uiso   1.00
N855   N     0.51603   0.06301   0.85798   0.00000  Uiso   1.00
N856   N     0.48613   0.26990   0.64127   0.00000  Uiso   1.00
O857   O     0.46179   0.22775   0.75001   0.00000  Uiso   1.00
O858   O     0.64801   0.17985   0.93130   0.00000  Uiso   1.00
O859   O     0.47122   0.15179   0.60793   0.00000  Uiso   1.00
O860   O     0.50608   0.20256   0.90122   0.00000  Uiso   1.00
O861   O     0.36274   0.08473   0.97475   0.00000  Uiso   1.00
O862   O     0.66631   0.18774   0.50427   0.00000  Uiso   1.00
O863   O     0.47364   0.07509   0.57200   0.00000  Uiso   1.00
O864   O     0.58429   0.15355   0.88869   0.00000  Uiso   1.00
O865   O     0.51158   0.28742   0.82328   0.00000  Uiso   1.00
O866   O     0.48809   0.04581   0.67691   0.00000  Uiso   1.00
O867   O     0.64056   0.11478   0.69070   0.00000  Uiso   1.00
O868   O     0.53821   0.10558   0.75000   0.00000  Uiso   1.00
O869   O     0.36028   0.21986   0.80774   0.00000  Uiso   1.00
O870   O     0.40323   0.11008   0.69633   0.00000  Uiso   1.00
O871   O     0.59663   0.22308   0.80381   0.00000  Uiso   1.00
O872   O     0.53823   0.22774   0.75000   0.00000  Uiso   1.00
O873   O     0.46177   0.10559   0.75000   0.00000  Uiso   1.00
O874   O     0.43994   0.16667   0.81613   0.00000  Uiso   1.00
O875   O     0.56006   0.16666   0.68388   0.00000  Uiso   1.00
O876   O     0.51639   0.16666   0.81612   0.00000  Uiso   1.00
O877   O     0.48361   0.16667   0.68388   0.00000  Uiso   1.00
O878   O     0.40445   0.05953   0.53224   0.00000  Uiso   1.00
Zn879  Zn    0.44896   0.16667   0.75000   0.00000  Uiso   1.00
Zn880  Zn    0.55104   0.16666   0.75000   0.00000  Uiso   1.00
C881   C     0.83341   0.24652   0.74979   0.00000  Uiso   1.00
C882   C     0.82696   0.31173   0.71206   0.00000  Uiso   1.00
C883   C     0.83321   0.04260   0.75049   0.00000  Uiso   1.00
C884   C     0.83342   0.29070   0.74960   0.00000  Uiso   1.00
C885   C     0.98687   0.13973   0.72109   0.00000  Uiso   1.00
C886   C     0.68001   0.19404   0.77843   0.00000  Uiso   1.00
C887   C     0.70182   0.13889   0.72212   0.00000  Uiso   1.00
C888   C     0.96487   0.19454   0.77776   0.00000  Uiso   1.00
C889   C     0.80278   0.16506   0.83840   0.00000  Uiso   1.00
C890   C     0.86406   0.16747   0.66117   0.00000  Uiso   1.00
C891   C     0.78447   0.15369   0.88869   0.00000  Uiso   1.00
C892   C     0.83323   0.08680   0.75028   0.00000  Uiso   1.00
C893   C     0.88465   0.16690   0.60850   0.00000  Uiso   1.00
C894   C     0.73814   0.10760   0.95327   0.00000  Uiso   1.00
C895   C     0.95220   0.17594   0.53148   0.00000  Uiso   1.00
C896   C     0.74694   0.12401   0.90821   0.00000  Uiso   1.00
C897   C     0.93402   0.17759   0.58172   0.00000  Uiso   1.00
C898   C     0.81247   0.16615   0.91436   0.00000  Uiso   1.00
C899   C     0.85451   0.15396   0.58460   0.00000  Uiso   1.00
C900   C     0.81362   0.14056   0.95144   0.00000  Uiso   1.00
C901   C     0.87415   0.14672   0.53559   0.00000  Uiso   1.00
C902   C     0.77361   0.11334   0.97402   0.00000  Uiso   1.00
C903   C     0.80734   0.09924   0.53437   0.00000  Uiso   1.00
C904   C     0.92109   0.16254   0.50829   0.00000  Uiso   1.00
C905   C     0.85326   0.14189   0.96676   0.00000  Uiso   1.00
C906   C     0.84470   0.12923   0.51288   0.00000  Uiso   1.00
C907   C     0.96493   0.19399   0.60510   0.00000  Uiso   1.00
C908   C     0.71796   0.10895   0.88227   0.00000  Uiso   1.00
C909   C     0.84511   0.04468   0.82690   0.00000  Uiso   1.00
C910   C     0.82277   0.28848   0.67265   0.00000  Uiso   1.00
C911   C     0.90149   0.15434   0.93755   0.00000  Uiso   1.00
C912   C     0.77217   0.09080   0.51438   0.00000  Uiso   1.00
C913   C     0.93532   0.16504   0.95847   0.00000  Uiso   1.00
C914   C     0.83991   0.31128   0.78748   0.00000  Uiso   1.00
C915   C     0.82661   0.02200   0.71265   0.00000  Uiso   1.00
C916   C     0.83988   0.02154   0.78792   0.00000  Uiso   1.00
H917   H     0.73923   0.04807   0.56174   0.00000  Uiso   1.00
H918   H     0.81406   0.02785   0.65395   0.00000  Uiso   1.00
H919   H     0.67007   0.10890   0.66208   0.00000  Uiso   1.00
H920   H     0.99746   0.22945   0.83447   0.00000  Uiso   1.00
H921   H     0.71990   0.08467   0.69133   0.00000  Uiso   1.00
H922   H     0.94645   0.24966   0.80550   0.00000  Uiso   1.00
H923   H     0.98552   0.18161   0.89766   0.00000  Uiso   1.00
H924   H     0.79333   0.18085   0.61799   0.00000  Uiso   1.00
H925   H     0.84482   0.21389   0.92919   0.00000  Uiso   1.00
H926   H     0.68116   0.09473   0.50801   0.00000  Uiso   1.00
H927   H     0.68701   0.18767   0.52327   0.00000  Uiso   1.00
H928   H     0.84035   0.07435   0.57237   0.00000  Uiso   1.00
H929   H     0.89848   0.13242   0.87918   0.00000  Uiso   1.00
H930   H     0.85127   0.30535   0.84685   0.00000  Uiso   1.00
N931   N     0.71426   0.16668   0.75001   0.00000  Uiso   1.00
N932   N     0.95241   0.16666   0.74999   0.00000  Uiso   1.00
N933   N     0.98970   0.20710   0.62365   0.00000  Uiso   1.00
N934   N     0.69482   0.09684   0.86154   0.00000  Uiso   1.00
N935   N     0.84936   0.06301   0.85798   0.00000  Uiso   1.00
N936   N     0.81947   0.26990   0.64127   0.00000  Uiso   1.00
O937   O     0.79512   0.22775   0.75001   0.00000  Uiso   1.00
O938   O     0.98135   0.17985   0.93130   0.00000  Uiso   1.00
O939   O     0.80455   0.15179   0.60793   0.00000  Uiso   1.00
O940   O     0.83941   0.20256   0.90122   0.00000  Uiso   1.00
O941   O     0.69607   0.08473   0.97475   0.00000  Uiso   1.00
O942   O     0.99964   0.18774   0.50427   0.00000  Uiso   1.00
O943   O     0.80697   0.07509   0.57200   0.00000  Uiso   1.00
O944   O     0.91762   0.15355   0.88869   0.00000  Uiso   1.00
O945   O     0.84492   0.28742   0.82328   0.00000  Uiso   1.00
O946   O     0.82142   0.04581   0.67691   0.00000  Uiso   1.00
O947   O     0.97389   0.11478   0.69070   0.00000  Uiso   1.00
O948   O     0.87154   0.10558   0.75000   0.00000  Uiso   1.00
O949   O     0.69361   0.21986   0.80774   0.00000  Uiso   1.00
O950   O     0.73656   0.11008   0.69633   0.00000  Uiso   1.00
O951   O     0.92996   0.22308   0.80381   0.00000  Uiso   1.00
O952   O     0.87157   0.22774   0.75000   0.00000  Uiso   1.00
O953   O     0.79510   0.10559   0.75000   0.00000  Uiso   1.00
O954   O     0.77328   0.16667   0.81613   0.00000  Uiso   1.00
O955   O     0.89339   0.16666   0.68388   0.00000  Uiso   1.00
O956   O     0.84972   0.16666   0.81612   0.00000  Uiso   1.00
O957   O     0.81695   0.16667   0.68388   0.00000  Uiso   1.00
O958   O     0.73778   0.05953   0.53224   0.00000  Uiso   1.00
Zn959  Zn    0.78229   0.16667   0.75000   0.00000  Uiso   1.00
Zn960  Zn    0.88438   0.16666   0.75000   0.00000  Uiso   1.00
C961   C     0.16674   0.57985   0.74979   0.00000  Uiso   1.00
C962   C     0.16029   0.64506   0.71206   0.00000  Uiso   1.00
C963   C     0.16654   0.37593   0.75049   0.00000  Uiso   1.00
C964   C     0.16675   0.62404   0.74960   0.00000  Uiso   1.00
C965   C     0.32021   0.47306   0.72109   0.00000  Uiso   1.00
C966   C     0.01334   0.52737   0.77843   0.00000  Uiso   1.00
C967   C     0.03515   0.47222   0.72212   0.00000  Uiso   1.00
C968   C     0.29821   0.52787   0.77776   0.00000  Uiso   1.00
C969   C     0.13611   0.49839   0.83840   0.00000  Uiso   1.00
C970   C     0.19739   0.50081   0.66117   0.00000  Uiso   1.00
C971   C     0.11781   0.48702   0.88869   0.00000  Uiso   1.00
C972   C     0.16656   0.42013   0.75028   0.00000  Uiso   1.00
C973   C     0.21799   0.50023   0.60850   0.00000  Uiso   1.00
C974   C     0.07147   0.44093   0.95327   0.00000  Uiso   1.00
C975   C     0.28554   0.50927   0.53148   0.00000  Uiso   1.00
C976   C     0.08028   0.45734   0.90821   0.00000  Uiso   1.00
C977   C     0.26735   0.51092   0.58172   0.00000  Uiso   1.00
C978   C     0.14581   0.49948   0.91436   0.00000  Uiso   1.00
C979   C     0.18785   0.48730   0.58460   0.00000  Uiso   1.00
C980   C     0.14695   0.47389   0.95144   0.00000  Uiso   1.00
C981   C     0.20749   0.48005   0.53559   0.00000  Uiso   1.00
C982   C     0.10694   0.44667   0.97402   0.00000  Uiso   1.00
C983   C     0.14068   0.43257   0.53437   0.00000  Uiso   1.00
C984   C     0.25442   0.49587   0.50829   0.00000  Uiso   1.00
C985   C     0.18659   0.47522   0.96676   0.00000  Uiso   1.00
C986   C     0.17804   0.46256   0.51288   0.00000  Uiso   1.00
C987   C     0.29827   0.52732   0.60510   0.00000  Uiso   1.00
C988   C     0.05130   0.44229   0.88227   0.00000  Uiso   1.00
C989   C     0.17845   0.37801   0.82690   0.00000  Uiso   1.00
C990   C     0.15610   0.62181   0.67265   0.00000  Uiso   1.00
C991   C     0.23483   0.48768   0.93755   0.00000  Uiso   1.00
C992   C     0.10550   0.42413   0.51438   0.00000  Uiso   1.00
C993   C     0.26866   0.49837   0.95847   0.00000  Uiso   1.00
C994   C     0.17324   0.64461   0.78748   0.00000  Uiso   1.00
C995   C     0.15995   0.35533   0.71265   0.00000  Uiso   1.00
C996   C     0.17322   0.35488   0.78792   0.00000  Uiso   1.00
H997   H     0.07256   0.38140   0.56174   0.00000  Uiso   1.00
H998   H     0.14739   0.36118   0.65395   0.00000  Uiso   1.00
H999   H     0.00341   0.44223   0.66208   0.00000  Uiso   1.00
H1000  H     0.33080   0.56279   0.83447   0.00000  Uiso   1.00
H1001  H     0.05323   0.41801   0.69133   0.00000  Uiso   1.00
H1002  H     0.27978   0.58299   0.80550   0.00000  Uiso   1.00
H1003  H     0.31885   0.51494   0.89766   0.00000  Uiso   1.00
H1004  H     0.12666   0.51419   0.61799   0.00000  Uiso   1.00
H1005  H     0.17815   0.54722   0.92919   0.00000  Uiso   1.00
H1006  H     0.01450   0.42806   0.50801   0.00000  Uiso   1.00
H1007  H     0.02034   0.52100   0.52327   0.00000  Uiso   1.00
H1008  H     0.17368   0.40768   0.57237   0.00000  Uiso   1.00
H1009  H     0.23182   0.46576   0.87918   0.00000  Uiso   1.00
H1010  H     0.18461   0.63868   0.84685   0.00000  Uiso   1.00
N1011  N     0.04759   0.50001   0.75001   0.00000  Uiso   1.00
N1012  N     0.28574   0.49999   0.74999   0.00000  Uiso   1.00
N1013  N     0.32303   0.54043   0.62365   0.00000  Uiso   1.00
N1014  N     0.02816   0.43017   0.86154   0.00000  Uiso   1.00
N1015  N     0.18270   0.39635   0.85798   0.00000  Uiso   1.00
N1016  N     0.15280   0.60324   0.64127   0.00000  Uiso   1.00
O1017  O     0.12846   0.56108   0.75001   0.00000  Uiso   1.00
O1018  O     0.31468   0.51319   0.93130   0.00000  Uiso   1.00
O1019  O     0.13789   0.48513   0.60793   0.00000  Uiso   1.00
O1020  O     0.17274   0.53589   0.90122   0.00000  Uiso   1.00
O1021  O     0.02940   0.41807   0.97475   0.00000  Uiso   1.00
O1022  O     0.33298   0.52108   0.50427   0.00000  Uiso   1.00
O1023  O     0.14030   0.40843   0.57200   0.00000  Uiso   1.00
O1024  O     0.25096   0.48689   0.88869   0.00000  Uiso   1.00
O1025  O     0.17825   0.62075   0.82328   0.00000  Uiso   1.00
O1026  O     0.15476   0.37914   0.67691   0.00000  Uiso   1.00
O1027  O     0.30722   0.44811   0.69070   0.00000  Uiso   1.00
O1028  O     0.20488   0.43892   0.75000   0.00000  Uiso   1.00
O1029  O     0.02695   0.55319   0.80774   0.00000  Uiso   1.00
O1030  O     0.06989   0.44341   0.69633   0.00000  Uiso   1.00
O1031  O     0.26329   0.55641   0.80381   0.00000  Uiso   1.00
O1032  O     0.20490   0.56107   0.75000   0.00000  Uiso   1.00
O1033  O     0.12843   0.43893   0.75000   0.00000  Uiso   1.00
O1034  O     0.10661   0.50001   0.81613   0.00000  Uiso   1.00
O1035  O     0.22672   0.49999   0.68388   0.00000  Uiso   1.00
O1036  O     0.18305   0.50000   0.81612   0.00000  Uiso   1.00
O1037  O     0.15028   0.50000   0.68388   0.00000  Uiso   1.00
O1038  O     0.07111   0.39286   0.53224   0.00000  Uiso   1.00
Zn1039 Zn    0.11562   0.50001   0.75000   0.00000  Uiso   1.00
Zn1040 Zn    0.21771   0.49999   0.75000   0.00000  Uiso   1.00
C1041  C     0.50008   0.57985   0.74979   0.00000  Uiso   1.00
C1042  C     0.49362   0.64506   0.71206   0.00000  Uiso   1.00
C1043  C     0.49988   0.37593   0.75049   0.00000  Uiso   1.00
C1044  C     0.50009   0.62404   0.74960   0.00000  Uiso   1.00
C1045  C     0.65354   0.47306   0.72109   0.00000  Uiso   1.00
C1046  C     0.34667   0.52737   0.77843   0.00000  Uiso   1.00
C1047  C     0.36848   0.47222   0.72212   0.00000  Uiso   1.00
C1048  C     0.63154   0.52787   0.77776   0.00000  Uiso   1.00
C1049  C     0.46944   0.49839   0.83840   0.00000  Uiso   1.00
C1050  C     0.53073   0.50081   0.66117   0.00000  Uiso   1.00
C1051  C     0.45114   0.48702   0.88869   0.00000  Uiso   1.00
C1052  C     0.49989   0.42013   0.75028   0.00000  Uiso   1.00
C1053  C     0.55132   0.50023   0.60850   0.00000  Uiso   1.00
C1054  C     0.40480   0.44093   0.95327   0.00000  Uiso   1.00
C1055  C     0.61887   0.50927   0.53148   0.00000  Uiso   1.00
C1056  C     0.41361   0.45734   0.90821   0.00000  Uiso   1.00
C1057  C     0.60068   0.51092   0.58172   0.00000  Uiso   1.00
C1058  C     0.47914   0.49948   0.91436   0.00000  Uiso   1.00
C1059  C     0.52118   0.48730   0.58460   0.00000  Uiso   1.00
C1060  C     0.48028   0.47389   0.95144   0.00000  Uiso   1.00
C1061  C     0.54082   0.48005   0.53559   0.00000  Uiso   1.00
C1062  C     0.44028   0.44667   0.97402   0.00000  Uiso   1.00
C1063  C     0.47401   0.43257   0.53437   0.00000  Uiso   1.00
C1064  C     0.58776   0.49587   0.50829   0.00000  Uiso   1.00
C1065  C     0.51993   0.47522   0.96676   0.00000  Uiso   1.00
C1066  C     0.51137   0.46256   0.51288   0.00000  Uiso   1.00
C1067  C     0.63160   0.52732   0.60510   0.00000  Uiso   1.00
C1068  C     0.38463   0.44229   0.88227   0.00000  Uiso   1.00
C1069  C     0.51178   0.37801   0.82690   0.00000  Uiso   1.00
C1070  C     0.48943   0.62181   0.67265   0.00000  Uiso   1.00
C1071  C     0.56816   0.48768   0.93755   0.00000  Uiso   1.00
C1072  C     0.43883   0.42413   0.51438   0.00000  Uiso   1.00
C1073  C     0.60199   0.49837   0.95847   0.00000  Uiso   1.00
C1074  C     0.50657   0.64461   0.78748   0.00000  Uiso   1.00
C1075  C     0.49328   0.35533   0.71265   0.00000  Uiso   1.00
C1076  C     0.50655   0.35488   0.78792   0.00000  Uiso   1.00
H1077  H     0.40589   0.38140   0.56174   0.00000  Uiso   1.00
H1078  H     0.48073   0.36118   0.65395   0.00000  Uiso   1.00
H1079  H     0.33674   0.44223   0.66208   0.00000  Uiso   1.00
H1080  H     0.66413   0.56279   0.83447   0.00000  Uiso   1.00
H1081  H     0.38657   0.41801   0.69133   0.00000  Uiso   1.00
H1082  H     0.61311   0.58299   0.80550   0.00000  Uiso   1.00
H1083  H     0.65218   0.51494   0.89766   0.00000  Uiso   1.00
H1084  H     0.46000   0.51419   0.61799   0.00000  Uiso   1.00
H1085  H     0.51149   0.54722   0.92919   0.00000  Uiso   1.00
H1086  H     0.34783   0.42806   0.50801   0.00000  Uiso   1.00
H1087  H     0.35368   0.52100   0.52327   0.00000  Uiso   1.00
H1088  H     0.50702   0.40768   0.57237   0.00000  Uiso   1.00
H1089  H     0.56515   0.46576   0.87918   0.00000  Uiso   1.00
H1090  H     0.51794   0.63868   0.84685   0.00000  Uiso   1.00
N1091  N     0.38093   0.50001   0.75001   0.00000  Uiso   1.00
N1092  N     0.61907   0.49999   0.74999   0.00000  Uiso   1.00
N1093  N     0.65637   0.54043   0.62365   0.00000  Uiso   1.00
N1094  N     0.36149   0.43017   0.86154   0.00000  Uiso   1.00
N1095  N     0.51603   0.39635   0.85798   0.00000  Uiso   1.00
N1096  N     0.48613   0.60324   0.64127   0.00000  Uiso   1.00
O1097  O     0.46179   0.56108   0.75001   0.00000  Uiso   1.00
O1098  O     0.64801   0.51319   0.93130   0.00000  Uiso   1.00
O1099  O     0.47122   0.48513   0.60793   0.00000  Uiso   1.00
O1100  O     0.50608   0.53589   0.90122   0.00000  Uiso   1.00
O1101  O     0.36274   0.41807   0.97475   0.00000  Uiso   1.00
O1102  O     0.66631   0.52108   0.50427   0.00000  Uiso   1.00
O1103  O     0.47364   0.40843   0.57200   0.00000  Uiso   1.00
O1104  O     0.58429   0.48689   0.88869   0.00000  Uiso   1.00
O1105  O     0.51158   0.62075   0.82328   0.00000  Uiso   1.00
O1106  O     0.48809   0.37914   0.67691   0.00000  Uiso   1.00
O1107  O     0.64056   0.44811   0.69070   0.00000  Uiso   1.00
O1108  O     0.53821   0.43892   0.75000   0.00000  Uiso   1.00
O1109  O     0.36028   0.55319   0.80774   0.00000  Uiso   1.00
O1110  O     0.40323   0.44341   0.69633   0.00000  Uiso   1.00
O1111  O     0.59663   0.55641   0.80381   0.00000  Uiso   1.00
O1112  O     0.53823   0.56107   0.75000   0.00000  Uiso   1.00
O1113  O     0.46177   0.43893   0.75000   0.00000  Uiso   1.00
O1114  O     0.43994   0.50001   0.81613   0.00000  Uiso   1.00
O1115  O     0.56006   0.49999   0.68388   0.00000  Uiso   1.00
O1116  O     0.51639   0.50000   0.81612   0.00000  Uiso   1.00
O1117  O     0.48361   0.50000   0.68388   0.00000  Uiso   1.00
O1118  O     0.40445   0.39286   0.53224   0.00000  Uiso   1.00
Zn1119 Zn    0.44896   0.50001   0.75000   0.00000  Uiso   1.00
Zn1120 Zn    0.55104   0.49999   0.75000   0.00000  Uiso   1.00
C1121  C     0.83341   0.57985   0.74979   0.00000  Uiso   1.00
C1122  C     0.82696   0.64506   0.71206   0.00000  Uiso   1.00
C1123  C     0.83321   0.37593   0.75049   0.00000  Uiso   1.00
C1124  C     0.83342   0.62404   0.74960   0.00000  Uiso   1.00
C1125  C     0.98687   0.47306   0.72109   0.00000  Uiso   1.00
C1126  C     0.68001   0.52737   0.77843   0.00000  Uiso   1.00
C1127  C     0.70182   0.47222   0.72212   0.00000  Uiso   1.00
C1128  C     0.96487   0.52787   0.77776   0.00000  Uiso   1.00
C1129  C     0.80278   0.49839   0.83840   0.00000  Uiso   1.00
C1130  C     0.86406   0.50081   0.66117   0.00000  Uiso   1.00
C1131  C     0.78447   0.48702   0.88869   0.00000  Uiso   1.00
C1132  C     0.83323   0.42013   0.75028   0.00000  Uiso   1.00
C1133  C     0.88465   0.50023   0.60850   0.00000  Uiso   1.00
C1134  C     0.73814   0.44093   0.95327   0.00000  Uiso   1.00
C1135  C     0.95220   0.50927   0.53148   0.00000  Uiso   1.00
C1136  C     0.74694   0.45734   0.90821   0.00000  Uiso   1.00
C1137  C     0.93402   0.51092   0.58172   0.00000  Uiso   1.00
C1138  C     0.81247   0.49948   0.91436   0.00000  Uiso   1.00
C1139  C     0.85451   0.48730   0.58460   0.00000  Uiso   1.00
C1140  C     0.81362   0.47389   0.95144   0.00000  Uiso   1.00
C1141  C     0.87415   0.48005   0.53559   0.00000  Uiso   1.00
C1142  C     0.77361   0.44667   0.97402   0.00000  Uiso   1.00
C1143  C     0.80734   0.43257   0.53437   0.00000  Uiso   1.00
C1144  C     0.92109   0.49587   0.50829   0.00000  Uiso   1.00
C1145  C     0.85326   0.47522   0.96676   0.00000  Uiso   1.00
C1146  C     0.84470   0.46256   0.51288   0.00000  Uiso   1.00
C1147  C     0.96493   0.52732   0.60510   0.00000  Uiso   1.00
C1148  C     0.71796   0.44229   0.88227   0.00000  Uiso   1.00
C1149  C     0.84511   0.37801   0.82690   0.00000  Uiso   1.00
C1150  C     0.82277   0.62181   0.67265   0.00000  Uiso   1.00
C1151  C     0.90149   0.48768   0.93755   0.00000  Uiso   1.00
C1152  C     0.77217   0.42413   0.51438   0.00000  Uiso   1.00
C1153  C     0.93532   0.49837   0.95847   0.00000  Uiso   1.00
C1154  C     0.83991   0.64461   0.78748   0.00000  Uiso   1.00
C1155  C     0.82661   0.35533   0.71265   0.00000  Uiso   1.00
C1156  C     0.83988   0.35488   0.78792   0.00000  Uiso   1.00
H1157  H     0.73923   0.38140   0.56174   0.00000  Uiso   1.00
H1158  H     0.81406   0.36118   0.65395   0.00000  Uiso   1.00
H1159  H     0.67007   0.44223   0.66208   0.00000  Uiso   1.00
H1160  H     0.99746   0.56279   0.83447   0.00000  Uiso   1.00
H1161  H     0.71990   0.41801   0.69133   0.00000  Uiso   1.00
H1162  H     0.94645   0.58299   0.80550   0.00000  Uiso   1.00
H1163  H     0.98552   0.51494   0.89766   0.00000  Uiso   1.00
H1164  H     0.79333   0.51419   0.61799   0.00000  Uiso   1.00
H1165  H     0.84482   0.54722   0.92919   0.00000  Uiso   1.00
H1166  H     0.68116   0.42806   0.50801   0.00000  Uiso   1.00
H1167  H     0.68701   0.52100   0.52327   0.00000  Uiso   1.00
H1168  H     0.84035   0.40768   0.57237   0.00000  Uiso   1.00
H1169  H     0.89848   0.46576   0.87918   0.00000  Uiso   1.00
H1170  H     0.85127   0.63868   0.84685   0.00000  Uiso   1.00
N1171  N     0.71426   0.50001   0.75001   0.00000  Uiso   1.00
N1172  N     0.95241   0.49999   0.74999   0.00000  Uiso   1.00
N1173  N     0.98970   0.54043   0.62365   0.00000  Uiso   1.00
N1174  N     0.69482   0.43017   0.86154   0.00000  Uiso   1.00
N1175  N     0.84936   0.39635   0.85798   0.00000  Uiso   1.00
N1176  N     0.81947   0.60324   0.64127   0.00000  Uiso   1.00
O1177  O     0.79512   0.56108   0.75001   0.00000  Uiso   1.00
O1178  O     0.98135   0.51319   0.93130   0.00000  Uiso   1.00
O1179  O     0.80455   0.48513   0.60793   0.00000  Uiso   1.00
O1180  O     0.83941   0.53589   0.90122   0.00000  Uiso   1.00
O1181  O     0.69607   0.41807   0.97475   0.00000  Uiso   1.00
O1182  O     0.99964   0.52108   0.50427   0.00000  Uiso   1.00
O1183  O     0.80697   0.40843   0.57200   0.00000  Uiso   1.00
O1184  O     0.91762   0.48689   0.88869   0.00000  Uiso   1.00
O1185  O     0.84492   0.62075   0.82328   0.00000  Uiso   1.00
O1186  O     0.82142   0.37914   0.67691   0.00000  Uiso   1.00
O1187  O     0.97389   0.44811   0.69070   0.00000  Uiso   1.00
O1188  O     0.87154   0.43892   0.75000   0.00000  Uiso   1.00
O1189  O     0.69361   0.55319   0.80774   0.00000  Uiso   1.00
O1190  O     0.73656   0.44341   0.69633   0.00000  Uiso   1.00
O1191  O     0.92996   0.55641   0.80381   0.00000  Uiso   1.00
O1192  O     0.87157   0.56107   0.75000   0.00000  Uiso   1.00
O1193  O     0.79510   0.43893   0.75000   0.00000  Uiso   1.00
O1194  O     0.77328   0.50001   0.81613   0.00000  Uiso   1.00
O1195  O     0.89339   0.49999   0.68388   0.00000  Uiso   1.00
O1196  O     0.84972   0.50000   0.81612   0.00000  Uiso   1.00
O1197  O     0.81695   0.50000   0.68388   0.00000  Uiso   1.00
O1198  O     0.73778   0.39286   0.53224   0.00000  Uiso   1.00
Zn1199 Zn    0.78229   0.50001   0.75000   0.00000  Uiso   1.00
Zn1200 Zn    0.88438   0.49999   0.75000   0.00000  Uiso   1.00
C1201  C     0.16674   0.91319   0.74979   0.00000  Uiso   1.00
C1202  C     0.16029   0.97840   0.71206   0.00000  Uiso   1.00
C1203  C     0.16654   0.70927   0.75049   0.00000  Uiso   1.00
C1204  C     0.16675   0.95737   0.74960   0.00000  Uiso   1.00
C1205  C     0.32021   0.80640   0.72109   0.00000  Uiso   1.00
C1206  C     0.01334   0.86070   0.77843   0.00000  Uiso   1.00
C1207  C     0.03515   0.80555   0.72212   0.00000  Uiso   1.00
C1208  C     0.29821   0.86121   0.77776   0.00000  Uiso   1.00
C1209  C     0.13611   0.83173   0.83840   0.00000  Uiso   1.00
C1210  C     0.19739   0.83414   0.66117   0.00000  Uiso   1.00
C1211  C     0.11781   0.82035   0.88869   0.00000  Uiso   1.00
C1212  C     0.16656   0.75347   0.75028   0.00000  Uiso   1.00
C1213  C     0.21799   0.83356   0.60850   0.00000  Uiso   1.00
C1214  C     0.07147   0.77427   0.95327   0.00000  Uiso   1.00
C1215  C     0.28554   0.84260   0.53148   0.00000  Uiso   1.00
C1216  C     0.08028   0.79068   0.90821   0.00000  Uiso   1.00
C1217  C     0.26735   0.84425   0.58172   0.00000  Uiso   1.00
C1218  C     0.14581   0.83281   0.91436   0.00000  Uiso   1.00
C1219  C     0.18785   0.82063   0.58460   0.00000  Uiso   1.00
C1220  C     0.14695   0.80722   0.95144   0.00000  Uiso   1.00
C1221  C     0.20749   0.81339   0.53559   0.00000  Uiso   1.00
C1222  C     0.10694   0.78001   0.97402   0.00000  Uiso   1.00
C1223  C     0.14068   0.76591   0.53437   0.00000  Uiso   1.00
C1224  C     0.25442   0.82921   0.50829   0.00000  Uiso   1.00
C1225  C     0.18659   0.80856   0.96676   0.00000  Uiso   1.00
C1226  C     0.17804   0.79590   0.51288   0.00000  Uiso   1.00
C1227  C     0.29827   0.86065   0.60510   0.00000  Uiso   1.00
C1228  C     0.05130   0.77562   0.88227   0.00000  Uiso   1.00
C1229  C     0.17845   0.71134   0.82690   0.00000  Uiso   1.00
C1230  C     0.15610   0.95515   0.67265   0.00000  Uiso   1.00
C1231  C     0.23483   0.82101   0.93755   0.00000  Uiso   1.00
C1232  C     0.10550   0.75746   0.51438   0.00000  Uiso   1.00
C1233  C     0.26866   0.83170   0.95847   0.00000  Uiso   1.00
C1234  C     0.17324   0.97794   0.78748   0.00000  Uiso   1.00
C1235  C     0.15995   0.68867   0.71265   0.00000  Uiso   1.00
C1236  C     0.17322   0.68821   0.78792   0.00000  Uiso   1.00
H1237  H     0.07256   0.71473   0.56174   0.00000  Uiso   1.00
H1238  H     0.14739   0.69452   0.65395   0.00000  Uiso   1.00
H1239  H     0.00341   0.77557   0.66208   0.00000  Uiso   1.00
H1240  H     0.33080   0.89612   0.83447   0.00000  Uiso   1.00
H1241  H     0.05323   0.75134   0.69133   0.00000  Uiso   1.00
H1242  H     0.27978   0.91633   0.80550   0.00000  Uiso   1.00
H1243  H     0.31885   0.84828   0.89766   0.00000  Uiso   1.00
H1244  H     0.12666   0.84752   0.61799   0.00000  Uiso   1.00
H1245  H     0.17815   0.88055   0.92919   0.00000  Uiso   1.00
H1246  H     0.01450   0.76139   0.50801   0.00000  Uiso   1.00
H1247  H     0.02034   0.85434   0.52327   0.00000  Uiso   1.00
H1248  H     0.17368   0.74102   0.57237   0.00000  Uiso   1.00
H1249  H     0.23182   0.79909   0.87918   0.00000  Uiso   1.00
H1250  H     0.18461   0.97202   0.84685   0.00000  Uiso   1.00
N1251  N     0.04759   0.83334   0.75001   0.00000  Uiso   1.00
N1252  N     0.28574   0.83332   0.74999   0.00000  Uiso   1.00
N1253  N     0.32303   0.87376   0.62365   0.00000  Uiso   1.00
N1254  N     0.02816   0.76350   0.86154   0.00000  Uiso   1.00
N1255  N     0.18270   0.72968   0.85798   0.00000  Uiso   1.00
N1256  N     0.15280   0.93657   0.64127   0.00000  Uiso   1.00
O1257  O     0.12846   0.89442   0.75001   0.00000  Uiso   1.00
O1258  O     0.31468   0.84652   0.93130   0.00000  Uiso   1.00
O1259  O     0.13789   0.81846   0.60793   0.00000  Uiso   1.00
O1260  O     0.17274   0.86922   0.90122   0.00000  Uiso   1.00
O1261  O     0.02940   0.75140   0.97475   0.00000  Uiso   1.00
O1262  O     0.33298   0.85441   0.50427   0.00000  Uiso   1.00
O1263  O     0.14030   0.74176   0.57200   0.00000  Uiso   1.00
O1264  O     0.25096   0.82022   0.88869   0.00000  Uiso   1.00
O1265  O     0.17825   0.95408   0.82328   0.00000  Uiso   1.00
O1266  O     0.15476   0.71248   0.67691   0.00000  Uiso   1.00
O1267  O     0.30722   0.78144   0.69070   0.00000  Uiso   1.00
O1268  O     0.20488   0.77225   0.75000   0.00000  Uiso   1.00
O1269  O     0.02695   0.88652   0.80774   0.00000  Uiso   1.00
O1270  O     0.06989   0.77675   0.69633   0.00000  Uiso   1.00
O1271  O     0.26329   0.88974   0.80381   0.00000  Uiso   1.00
O1272  O     0.20490   0.89441   0.75000   0.00000  Uiso   1.00
O1273  O     0.12843   0.77226   0.75000   0.00000  Uiso   1.00
O1274  O     0.10661   0.83334   0.81613   0.00000  Uiso   1.00
O1275  O     0.22672   0.83333   0.68388   0.00000  Uiso   1.00
O1276  O     0.18305   0.83333   0.81612   0.00000  Uiso   1.00
O1277  O     0.15028   0.83334   0.68388   0.00000  Uiso   1.00
O1278  O     0.07111   0.72620   0.53224   0.00000  Uiso   1.00
Zn1279 Zn    0.11562   0.83334   0.75000   0.00000  Uiso   1.00
Zn1280 Zn    0.21771   0.83333   0.75000   0.00000  Uiso   1.00
C1281  C     0.50008   0.91319   0.74979   0.00000  Uiso   1.00
C1282  C     0.49362   0.97840   0.71206   0.00000  Uiso   1.00
C1283  C     0.49988   0.70927   0.75049   0.00000  Uiso   1.00
C1284  C     0.50009   0.95737   0.74960   0.00000  Uiso   1.00
C1285  C     0.65354   0.80640   0.72109   0.00000  Uiso   1.00
C1286  C     0.34667   0.86070   0.77843   0.00000  Uiso   1.00
C1287  C     0.36848   0.80555   0.72212   0.00000  Uiso   1.00
C1288  C     0.63154   0.86121   0.77776   0.00000  Uiso   1.00
C1289  C     0.46944   0.83173   0.83840   0.00000  Uiso   1.00
C1290  C     0.53073   0.83414   0.66117   0.00000  Uiso   1.00
C1291  C     0.45114   0.82035   0.88869   0.00000  Uiso   1.00
C1292  C     0.49989   0.75347   0.75028   0.00000  Uiso   1.00
C1293  C     0.55132   0.83356   0.60850   0.00000  Uiso   1.00
C1294  C     0.40480   0.77427   0.95327   0.00000  Uiso   1.00
C1295  C     0.61887   0.84260   0.53148   0.00000  Uiso   1.00
C1296  C     0.41361   0.79068   0.90821   0.00000  Uiso   1.00
C1297  C     0.60068   0.84425   0.58172   0.00000  Uiso   1.00
C1298  C     0.47914   0.83281   0.91436   0.00000  Uiso   1.00
C1299  C     0.52118   0.82063   0.58460   0.00000  Uiso   1.00
C1300  C     0.48028   0.80722   0.95144   0.00000  Uiso   1.00
C1301  C     0.54082   0.81339   0.53559   0.00000  Uiso   1.00
C1302  C     0.44028   0.78001   0.97402   0.00000  Uiso   1.00
C1303  C     0.47401   0.76591   0.53437   0.00000  Uiso   1.00
C1304  C     0.58776   0.82921   0.50829   0.00000  Uiso   1.00
C1305  C     0.51993   0.80856   0.96676   0.00000  Uiso   1.00
C1306  C     0.51137   0.79590   0.51288   0.00000  Uiso   1.00
C1307  C     0.63160   0.86065   0.60510   0.00000  Uiso   1.00
C1308  C     0.38463   0.77562   0.88227   0.00000  Uiso   1.00
C1309  C     0.51178   0.71134   0.82690   0.00000  Uiso   1.00
C1310  C     0.48943   0.95515   0.67265   0.00000  Uiso   1.00
C1311  C     0.56816   0.82101   0.93755   0.00000  Uiso   1.00
C1312  C     0.43883   0.75746   0.51438   0.00000  Uiso   1.00
C1313  C     0.60199   0.83170   0.95847   0.00000  Uiso   1.00
C1314  C     0.50657   0.97794   0.78748   0.00000  Uiso   1.00
C1315  C     0.49328   0.68867   0.71265   0.00000  Uiso   1.00
C1316  C     0.50655   0.68821   0.78792   0.00000  Uiso   1.00
H1317  H     0.40589   0.71473   0.56174   0.00000  Uiso   1.00
H1318  H     0.48073   0.69452   0.65395   0.00000  Uiso   1.00
H1319  H     0.33674   0.77557   0.66208   0.00000  Uiso   1.00
H1320  H     0.66413   0.89612   0.83447   0.00000  Uiso   1.00
H1321  H     0.38657   0.75134   0.69133   0.00000  Uiso   1.00
H1322  H     0.61311   0.91633   0.80550   0.00000  Uiso   1.00
H1323  H     0.65218   0.84828   0.89766   0.00000  Uiso   1.00
H1324  H     0.46000   0.84752   0.61799   0.00000  Uiso   1.00
H1325  H     0.51149   0.88055   0.92919   0.00000  Uiso   1.00
H1326  H     0.34783   0.76139   0.50801   0.00000  Uiso   1.00
H1327  H     0.35368   0.85434   0.52327   0.00000  Uiso   1.00
H1328  H     0.50702   0.74102   0.57237   0.00000  Uiso   1.00
H1329  H     0.56515   0.79909   0.87918   0.00000  Uiso   1.00
H1330  H     0.51794   0.97202   0.84685   0.00000  Uiso   1.00
N1331  N     0.38093   0.83334   0.75001   0.00000  Uiso   1.00
N1332  N     0.61907   0.83332   0.74999   0.00000  Uiso   1.00
N1333  N     0.65637   0.87376   0.62365   0.00000  Uiso   1.00
N1334  N     0.36149   0.76350   0.86154   0.00000  Uiso   1.00
N1335  N     0.51603   0.72968   0.85798   0.00000  Uiso   1.00
N1336  N     0.48613   0.93657   0.64127   0.00000  Uiso   1.00
O1337  O     0.46179   0.89442   0.75001   0.00000  Uiso   1.00
O1338  O     0.64801   0.84652   0.93130   0.00000  Uiso   1.00
O1339  O     0.47122   0.81846   0.60793   0.00000  Uiso   1.00
O1340  O     0.50608   0.86922   0.90122   0.00000  Uiso   1.00
O1341  O     0.36274   0.75140   0.97475   0.00000  Uiso   1.00
O1342  O     0.66631   0.85441   0.50427   0.00000  Uiso   1.00
O1343  O     0.47364   0.74176   0.57200   0.00000  Uiso   1.00
O1344  O     0.58429   0.82022   0.88869   0.00000  Uiso   1.00
O1345  O     0.51158   0.95408   0.82328   0.00000  Uiso   1.00
O1346  O     0.48809   0.71248   0.67691   0.00000  Uiso   1.00
O1347  O     0.64056   0.78144   0.69070   0.00000  Uiso   1.00
O1348  O     0.53821   0.77225   0.75000   0.00000  Uiso   1.00
O1349  O     0.36028   0.88652   0.80774   0.00000  Uiso   1.00
O1350  O     0.40323   0.77675   0.69633   0.00000  Uiso   1.00
O1351  O     0.59663   0.88974   0.80381   0.00000  Uiso   1.00
O1352  O     0.53823   0.89441   0.75000   0.00000  Uiso   1.00
O1353  O     0.46177   0.77226   0.75000   0.00000  Uiso   1.00
O1354  O     0.43994   0.83334   0.81613   0.00000  Uiso   1.00
O1355  O     0.56006   0.83333   0.68388   0.00000  Uiso   1.00
O1356  O     0.51639   0.83333   0.81612   0.00000  Uiso   1.00
O1357  O     0.48361   0.83334   0.68388   0.00000  Uiso   1.00
O1358  O     0.40445   0.72620   0.53224   0.00000  Uiso   1.00
Zn1359 Zn    0.44896   0.83334   0.75000   0.00000  Uiso   1.00
Zn1360 Zn    0.55104   0.83333   0.75000   0.00000  Uiso   1.00
C1361  C     0.83341   0.91319   0.74979   0.00000  Uiso   1.00
C1362  C     0.82696   0.97840   0.71206   0.00000  Uiso   1.00
C1363  C     0.83321   0.70927   0.75049   0.00000  Uiso   1.00
C1364  C     0.83342   0.95737   0.74960   0.00000  Uiso   1.00
C1365  C     0.98687   0.80640   0.72109   0.00000  Uiso   1.00
C1366  C     0.68001   0.86070   0.77843   0.00000  Uiso   1.00
C1367  C     0.70182   0.80555   0.72212   0.00000  Uiso   1.00
C1368  C     0.96487   0.86121   0.77776   0.00000  Uiso   1.00
C1369  C     0.80278   0.83173   0.83840   0.00000  Uiso   1.00
C1370  C     0.86406   0.83414   0.66117   0.00000  Uiso   1.00
C1371  C     0.78447   0.82035   0.88869   0.00000  Uiso   1.00
C1372  C     0.83323   0.75347   0.75028   0.00000  Uiso   1.00
C1373  C     0.88465   0.83356   0.60850   0.00000  Uiso   1.00
C1374  C     0.73814   0.77427   0.95327   0.00000  Uiso   1.00
C1375  C     0.95220   0.84260   0.53148   0.00000  Uiso   1.00
C1376  C     0.74694   0.79068   0.90821   0.00000  Uiso   1.00
C1377  C     0.93402   0.84425   0.58172   0.00000  Uiso   1.00
C1378  C     0.81247   0.83281   0.91436   0.00000  Uiso   1.00
C1379  C     0.85451   0.82063   0.58460   0.00000  Uiso   1.00
C1380  C     0.81362   0.80722   0.95144   0.00000  Uiso   1.00
C1381  C     0.87415   0.81339   0.53559   0.00000  Uiso   1.00
C1382  C     0.77361   0.78001   0.97402   0.00000  Uiso   1.00
C1383  C     0.80734   0.76591   0.53437   0.00000  Uiso   1.00
C1384  C     0.92109   0.82921   0.50829   0.00000  Uiso   1.00
C1385  C     0.85326   0.80856   0.96676   0.00000  Uiso   1.00
C1386  C     0.84470   0.79590   0.51288   0.00000  Uiso   1.00
C1387  C     0.96493   0.86065   0.60510   0.00000  Uiso   1.00
C1388  C     0.71796   0.77562   0.88227   0.00000  Uiso   1.00
C1389  C     0.84511   0.71134   0.82690   0.00000  Uiso   1.00
C1390  C     0.82277   0.95515   0.67265   0.00000  Uiso   1.00
C1391  C     0.90149   0.82101   0.93755   0.00000  Uiso   1.00
C1392  C     0.77217   0.75746   0.51438   0.00000  Uiso   1.00
C1393  C     0.93532   0.83170   0.95847   0.00000  Uiso   1.00
C1394  C     0.83991   0.97794   0.78748   0.00000  Uiso   1.00
C1395  C     0.82661   0.68867   0.71265   0.00000  Uiso   1.00
C1396  C     0.83988   0.68821   0.78792   0.00000  Uiso   1.00
H1397  H     0.73923   0.71473   0.56174   0.00000  Uiso   1.00
H1398  H     0.81406   0.69452   0.65395   0.00000  Uiso   1.00
H1399  H     0.67007   0.77557   0.66208   0.00000  Uiso   1.00
H1400  H     0.99746   0.89612   0.83447   0.00000  Uiso   1.00
H1401  H     0.71990   0.75134   0.69133   0.00000  Uiso   1.00
H1402  H     0.94645   0.91633   0.80550   0.00000  Uiso   1.00
H1403  H     0.98552   0.84828   0.89766   0.00000  Uiso   1.00
H1404  H     0.79333   0.84752   0.61799   0.00000  Uiso   1.00
H1405  H     0.84482   0.88055   0.92919   0.00000  Uiso   1.00
H1406  H     0.68116   0.76139   0.50801   0.00000  Uiso   1.00
H1407  H     0.68701   0.85434   0.52327   0.00000  Uiso   1.00
H1408  H     0.84035   0.74102   0.57237   0.00000  Uiso   1.00
H1409  H     0.89848   0.79909   0.87918   0.00000  Uiso   1.00
H1410  H     0.85127   0.97202   0.84685   0.00000  Uiso   1.00
N1411  N     0.71426   0.83334   0.75001   0.00000  Uiso   1.00
N1412  N     0.95241   0.83332   0.74999   0.00000  Uiso   1.00
N1413  N     0.98970   0.87376   0.62365   0.00000  Uiso   1.00
N1414  N     0.69482   0.76350   0.86154   0.00000  Uiso   1.00
N1415  N     0.84936   0.72968   0.85798   0.00000  Uiso   1.00
N1416  N     0.81947   0.93657   0.64127   0.00000  Uiso   1.00
O1417  O     0.79512   0.89442   0.75001   0.00000  Uiso   1.00
O1418  O     0.98135   0.84652   0.93130   0.00000  Uiso   1.00
O1419  O     0.80455   0.81846   0.60793   0.00000  Uiso   1.00
O1420  O     0.83941   0.86922   0.90122   0.00000  Uiso   1.00
O1421  O     0.69607   0.75140   0.97475   0.00000  Uiso   1.00
O1422  O     0.99964   0.85441   0.50427   0.00000  Uiso   1.00
O1423  O     0.80697   0.74176   0.57200   0.00000  Uiso   1.00
O1424  O     0.91762   0.82022   0.88869   0.00000  Uiso   1.00
O1425  O     0.84492   0.95408   0.82328   0.00000  Uiso   1.00
O1426  O     0.82142   0.71248   0.67691   0.00000  Uiso   1.00
O1427  O     0.97389   0.78144   0.69070   0.00000  Uiso   1.00
O1428  O     0.87154   0.77225   0.75000   0.00000  Uiso   1.00
O1429  O     0.69361   0.88652   0.80774   0.00000  Uiso   1.00
O1430  O     0.73656   0.77675   0.69633   0.00000  Uiso   1.00
O1431  O     0.92996   0.88974   0.80381   0.00000  Uiso   1.00
O1432  O     0.87157   0.89441   0.75000   0.00000  Uiso   1.00
O1433  O     0.79510   0.77226   0.75000   0.00000  Uiso   1.00
O1434  O     0.77328   0.83334   0.81613   0.00000  Uiso   1.00
O1435  O     0.89339   0.83333   0.68388   0.00000  Uiso   1.00
O1436  O     0.84972   0.83333   0.81612   0.00000  Uiso   1.00
O1437  O     0.81695   0.83334   0.68388   0.00000  Uiso   1.00
O1438  O     0.73778   0.72620   0.53224   0.00000  Uiso   1.00
Zn1439 Zn    0.78229   0.83334   0.75000   0.00000  Uiso   1.00
Zn1440 Zn    0.88438   0.83333   0.75000   0.00000  Uiso   1.00
loop_
_geom_bond_atom_site_label_1
_geom_bond_atom_site_label_2
_geom_bond_distance
_geom_bond_site_symmetry_2
_ccdc_geom_bond_type
C1     O72     1.279   .     A
C1     O57     1.278   .     A
C1     C4      1.412   .     S
C2     C4      1.405   .     A
C2     C30     1.453   .     S
C2     C275    1.393   .     S
C3     C12     1.412   .     S
C3     C35     1.400   .     A
C3     C36     1.405   .     A
C4     C34     1.400   .     A
C5     O67     1.378   .     S
C5     N52     1.365   .     A
C5     C87     1.439   .     S
C6     O69     1.379   .     S
C6     N51     1.366   .     A
C6     C168    1.440   1_455 S
C7     O70     1.378   .     S
C7     N51     1.368   .     A
C7     C165    1.439   1_455 S
C8     N52     1.368   .     A
C8     O71     1.377   .     S
C8     C86     1.440   .     S
C9     O76     1.295   .     A
C9     C11     1.469   .     S
C9     O74     1.293   .     A
C10    O75     1.298   .     A
C10    O77     1.300   .     A
C10    C13     1.487   .     S
C11    C18     1.393   .     A
C11    C16     1.412   .     A
C12    O68     1.279   .     A
C12    O73     1.279   .     A
C13    C19     1.407   .     A
C13    C17     1.420   .     A
C14    O61     1.378   .     S
C14    C16     1.404   .     A
C14    C22     1.425   .     A
C15    C24     1.419   .     A
C15    C17     1.420   .     A
C15    O62     1.386   .     S
C16    C28     1.448   .     S
C17    C27     1.450   .     S
C18    C20     1.411   .     A
C18    O60     1.383   .     S
C19    C21     1.401   .     A
C19    O59     1.378   .     S
C20    C25     1.416   .     A
C20    C22     1.422   .     A
C21    C26     1.414   .     A
C21    C24     1.416   .     A
C22    C752    1.417   .     S
C23    C26     1.424   .     A
C23    O63     1.384   .     S
C23    C32     1.414   .     A
C24    C753    1.418   1_554 S
C25    C31     1.424   .     A
C25    C746    1.395   .     S
C26    C745    1.395   1_554 S
C27    N53     1.158   .     T
C28    N54     1.158   .     T
C29    C36     1.452   .     S
C29    N55     1.157   .     T
C30    N56     1.157   .     T
C31    C33     1.415   .     A
C31    O64     1.382   .     S
C32    O78     1.385   .     S
C32    C742    1.417   1_554 S
C33    O58     1.384   .     S
C33    C744    1.418   .     S
C34    O65     1.388   .     S
C34    C276    1.393   .     S
C35    O66     1.388   .     S
C35    C482    1.393   1_545 S
C36    C514    1.393   1_545 S
H37    O78     0.989   .     S
H38    O66     0.988   .     S
H39    O227    0.990   1_455 S
H40    O149    0.988   .     S
H41    O70     0.990   .     S
H42    O71     0.990   .     S
H43    O58     0.988   .     S
H44    O59     0.992   .     S
H45    O60     0.991   .     S
H46    O781    0.991   1_554 S
H47    O222    0.988   1_455 S
H48    O63     0.991   .     S
H49    O64     0.990   .     S
H50    O65     0.988   .     S
N51    Zn79    2.010   .     S
N52    Zn80    2.010   .     S
O57    Zn79    1.988   .     S
O61    H766    0.991   .     S
O62    H127    0.988   .     S
O67    H119    0.990   .     S
O68    Zn80    1.988   .     S
O69    H200    0.988   1_455 S
O72    Zn80    1.987   .     S
O73    Zn79    1.987   .     S
O74    Zn79    1.931   .     S
O75    Zn80    1.931   .     S
O76    Zn80    1.885   .     S
O77    Zn79    1.885   .     S
C81    O152    1.279   .     A
C81    O137    1.278   .     A
C81    C84     1.412   .     S
C82    C84     1.405   .     A
C82    C110    1.453   .     S
C82    C355    1.393   .     S
C83    C92     1.412   .     S
C83    C115    1.400   .     A
C83    C116    1.405   .     A
C84    C114    1.400   .     A
C85    O147    1.378   .     S
C85    N132    1.365   .     A
C85    C167    1.439   .     S
C86    O149    1.379   .     S
C86    N131    1.366   .     A
C87    O150    1.378   .     S
C87    N131    1.368   .     A
C88    N132    1.368   .     A
C88    O151    1.377   .     S
C88    C166    1.440   .     S
C89    O156    1.295   .     A
C89    C91     1.469   .     S
C89    O154    1.293   .     A
C90    O155    1.298   .     A
C90    O157    1.300   .     A
C90    C93     1.487   .     S
C91    C98     1.393   .     A
C91    C96     1.412   .     A
C92    O148    1.279   .     A
C92    O153    1.279   .     A
C93    C99     1.407   .     A
C93    C97     1.420   .     A
C94    O141    1.378   .     S
C94    C96     1.404   .     A
C94    C102    1.425   .     A
C95    C104    1.419   .     A
C95    C97     1.420   .     A
C95    O142    1.386   .     S
C96    C108    1.448   .     S
C97    C107    1.450   .     S
C98    C100    1.411   .     A
C98    O140    1.383   .     S
C99    C101    1.401   .     A
C99    O139    1.378   .     S
C100   C105    1.416   .     A
C100   C102    1.422   .     A
C101   C106    1.414   .     A
C101   C104    1.416   .     A
C102   C832    1.417   .     S
C103   C106    1.424   .     A
C103   O143    1.384   .     S
C103   C112    1.414   .     A
C104   C833    1.418   1_554 S
C105   C111    1.424   .     A
C105   C826    1.395   .     S
C106   C825    1.395   1_554 S
C107   N133    1.158   .     T
C108   N134    1.158   .     T
C109   C116    1.452   .     S
C109   N135    1.157   .     T
C110   N136    1.157   .     T
C111   C113    1.415   .     A
C111   O144    1.382   .     S
C112   O158    1.385   .     S
C112   C822    1.417   1_554 S
C113   O138    1.384   .     S
C113   C824    1.418   .     S
C114   O145    1.388   .     S
C114   C356    1.393   .     S
C115   O146    1.388   .     S
C115   C562    1.393   1_545 S
C116   C594    1.393   1_545 S
H117   O158    0.989   .     S
H118   O146    0.988   .     S
H120   O229    0.988   .     S
H121   O150    0.990   .     S
H122   O151    0.990   .     S
H123   O138    0.988   .     S
H124   O139    0.992   .     S
H125   O140    0.991   .     S
H126   O861    0.991   1_554 S
H128   O143    0.991   .     S
H129   O144    0.990   .     S
H130   O145    0.988   .     S
N131   Zn159   2.010   .     S
N132   Zn160   2.010   .     S
O137   Zn159   1.988   .     S
O141   H846    0.991   .     S
O142   H207    0.988   .     S
O147   H199    0.990   .     S
O148   Zn160   1.988   .     S
O152   Zn160   1.987   .     S
O153   Zn159   1.987   .     S
O154   Zn159   1.931   .     S
O155   Zn160   1.931   .     S
O156   Zn160   1.885   .     S
O157   Zn159   1.885   .     S
C161   O232    1.279   .     A
C161   O217    1.278   .     A
C161   C164    1.412   .     S
C162   C164    1.405   .     A
C162   C190    1.453   .     S
C162   C435    1.393   .     S
C163   C172    1.412   .     S
C163   C195    1.400   .     A
C163   C196    1.405   .     A
C164   C194    1.400   .     A
C165   O227    1.378   .     S
C165   N212    1.365   .     A
C165   C7      1.439   1_655 S
C166   O229    1.379   .     S
C166   N211    1.366   .     A
C167   O230    1.378   .     S
C167   N211    1.368   .     A
C168   N212    1.368   .     A
C168   O231    1.377   .     S
C168   C6      1.440   1_655 S
C169   O236    1.295   .     A
C169   C171    1.469   .     S
C169   O234    1.293   .     A
C170   O235    1.298   .     A
C170   O237    1.300   .     A
C170   C173    1.487   .     S
C171   C178    1.393   .     A
C171   C176    1.412   .     A
C172   O228    1.279   .     A
C172   O233    1.279   .     A
C173   C179    1.407   .     A
C173   C177    1.420   .     A
C174   O221    1.378   .     S
C174   C176    1.404   .     A
C174   C182    1.425   .     A
C175   C184    1.419   .     A
C175   C177    1.420   .     A
C175   O222    1.386   .     S
C176   C188    1.448   .     S
C177   C187    1.450   .     S
C178   C180    1.411   .     A
C178   O220    1.383   .     S
C179   C181    1.401   .     A
C179   O219    1.378   .     S
C180   C185    1.416   .     A
C180   C182    1.422   .     A
C181   C186    1.414   .     A
C181   C184    1.416   .     A
C182   C912    1.417   .     S
C183   C186    1.424   .     A
C183   O223    1.384   .     S
C183   C192    1.414   .     A
C184   C913    1.418   1_554 S
C185   C191    1.424   .     A
C185   C906    1.395   .     S
C186   C905    1.395   1_554 S
C187   N213    1.158   .     T
C188   N214    1.158   .     T
C189   C196    1.452   .     S
C189   N215    1.157   .     T
C190   N216    1.157   .     T
C191   C193    1.415   .     A
C191   O224    1.382   .     S
C192   O238    1.385   .     S
C192   C902    1.417   1_554 S
C193   O218    1.384   .     S
C193   C904    1.418   .     S
C194   O225    1.388   .     S
C194   C436    1.393   .     S
C195   O226    1.388   .     S
C195   C642    1.393   1_545 S
C196   C674    1.393   1_545 S
H197   O238    0.989   .     S
H198   O226    0.988   .     S
H200   O69     0.988   1_655 S
H201   O230    0.990   .     S
H202   O231    0.990   .     S
H203   O218    0.988   .     S
H204   O219    0.992   .     S
H205   O220    0.991   .     S
H206   O941    0.991   1_554 S
H208   O223    0.991   .     S
H209   O224    0.990   .     S
H210   O225    0.988   .     S
N211   Zn239   2.010   .     S
N212   Zn240   2.010   .     S
O217   Zn239   1.988   .     S
O221   H926    0.991   .     S
O222   H47     0.988   1_655 S
O227   H39     0.990   1_655 S
O228   Zn240   1.988   .     S
O232   Zn240   1.987   .     S
O233   Zn239   1.987   .     S
O234   Zn239   1.931   .     S
O235   Zn240   1.931   .     S
O236   Zn240   1.885   .     S
O237   Zn239   1.885   .     S
C241   O312    1.279   .     A
C241   O297    1.278   .     A
C241   C244    1.412   .     S
C242   C244    1.405   .     A
C242   C270    1.453   .     S
C242   C515    1.393   .     S
C243   C252    1.412   .     S
C243   C275    1.400   .     A
C243   C276    1.405   .     A
C244   C274    1.400   .     A
C245   O307    1.378   .     S
C245   N292    1.365   .     A
C245   C327    1.439   .     S
C246   O309    1.379   .     S
C246   N291    1.366   .     A
C246   C408    1.440   1_455 S
C247   O310    1.378   .     S
C247   N291    1.368   .     A
C247   C405    1.439   1_455 S
C248   N292    1.368   .     A
C248   O311    1.377   .     S
C248   C326    1.440   .     S
C249   O316    1.295   .     A
C249   C251    1.469   .     S
C249   O314    1.293   .     A
C250   O315    1.298   .     A
C250   O317    1.300   .     A
C250   C253    1.487   .     S
C251   C258    1.393   .     A
C251   C256    1.412   .     A
C252   O308    1.279   .     A
C252   O313    1.279   .     A
C253   C259    1.407   .     A
C253   C257    1.420   .     A
C254   O301    1.378   .     S
C254   C256    1.404   .     A
C254   C262    1.425   .     A
C255   C264    1.419   .     A
C255   C257    1.420   .     A
C255   O302    1.386   .     S
C256   C268    1.448   .     S
C257   C267    1.450   .     S
C258   C260    1.411   .     A
C258   O300    1.383   .     S
C259   C261    1.401   .     A
C259   O299    1.378   .     S
C260   C265    1.416   .     A
C260   C262    1.422   .     A
C261   C266    1.414   .     A
C261   C264    1.416   .     A
C262   C992    1.417   .     S
C263   C266    1.424   .     A
C263   O303    1.384   .     S
C263   C272    1.414   .     A
C264   C993    1.418   1_554 S
C265   C271    1.424   .     A
C265   C986    1.395   .     S
C266   C985    1.395   1_554 S
C267   N293    1.158   .     T
C268   N294    1.158   .     T
C269   C276    1.452   .     S
C269   N295    1.157   .     T
C270   N296    1.157   .     T
C271   C273    1.415   .     A
C271   O304    1.382   .     S
C272   O318    1.385   .     S
C272   C982    1.417   1_554 S
C273   O298    1.384   .     S
C273   C984    1.418   .     S
C274   O305    1.388   .     S
C274   C516    1.393   .     S
C275   O306    1.388   .     S
H277   O318    0.989   .     S
H278   O306    0.988   .     S
H279   O467    0.990   1_455 S
H280   O389    0.988   .     S
H281   O310    0.990   .     S
H282   O311    0.990   .     S
H283   O298    0.988   .     S
H284   O299    0.992   .     S
H285   O300    0.991   .     S
H286   O1021   0.991   1_554 S
H287   O462    0.988   1_455 S
H288   O303    0.991   .     S
H289   O304    0.990   .     S
H290   O305    0.988   .     S
N291   Zn319   2.010   .     S
N292   Zn320   2.010   .     S
O297   Zn319   1.988   .     S
O301   H1006   0.991   .     S
O302   H367    0.988   .     S
O307   H359    0.990   .     S
O308   Zn320   1.988   .     S
O309   H440    0.988   1_455 S
O312   Zn320   1.987   .     S
O313   Zn319   1.987   .     S
O314   Zn319   1.931   .     S
O315   Zn320   1.931   .     S
O316   Zn320   1.885   .     S
O317   Zn319   1.885   .     S
C321   O392    1.279   .     A
C321   O377    1.278   .     A
C321   C324    1.412   .     S
C322   C324    1.405   .     A
C322   C350    1.453   .     S
C322   C595    1.393   .     S
C323   C332    1.412   .     S
C323   C355    1.400   .     A
C323   C356    1.405   .     A
C324   C354    1.400   .     A
C325   O387    1.378   .     S
C325   N372    1.365   .     A
C325   C407    1.439   .     S
C326   O389    1.379   .     S
C326   N371    1.366   .     A
C327   O390    1.378   .     S
C327   N371    1.368   .     A
C328   N372    1.368   .     A
C328   O391    1.377   .     S
C328   C406    1.440   .     S
C329   O396    1.295   .     A
C329   C331    1.469   .     S
C329   O394    1.293   .     A
C330   O395    1.298   .     A
C330   O397    1.300   .     A
C330   C333    1.487   .     S
C331   C338    1.393   .     A
C331   C336    1.412   .     A
C332   O388    1.279   .     A
C332   O393    1.279   .     A
C333   C339    1.407   .     A
C333   C337    1.420   .     A
C334   O381    1.378   .     S
C334   C336    1.404   .     A
C334   C342    1.425   .     A
C335   C344    1.419   .     A
C335   C337    1.420   .     A
C335   O382    1.386   .     S
C336   C348    1.448   .     S
C337   C347    1.450   .     S
C338   C340    1.411   .     A
C338   O380    1.383   .     S
C339   C341    1.401   .     A
C339   O379    1.378   .     S
C340   C345    1.416   .     A
C340   C342    1.422   .     A
C341   C346    1.414   .     A
C341   C344    1.416   .     A
C342   C1072   1.417   .     S
C343   C346    1.424   .     A
C343   O383    1.384   .     S
C343   C352    1.414   .     A
C344   C1073   1.418   1_554 S
C345   C351    1.424   .     A
C345   C1066   1.395   .     S
C346   C1065   1.395   1_554 S
C347   N373    1.158   .     T
C348   N374    1.158   .     T
C349   C356    1.452   .     S
C349   N375    1.157   .     T
C350   N376    1.157   .     T
C351   C353    1.415   .     A
C351   O384    1.382   .     S
C352   O398    1.385   .     S
C352   C1062   1.417   1_554 S
C353   O378    1.384   .     S
C353   C1064   1.418   .     S
C354   O385    1.388   .     S
C354   C596    1.393   .     S
C355   O386    1.388   .     S
H357   O398    0.989   .     S
H358   O386    0.988   .     S
H360   O469    0.988   .     S
H361   O390    0.990   .     S
H362   O391    0.990   .     S
H363   O378    0.988   .     S
H364   O379    0.992   .     S
H365   O380    0.991   .     S
H366   O1101   0.991   1_554 S
H368   O383    0.991   .     S
H369   O384    0.990   .     S
H370   O385    0.988   .     S
N371   Zn399   2.010   .     S
N372   Zn400   2.010   .     S
O377   Zn399   1.988   .     S
O381   H1086   0.991   .     S
O382   H447    0.988   .     S
O387   H439    0.990   .     S
O388   Zn400   1.988   .     S
O392   Zn400   1.987   .     S
O393   Zn399   1.987   .     S
O394   Zn399   1.931   .     S
O395   Zn400   1.931   .     S
O396   Zn400   1.885   .     S
O397   Zn399   1.885   .     S
C401   O472    1.279   .     A
C401   O457    1.278   .     A
C401   C404    1.412   .     S
C402   C404    1.405   .     A
C402   C430    1.453   .     S
C402   C675    1.393   .     S
C403   C412    1.412   .     S
C403   C435    1.400   .     A
C403   C436    1.405   .     A
C404   C434    1.400   .     A
C405   O467    1.378   .     S
C405   N452    1.365   .     A
C405   C247    1.439   1_655 S
C406   O469    1.379   .     S
C406   N451    1.366   .     A
C407   O470    1.378   .     S
C407   N451    1.368   .     A
C408   N452    1.368   .     A
C408   O471    1.377   .     S
C408   C246    1.440   1_655 S
C409   O476    1.295   .     A
C409   C411    1.469   .     S
C409   O474    1.293   .     A
C410   O475    1.298   .     A
C410   O477    1.300   .     A
C410   C413    1.487   .     S
C411   C418    1.393   .     A
C411   C416    1.412   .     A
C412   O468    1.279   .     A
C412   O473    1.279   .     A
C413   C419    1.407   .     A
C413   C417    1.420   .     A
C414   O461    1.378   .     S
C414   C416    1.404   .     A
C414   C422    1.425   .     A
C415   C424    1.419   .     A
C415   C417    1.420   .     A
C415   O462    1.386   .     S
C416   C428    1.448   .     S
C417   C427    1.450   .     S
C418   C420    1.411   .     A
C418   O460    1.383   .     S
C419   C421    1.401   .     A
C419   O459    1.378   .     S
C420   C425    1.416   .     A
C420   C422    1.422   .     A
C421   C426    1.414   .     A
C421   C424    1.416   .     A
C422   C1152   1.417   .     S
C423   C426    1.424   .     A
C423   O463    1.384   .     S
C423   C432    1.414   .     A
C424   C1153   1.418   1_554 S
C425   C431    1.424   .     A
C425   C1146   1.395   .     S
C426   C1145   1.395   1_554 S
C427   N453    1.158   .     T
C428   N454    1.158   .     T
C429   C436    1.452   .     S
C429   N455    1.157   .     T
C430   N456    1.157   .     T
C431   C433    1.415   .     A
C431   O464    1.382   .     S
C432   O478    1.385   .     S
C432   C1142   1.417   1_554 S
C433   O458    1.384   .     S
C433   C1144   1.418   .     S
C434   O465    1.388   .     S
C434   C676    1.393   .     S
C435   O466    1.388   .     S
H437   O478    0.989   .     S
H438   O466    0.988   .     S
H440   O309    0.988   1_655 S
H441   O470    0.990   .     S
H442   O471    0.990   .     S
H443   O458    0.988   .     S
H444   O459    0.992   .     S
H445   O460    0.991   .     S
H446   O1181   0.991   1_554 S
H448   O463    0.991   .     S
H449   O464    0.990   .     S
H450   O465    0.988   .     S
N451   Zn479   2.010   .     S
N452   Zn480   2.010   .     S
O457   Zn479   1.988   .     S
O461   H1166   0.991   .     S
O462   H287    0.988   1_655 S
O467   H279    0.990   1_655 S
O468   Zn480   1.988   .     S
O472   Zn480   1.987   .     S
O473   Zn479   1.987   .     S
O474   Zn479   1.931   .     S
O475   Zn480   1.931   .     S
O476   Zn480   1.885   .     S
O477   Zn479   1.885   .     S
C481   O552    1.279   .     A
C481   O537    1.278   .     A
C481   C484    1.412   .     S
C482   C484    1.405   .     A
C482   C510    1.453   .     S
C482   C35     1.393   1_565 S
C483   C492    1.412   .     S
C483   C515    1.400   .     A
C483   C516    1.405   .     A
C484   C514    1.400   .     A
C485   O547    1.378   .     S
C485   N532    1.365   .     A
C485   C567    1.439   .     S
C486   O549    1.379   .     S
C486   N531    1.366   .     A
C486   C648    1.440   1_455 S
C487   O550    1.378   .     S
C487   N531    1.368   .     A
C487   C645    1.439   1_455 S
C488   N532    1.368   .     A
C488   O551    1.377   .     S
C488   C566    1.440   .     S
C489   O556    1.295   .     A
C489   C491    1.469   .     S
C489   O554    1.293   .     A
C490   O555    1.298   .     A
C490   O557    1.300   .     A
C490   C493    1.487   .     S
C491   C498    1.393   .     A
C491   C496    1.412   .     A
C492   O548    1.279   .     A
C492   O553    1.279   .     A
C493   C499    1.407   .     A
C493   C497    1.420   .     A
C494   O541    1.378   .     S
C494   C496    1.404   .     A
C494   C502    1.425   .     A
C495   C504    1.419   .     A
C495   C497    1.420   .     A
C495   O542    1.386   .     S
C496   C508    1.448   .     S
C497   C507    1.450   .     S
C498   C500    1.411   .     A
C498   O540    1.383   .     S
C499   C501    1.401   .     A
C499   O539    1.378   .     S
C500   C505    1.416   .     A
C500   C502    1.422   .     A
C501   C506    1.414   .     A
C501   C504    1.416   .     A
C502   C1232   1.417   .     S
C503   C506    1.424   .     A
C503   O543    1.384   .     S
C503   C512    1.414   .     A
C504   C1233   1.418   1_554 S
C505   C511    1.424   .     A
C505   C1226   1.395   .     S
C506   C1225   1.395   1_554 S
C507   N533    1.158   .     T
C508   N534    1.158   .     T
C509   C516    1.452   .     S
C509   N535    1.157   .     T
C510   N536    1.157   .     T
C511   C513    1.415   .     A
C511   O544    1.382   .     S
C512   O558    1.385   .     S
C512   C1222   1.417   1_554 S
C513   O538    1.384   .     S
C513   C1224   1.418   .     S
C514   O545    1.388   .     S
C514   C36     1.393   1_565 S
C515   O546    1.388   .     S
H517   O558    0.989   .     S
H518   O546    0.988   .     S
H519   O707    0.990   1_455 S
H520   O629    0.988   .     S
H521   O550    0.990   .     S
H522   O551    0.990   .     S
H523   O538    0.988   .     S
H524   O539    0.992   .     S
H525   O540    0.991   .     S
H526   O1261   0.991   1_554 S
H527   O702    0.988   1_455 S
H528   O543    0.991   .     S
H529   O544    0.990   .     S
H530   O545    0.988   .     S
N531   Zn559   2.010   .     S
N532   Zn560   2.010   .     S
O537   Zn559   1.988   .     S
O541   H1246   0.991   .     S
O542   H607    0.988   .     S
O547   H599    0.990   .     S
O548   Zn560   1.988   .     S
O549   H680    0.988   1_455 S
O552   Zn560   1.987   .     S
O553   Zn559   1.987   .     S
O554   Zn559   1.931   .     S
O555   Zn560   1.931   .     S
O556   Zn560   1.885   .     S
O557   Zn559   1.885   .     S
C561   O632    1.279   .     A
C561   O617    1.278   .     A
C561   C564    1.412   .     S
C562   C564    1.405   .     A
C562   C590    1.453   .     S
C562   C115    1.393   1_565 S
C563   C572    1.412   .     S
C563   C595    1.400   .     A
C563   C596    1.405   .     A
C564   C594    1.400   .     A
C565   O627    1.378   .     S
C565   N612    1.365   .     A
C565   C647    1.439   .     S
C566   O629    1.379   .     S
C566   N611    1.366   .     A
C567   O630    1.378   .     S
C567   N611    1.368   .     A
C568   N612    1.368   .     A
C568   O631    1.377   .     S
C568   C646    1.440   .     S
C569   O636    1.295   .     A
C569   C571    1.469   .     S
C569   O634    1.293   .     A
C570   O635    1.298   .     A
C570   O637    1.300   .     A
C570   C573    1.487   .     S
C571   C578    1.393   .     A
C571   C576    1.412   .     A
C572   O628    1.279   .     A
C572   O633    1.279   .     A
C573   C579    1.407   .     A
C573   C577    1.420   .     A
C574   O621    1.378   .     S
C574   C576    1.404   .     A
C574   C582    1.425   .     A
C575   C584    1.419   .     A
C575   C577    1.420   .     A
C575   O622    1.386   .     S
C576   C588    1.448   .     S
C577   C587    1.450   .     S
C578   C580    1.411   .     A
C578   O620    1.383   .     S
C579   C581    1.401   .     A
C579   O619    1.378   .     S
C580   C585    1.416   .     A
C580   C582    1.422   .     A
C581   C586    1.414   .     A
C581   C584    1.416   .     A
C582   C1312   1.417   .     S
C583   C586    1.424   .     A
C583   O623    1.384   .     S
C583   C592    1.414   .     A
C584   C1313   1.418   1_554 S
C585   C591    1.424   .     A
C585   C1306   1.395   .     S
C586   C1305   1.395   1_554 S
C587   N613    1.158   .     T
C588   N614    1.158   .     T
C589   C596    1.452   .     S
C589   N615    1.157   .     T
C590   N616    1.157   .     T
C591   C593    1.415   .     A
C591   O624    1.382   .     S
C592   O638    1.385   .     S
C592   C1302   1.417   1_554 S
C593   O618    1.384   .     S
C593   C1304   1.418   .     S
C594   O625    1.388   .     S
C594   C116    1.393   1_565 S
C595   O626    1.388   .     S
H597   O638    0.989   .     S
H598   O626    0.988   .     S
H600   O709    0.988   .     S
H601   O630    0.990   .     S
H602   O631    0.990   .     S
H603   O618    0.988   .     S
H604   O619    0.992   .     S
H605   O620    0.991   .     S
H606   O1341   0.991   1_554 S
H608   O623    0.991   .     S
H609   O624    0.990   .     S
H610   O625    0.988   .     S
N611   Zn639   2.010   .     S
N612   Zn640   2.010   .     S
O617   Zn639   1.988   .     S
O621   H1326   0.991   .     S
O622   H687    0.988   .     S
O627   H679    0.990   .     S
O628   Zn640   1.988   .     S
O632   Zn640   1.987   .     S
O633   Zn639   1.987   .     S
O634   Zn639   1.931   .     S
O635   Zn640   1.931   .     S
O636   Zn640   1.885   .     S
O637   Zn639   1.885   .     S
C641   O712    1.279   .     A
C641   O697    1.278   .     A
C641   C644    1.412   .     S
C642   C644    1.405   .     A
C642   C670    1.453   .     S
C642   C195    1.393   1_565 S
C643   C652    1.412   .     S
C643   C675    1.400   .     A
C643   C676    1.405   .     A
C644   C674    1.400   .     A
C645   O707    1.378   .     S
C645   N692    1.365   .     A
C645   C487    1.439   1_655 S
C646   O709    1.379   .     S
C646   N691    1.366   .     A
C647   O710    1.378   .     S
C647   N691    1.368   .     A
C648   N692    1.368   .     A
C648   O711    1.377   .     S
C648   C486    1.440   1_655 S
C649   O716    1.295   .     A
C649   C651    1.469   .     S
C649   O714    1.293   .     A
C650   O715    1.298   .     A
C650   O717    1.300   .     A
C650   C653    1.487   .     S
C651   C658    1.393   .     A
C651   C656    1.412   .     A
C652   O708    1.279   .     A
C652   O713    1.279   .     A
C653   C659    1.407   .     A
C653   C657    1.420   .     A
C654   O701    1.378   .     S
C654   C656    1.404   .     A
C654   C662    1.425   .     A
C655   C664    1.419   .     A
C655   C657    1.420   .     A
C655   O702    1.386   .     S
C656   C668    1.448   .     S
C657   C667    1.450   .     S
C658   C660    1.411   .     A
C658   O700    1.383   .     S
C659   C661    1.401   .     A
C659   O699    1.378   .     S
C660   C665    1.416   .     A
C660   C662    1.422   .     A
C661   C666    1.414   .     A
C661   C664    1.416   .     A
C662   C1392   1.417   .     S
C663   C666    1.424   .     A
C663   O703    1.384   .     S
C663   C672    1.414   .     A
C664   C1393   1.418   1_554 S
C665   C671    1.424   .     A
C665   C1386   1.395   .     S
C666   C1385   1.395   1_554 S
C667   N693    1.158   .     T
C668   N694    1.158   .     T
C669   C676    1.452   .     S
C669   N695    1.157   .     T
C670   N696    1.157   .     T
C671   C673    1.415   .     A
C671   O704    1.382   .     S
C672   O718    1.385   .     S
C672   C1382   1.417   1_554 S
C673   O698    1.384   .     S
C673   C1384   1.418   .     S
C674   O705    1.388   .     S
C674   C196    1.393   1_565 S
C675   O706    1.388   .     S
H677   O718    0.989   .     S
H678   O706    0.988   .     S
H680   O549    0.988   1_655 S
H681   O710    0.990   .     S
H682   O711    0.990   .     S
H683   O698    0.988   .     S
H684   O699    0.992   .     S
H685   O700    0.991   .     S
H686   O1421   0.991   1_554 S
H688   O703    0.991   .     S
H689   O704    0.990   .     S
H690   O705    0.988   .     S
N691   Zn719   2.010   .     S
N692   Zn720   2.010   .     S
O697   Zn719   1.988   .     S
O701   H1406   0.991   .     S
O702   H527    0.988   1_655 S
O707   H519    0.990   1_655 S
O708   Zn720   1.988   .     S
O712   Zn720   1.987   .     S
O713   Zn719   1.987   .     S
O714   Zn719   1.931   .     S
O715   Zn720   1.931   .     S
O716   Zn720   1.885   .     S
O717   Zn719   1.885   .     S
C721   O792    1.279   .     A
C721   O777    1.278   .     A
C721   C724    1.412   .     S
C722   C724    1.405   .     A
C722   C750    1.453   .     S
C722   C995    1.393   .     S
C723   C732    1.412   .     S
C723   C755    1.400   .     A
C723   C756    1.405   .     A
C724   C754    1.400   .     A
C725   O787    1.378   .     S
C725   N772    1.365   .     A
C725   C807    1.439   .     S
C726   O789    1.379   .     S
C726   N771    1.366   .     A
C726   C888    1.440   1_455 S
C727   O790    1.378   .     S
C727   N771    1.368   .     A
C727   C885    1.439   1_455 S
C728   N772    1.368   .     A
C728   O791    1.377   .     S
C728   C806    1.440   .     S
C729   O796    1.295   .     A
C729   C731    1.469   .     S
C729   O794    1.293   .     A
C730   O795    1.298   .     A
C730   O797    1.300   .     A
C730   C733    1.487   .     S
C731   C738    1.393   .     A
C731   C736    1.412   .     A
C732   O788    1.279   .     A
C732   O793    1.279   .     A
C733   C739    1.407   .     A
C733   C737    1.420   .     A
C734   O781    1.378   .     S
C734   C736    1.404   .     A
C734   C742    1.425   .     A
C735   C744    1.419   .     A
C735   C737    1.420   .     A
C735   O782    1.386   .     S
C736   C748    1.448   .     S
C737   C747    1.450   .     S
C738   C740    1.411   .     A
C738   O780    1.383   .     S
C739   C741    1.401   .     A
C739   O779    1.378   .     S
C740   C745    1.416   .     A
C740   C742    1.422   .     A
C741   C746    1.414   .     A
C741   C744    1.416   .     A
C742   C32     1.417   1_556 S
C743   C746    1.424   .     A
C743   O783    1.384   .     S
C743   C752    1.414   .     A
C745   C751    1.424   .     A
C745   C26     1.395   1_556 S
C747   N773    1.158   .     T
C748   N774    1.158   .     T
C749   C756    1.452   .     S
C749   N775    1.157   .     T
C750   N776    1.157   .     T
C751   C753    1.415   .     A
C751   O784    1.382   .     S
C752   O798    1.385   .     S
C753   O778    1.384   .     S
C753   C24     1.418   1_556 S
C754   O785    1.388   .     S
C754   C996    1.393   .     S
C755   O786    1.388   .     S
C755   C1202   1.393   1_545 S
C756   C1234   1.393   1_545 S
H757   O798    0.989   .     S
H758   O786    0.988   .     S
H759   O947    0.990   1_455 S
H760   O869    0.988   .     S
H761   O790    0.990   .     S
H762   O791    0.990   .     S
H763   O778    0.988   .     S
H764   O779    0.992   .     S
H765   O780    0.991   .     S
H767   O942    0.988   1_455 S
H768   O783    0.991   .     S
H769   O784    0.990   .     S
H770   O785    0.988   .     S
N771   Zn799   2.010   .     S
N772   Zn800   2.010   .     S
O777   Zn799   1.988   .     S
O781   H46     0.991   1_556 S
O782   H847    0.988   .     S
O787   H839    0.990   .     S
O788   Zn800   1.988   .     S
O789   H920    0.988   1_455 S
O792   Zn800   1.987   .     S
O793   Zn799   1.987   .     S
O794   Zn799   1.931   .     S
O795   Zn800   1.931   .     S
O796   Zn800   1.885   .     S
O797   Zn799   1.885   .     S
C801   O872    1.279   .     A
C801   O857    1.278   .     A
C801   C804    1.412   .     S
C802   C804    1.405   .     A
C802   C830    1.453   .     S
C802   C1075   1.393   .     S
C803   C812    1.412   .     S
C803   C835    1.400   .     A
C803   C836    1.405   .     A
C804   C834    1.400   .     A
C805   O867    1.378   .     S
C805   N852    1.365   .     A
C805   C887    1.439   .     S
C806   O869    1.379   .     S
C806   N851    1.366   .     A
C807   O870    1.378   .     S
C807   N851    1.368   .     A
C808   N852    1.368   .     A
C808   O871    1.377   .     S
C808   C886    1.440   .     S
C809   O876    1.295   .     A
C809   C811    1.469   .     S
C809   O874    1.293   .     A
C810   O875    1.298   .     A
C810   O877    1.300   .     A
C810   C813    1.487   .     S
C811   C818    1.393   .     A
C811   C816    1.412   .     A
C812   O868    1.279   .     A
C812   O873    1.279   .     A
C813   C819    1.407   .     A
C813   C817    1.420   .     A
C814   O861    1.378   .     S
C814   C816    1.404   .     A
C814   C822    1.425   .     A
C815   C824    1.419   .     A
C815   C817    1.420   .     A
C815   O862    1.386   .     S
C816   C828    1.448   .     S
C817   C827    1.450   .     S
C818   C820    1.411   .     A
C818   O860    1.383   .     S
C819   C821    1.401   .     A
C819   O859    1.378   .     S
C820   C825    1.416   .     A
C820   C822    1.422   .     A
C821   C826    1.414   .     A
C821   C824    1.416   .     A
C822   C112    1.417   1_556 S
C823   C826    1.424   .     A
C823   O863    1.384   .     S
C823   C832    1.414   .     A
C825   C831    1.424   .     A
C825   C106    1.395   1_556 S
C827   N853    1.158   .     T
C828   N854    1.158   .     T
C829   C836    1.452   .     S
C829   N855    1.157   .     T
C830   N856    1.157   .     T
C831   C833    1.415   .     A
C831   O864    1.382   .     S
C832   O878    1.385   .     S
C833   O858    1.384   .     S
C833   C104    1.418   1_556 S
C834   O865    1.388   .     S
C834   C1076   1.393   .     S
C835   O866    1.388   .     S
C835   C1282   1.393   1_545 S
C836   C1314   1.393   1_545 S
H837   O878    0.989   .     S
H838   O866    0.988   .     S
H840   O949    0.988   .     S
H841   O870    0.990   .     S
H842   O871    0.990   .     S
H843   O858    0.988   .     S
H844   O859    0.992   .     S
H845   O860    0.991   .     S
H848   O863    0.991   .     S
H849   O864    0.990   .     S
H850   O865    0.988   .     S
N851   Zn879   2.010   .     S
N852   Zn880   2.010   .     S
O857   Zn879   1.988   .     S
O861   H126    0.991   1_556 S
O862   H927    0.988   .     S
O867   H919    0.990   .     S
O868   Zn880   1.988   .     S
O872   Zn880   1.987   .     S
O873   Zn879   1.987   .     S
O874   Zn879   1.931   .     S
O875   Zn880   1.931   .     S
O876   Zn880   1.885   .     S
O877   Zn879   1.885   .     S
C881   O952    1.279   .     A
C881   O937    1.278   .     A
C881   C884    1.412   .     S
C882   C884    1.405   .     A
C882   C910    1.453   .     S
C882   C1155   1.393   .     S
C883   C892    1.412   .     S
C883   C915    1.400   .     A
C883   C916    1.405   .     A
C884   C914    1.400   .     A
C885   O947    1.378   .     S
C885   N932    1.365   .     A
C885   C727    1.439   1_655 S
C886   O949    1.379   .     S
C886   N931    1.366   .     A
C887   O950    1.378   .     S
C887   N931    1.368   .     A
C888   N932    1.368   .     A
C888   O951    1.377   .     S
C888   C726    1.440   1_655 S
C889   O956    1.295   .     A
C889   C891    1.469   .     S
C889   O954    1.293   .     A
C890   O955    1.298   .     A
C890   O957    1.300   .     A
C890   C893    1.487   .     S
C891   C898    1.393   .     A
C891   C896    1.412   .     A
C892   O948    1.279   .     A
C892   O953    1.279   .     A
C893   C899    1.407   .     A
C893   C897    1.420   .     A
C894   O941    1.378   .     S
C894   C896    1.404   .     A
C894   C902    1.425   .     A
C895   C904    1.419   .     A
C895   C897    1.420   .     A
C895   O942    1.386   .     S
C896   C908    1.448   .     S
C897   C907    1.450   .     S
C898   C900    1.411   .     A
C898   O940    1.383   .     S
C899   C901    1.401   .     A
C899   O939    1.378   .     S
C900   C905    1.416   .     A
C900   C902    1.422   .     A
C901   C906    1.414   .     A
C901   C904    1.416   .     A
C902   C192    1.417   1_556 S
C903   C906    1.424   .     A
C903   O943    1.384   .     S
C903   C912    1.414   .     A
C905   C911    1.424   .     A
C905   C186    1.395   1_556 S
C907   N933    1.158   .     T
C908   N934    1.158   .     T
C909   C916    1.452   .     S
C909   N935    1.157   .     T
C910   N936    1.157   .     T
C911   C913    1.415   .     A
C911   O944    1.382   .     S
C912   O958    1.385   .     S
C913   O938    1.384   .     S
C913   C184    1.418   1_556 S
C914   O945    1.388   .     S
C914   C1156   1.393   .     S
C915   O946    1.388   .     S
C915   C1362   1.393   1_545 S
C916   C1394   1.393   1_545 S
H917   O958    0.989   .     S
H918   O946    0.988   .     S
H920   O789    0.988   1_655 S
H921   O950    0.990   .     S
H922   O951    0.990   .     S
H923   O938    0.988   .     S
H924   O939    0.992   .     S
H925   O940    0.991   .     S
H928   O943    0.991   .     S
H929   O944    0.990   .     S
H930   O945    0.988   .     S
N931   Zn959   2.010   .     S
N932   Zn960   2.010   .     S
O937   Zn959   1.988   .     S
O941   H206    0.991   1_556 S
O942   H767    0.988   1_655 S
O947   H759    0.990   1_655 S
O948   Zn960   1.988   .     S
O952   Zn960   1.987   .     S
O953   Zn959   1.987   .     S
O954   Zn959   1.931   .     S
O955   Zn960   1.931   .     S
O956   Zn960   1.885   .     S
O957   Zn959   1.885   .     S
C961   O1032   1.279   .     A
C961   O1017   1.278   .     A
C961   C964    1.412   .     S
C962   C964    1.405   .     A
C962   C990    1.453   .     S
C962   C1235   1.393   .     S
C963   C972    1.412   .     S
C963   C995    1.400   .     A
C963   C996    1.405   .     A
C964   C994    1.400   .     A
C965   O1027   1.378   .     S
C965   N1012   1.365   .     A
C965   C1047   1.439   .     S
C966   O1029   1.379   .     S
C966   N1011   1.366   .     A
C966   C1128   1.440   1_455 S
C967   O1030   1.378   .     S
C967   N1011   1.368   .     A
C967   C1125   1.439   1_455 S
C968   N1012   1.368   .     A
C968   O1031   1.377   .     S
C968   C1046   1.440   .     S
C969   O1036   1.295   .     A
C969   C971    1.469   .     S
C969   O1034   1.293   .     A
C970   O1035   1.298   .     A
C970   O1037   1.300   .     A
C970   C973    1.487   .     S
C971   C978    1.393   .     A
C971   C976    1.412   .     A
C972   O1028   1.279   .     A
C972   O1033   1.279   .     A
C973   C979    1.407   .     A
C973   C977    1.420   .     A
C974   O1021   1.378   .     S
C974   C976    1.404   .     A
C974   C982    1.425   .     A
C975   C984    1.419   .     A
C975   C977    1.420   .     A
C975   O1022   1.386   .     S
C976   C988    1.448   .     S
C977   C987    1.450   .     S
C978   C980    1.411   .     A
C978   O1020   1.383   .     S
C979   C981    1.401   .     A
C979   O1019   1.378   .     S
C980   C985    1.416   .     A
C980   C982    1.422   .     A
C981   C986    1.414   .     A
C981   C984    1.416   .     A
C982   C272    1.417   1_556 S
C983   C986    1.424   .     A
C983   O1023   1.384   .     S
C983   C992    1.414   .     A
C985   C991    1.424   .     A
C985   C266    1.395   1_556 S
C987   N1013   1.158   .     T
C988   N1014   1.158   .     T
C989   C996    1.452   .     S
C989   N1015   1.157   .     T
C990   N1016   1.157   .     T
C991   C993    1.415   .     A
C991   O1024   1.382   .     S
C992   O1038   1.385   .     S
C993   O1018   1.384   .     S
C993   C264    1.418   1_556 S
C994   O1025   1.388   .     S
C994   C1236   1.393   .     S
C995   O1026   1.388   .     S
H997   O1038   0.989   .     S
H998   O1026   0.988   .     S
H999   O1187   0.990   1_455 S
H1000  O1109   0.988   .     S
H1001  O1030   0.990   .     S
H1002  O1031   0.990   .     S
H1003  O1018   0.988   .     S
H1004  O1019   0.992   .     S
H1005  O1020   0.991   .     S
H1007  O1182   0.988   1_455 S
H1008  O1023   0.991   .     S
H1009  O1024   0.990   .     S
H1010  O1025   0.988   .     S
N1011  Zn1039  2.010   .     S
N1012  Zn1040  2.010   .     S
O1017  Zn1039  1.988   .     S
O1021  H286    0.991   1_556 S
O1022  H1087   0.988   .     S
O1027  H1079   0.990   .     S
O1028  Zn1040  1.988   .     S
O1029  H1160   0.988   1_455 S
O1032  Zn1040  1.987   .     S
O1033  Zn1039  1.987   .     S
O1034  Zn1039  1.931   .     S
O1035  Zn1040  1.931   .     S
O1036  Zn1040  1.885   .     S
O1037  Zn1039  1.885   .     S
C1041  O1112   1.279   .     A
C1041  O1097   1.278   .     A
C1041  C1044   1.412   .     S
C1042  C1044   1.405   .     A
C1042  C1070   1.453   .     S
C1042  C1315   1.393   .     S
C1043  C1052   1.412   .     S
C1043  C1075   1.400   .     A
C1043  C1076   1.405   .     A
C1044  C1074   1.400   .     A
C1045  O1107   1.378   .     S
C1045  N1092   1.365   .     A
C1045  C1127   1.439   .     S
C1046  O1109   1.379   .     S
C1046  N1091   1.366   .     A
C1047  O1110   1.378   .     S
C1047  N1091   1.368   .     A
C1048  N1092   1.368   .     A
C1048  O1111   1.377   .     S
C1048  C1126   1.440   .     S
C1049  O1116   1.295   .     A
C1049  C1051   1.469   .     S
C1049  O1114   1.293   .     A
C1050  O1115   1.298   .     A
C1050  O1117   1.300   .     A
C1050  C1053   1.487   .     S
C1051  C1058   1.393   .     A
C1051  C1056   1.412   .     A
C1052  O1108   1.279   .     A
C1052  O1113   1.279   .     A
C1053  C1059   1.407   .     A
C1053  C1057   1.420   .     A
C1054  O1101   1.378   .     S
C1054  C1056   1.404   .     A
C1054  C1062   1.425   .     A
C1055  C1064   1.419   .     A
C1055  C1057   1.420   .     A
C1055  O1102   1.386   .     S
C1056  C1068   1.448   .     S
C1057  C1067   1.450   .     S
C1058  C1060   1.411   .     A
C1058  O1100   1.383   .     S
C1059  C1061   1.401   .     A
C1059  O1099   1.378   .     S
C1060  C1065   1.416   .     A
C1060  C1062   1.422   .     A
C1061  C1066   1.414   .     A
C1061  C1064   1.416   .     A
C1062  C352    1.417   1_556 S
C1063  C1066   1.424   .     A
C1063  O1103   1.384   .     S
C1063  C1072   1.414   .     A
C1065  C1071   1.424   .     A
C1065  C346    1.395   1_556 S
C1067  N1093   1.158   .     T
C1068  N1094   1.158   .     T
C1069  C1076   1.452   .     S
C1069  N1095   1.157   .     T
C1070  N1096   1.157   .     T
C1071  C1073   1.415   .     A
C1071  O1104   1.382   .     S
C1072  O1118   1.385   .     S
C1073  O1098   1.384   .     S
C1073  C344    1.418   1_556 S
C1074  O1105   1.388   .     S
C1074  C1316   1.393   .     S
C1075  O1106   1.388   .     S
H1077  O1118   0.989   .     S
H1078  O1106   0.988   .     S
H1080  O1189   0.988   .     S
H1081  O1110   0.990   .     S
H1082  O1111   0.990   .     S
H1083  O1098   0.988   .     S
H1084  O1099   0.992   .     S
H1085  O1100   0.991   .     S
H1088  O1103   0.991   .     S
H1089  O1104   0.990   .     S
H1090  O1105   0.988   .     S
N1091  Zn1119  2.010   .     S
N1092  Zn1120  2.010   .     S
O1097  Zn1119  1.988   .     S
O1101  H366    0.991   1_556 S
O1102  H1167   0.988   .     S
O1107  H1159   0.990   .     S
O1108  Zn1120  1.988   .     S
O1112  Zn1120  1.987   .     S
O1113  Zn1119  1.987   .     S
O1114  Zn1119  1.931   .     S
O1115  Zn1120  1.931   .     S
O1116  Zn1120  1.885   .     S
O1117  Zn1119  1.885   .     S
C1121  O1192   1.279   .     A
C1121  O1177   1.278   .     A
C1121  C1124   1.412   .     S
C1122  C1124   1.405   .     A
C1122  C1150   1.453   .     S
C1122  C1395   1.393   .     S
C1123  C1132   1.412   .     S
C1123  C1155   1.400   .     A
C1123  C1156   1.405   .     A
C1124  C1154   1.400   .     A
C1125  O1187   1.378   .     S
C1125  N1172   1.365   .     A
C1125  C967    1.439   1_655 S
C1126  O1189   1.379   .     S
C1126  N1171   1.366   .     A
C1127  O1190   1.378   .     S
C1127  N1171   1.368   .     A
C1128  N1172   1.368   .     A
C1128  O1191   1.377   .     S
C1128  C966    1.440   1_655 S
C1129  O1196   1.295   .     A
C1129  C1131   1.469   .     S
C1129  O1194   1.293   .     A
C1130  O1195   1.298   .     A
C1130  O1197   1.300   .     A
C1130  C1133   1.487   .     S
C1131  C1138   1.393   .     A
C1131  C1136   1.412   .     A
C1132  O1188   1.279   .     A
C1132  O1193   1.279   .     A
C1133  C1139   1.407   .     A
C1133  C1137   1.420   .     A
C1134  O1181   1.378   .     S
C1134  C1136   1.404   .     A
C1134  C1142   1.425   .     A
C1135  C1144   1.419   .     A
C1135  C1137   1.420   .     A
C1135  O1182   1.386   .     S
C1136  C1148   1.448   .     S
C1137  C1147   1.450   .     S
C1138  C1140   1.411   .     A
C1138  O1180   1.383   .     S
C1139  C1141   1.401   .     A
C1139  O1179   1.378   .     S
C1140  C1145   1.416   .     A
C1140  C1142   1.422   .     A
C1141  C1146   1.414   .     A
C1141  C1144   1.416   .     A
C1142  C432    1.417   1_556 S
C1143  C1146   1.424   .     A
C1143  O1183   1.384   .     S
C1143  C1152   1.414   .     A
C1145  C1151   1.424   .     A
C1145  C426    1.395   1_556 S
C1147  N1173   1.158   .     T
C1148  N1174   1.158   .     T
C1149  C1156   1.452   .     S
C1149  N1175   1.157   .     T
C1150  N1176   1.157   .     T
C1151  C1153   1.415   .     A
C1151  O1184   1.382   .     S
C1152  O1198   1.385   .     S
C1153  O1178   1.384   .     S
C1153  C424    1.418   1_556 S
C1154  O1185   1.388   .     S
C1154  C1396   1.393   .     S
C1155  O1186   1.388   .     S
H1157  O1198   0.989   .     S
H1158  O1186   0.988   .     S
H1160  O1029   0.988   1_655 S
H1161  O1190   0.990   .     S
H1162  O1191   0.990   .     S
H1163  O1178   0.988   .     S
H1164  O1179   0.992   .     S
H1165  O1180   0.991   .     S
H1168  O1183   0.991   .     S
H1169  O1184   0.990   .     S
H1170  O1185   0.988   .     S
N1171  Zn1199  2.010   .     S
N1172  Zn1200  2.010   .     S
O1177  Zn1199  1.988   .     S
O1181  H446    0.991   1_556 S
O1182  H1007   0.988   1_655 S
O1187  H999    0.990   1_655 S
O1188  Zn1200  1.988   .     S
O1192  Zn1200  1.987   .     S
O1193  Zn1199  1.987   .     S
O1194  Zn1199  1.931   .     S
O1195  Zn1200  1.931   .     S
O1196  Zn1200  1.885   .     S
O1197  Zn1199  1.885   .     S
C1201  O1272   1.279   .     A
C1201  O1257   1.278   .     A
C1201  C1204   1.412   .     S
C1202  C1204   1.405   .     A
C1202  C1230   1.453   .     S
C1202  C755    1.393   1_565 S
C1203  C1212   1.412   .     S
C1203  C1235   1.400   .     A
C1203  C1236   1.405   .     A
C1204  C1234   1.400   .     A
C1205  O1267   1.378   .     S
C1205  N1252   1.365   .     A
C1205  C1287   1.439   .     S
C1206  O1269   1.379   .     S
C1206  N1251   1.366   .     A
C1206  C1368   1.440   1_455 S
C1207  O1270   1.378   .     S
C1207  N1251   1.368   .     A
C1207  C1365   1.439   1_455 S
C1208  N1252   1.368   .     A
C1208  O1271   1.377   .     S
C1208  C1286   1.440   .     S
C1209  O1276   1.295   .     A
C1209  C1211   1.469   .     S
C1209  O1274   1.293   .     A
C1210  O1275   1.298   .     A
C1210  O1277   1.300   .     A
C1210  C1213   1.487   .     S
C1211  C1218   1.393   .     A
C1211  C1216   1.412   .     A
C1212  O1268   1.279   .     A
C1212  O1273   1.279   .     A
C1213  C1219   1.407   .     A
C1213  C1217   1.420   .     A
C1214  O1261   1.378   .     S
C1214  C1216   1.404   .     A
C1214  C1222   1.425   .     A
C1215  C1224   1.419   .     A
C1215  C1217   1.420   .     A
C1215  O1262   1.386   .     S
C1216  C1228   1.448   .     S
C1217  C1227   1.450   .     S
C1218  C1220   1.411   .     A
C1218  O1260   1.383   .     S
C1219  C1221   1.401   .     A
C1219  O1259   1.378   .     S
C1220  C1225   1.416   .     A
C1220  C1222   1.422   .     A
C1221  C1226   1.414   .     A
C1221  C1224   1.416   .     A
C1222  C512    1.417   1_556 S
C1223  C1226   1.424   .     A
C1223  O1263   1.384   .     S
C1223  C1232   1.414   .     A
C1225  C1231   1.424   .     A
C1225  C506    1.395   1_556 S
C1227  N1253   1.158   .     T
C1228  N1254   1.158   .     T
C1229  C1236   1.452   .     S
C1229  N1255   1.157   .     T
C1230  N1256   1.157   .     T
C1231  C1233   1.415   .     A
C1231  O1264   1.382   .     S
C1232  O1278   1.385   .     S
C1233  O1258   1.384   .     S
C1233  C504    1.418   1_556 S
C1234  O1265   1.388   .     S
C1234  C756    1.393   1_565 S
C1235  O1266   1.388   .     S
H1237  O1278   0.989   .     S
H1238  O1266   0.988   .     S
H1239  O1427   0.990   1_455 S
H1240  O1349   0.988   .     S
H1241  O1270   0.990   .     S
H1242  O1271   0.990   .     S
H1243  O1258   0.988   .     S
H1244  O1259   0.992   .     S
H1245  O1260   0.991   .     S
H1247  O1422   0.988   1_455 S
H1248  O1263   0.991   .     S
H1249  O1264   0.990   .     S
H1250  O1265   0.988   .     S
N1251  Zn1279  2.010   .     S
N1252  Zn1280  2.010   .     S
O1257  Zn1279  1.988   .     S
O1261  H526    0.991   1_556 S
O1262  H1327   0.988   .     S
O1267  H1319   0.990   .     S
O1268  Zn1280  1.988   .     S
O1269  H1400   0.988   1_455 S
O1272  Zn1280  1.987   .     S
O1273  Zn1279  1.987   .     S
O1274  Zn1279  1.931   .     S
O1275  Zn1280  1.931   .     S
O1276  Zn1280  1.885   .     S
O1277  Zn1279  1.885   .     S
C1281  O1352   1.279   .     A
C1281  O1337   1.278   .     A
C1281  C1284   1.412   .     S
C1282  C1284   1.405   .     A
C1282  C1310   1.453   .     S
C1282  C835    1.393   1_565 S
C1283  C1292   1.412   .     S
C1283  C1315   1.400   .     A
C1283  C1316   1.405   .     A
C1284  C1314   1.400   .     A
C1285  O1347   1.378   .     S
C1285  N1332   1.365   .     A
C1285  C1367   1.439   .     S
C1286  O1349   1.379   .     S
C1286  N1331   1.366   .     A
C1287  O1350   1.378   .     S
C1287  N1331   1.368   .     A
C1288  N1332   1.368   .     A
C1288  O1351   1.377   .     S
C1288  C1366   1.440   .     S
C1289  O1356   1.295   .     A
C1289  C1291   1.469   .     S
C1289  O1354   1.293   .     A
C1290  O1355   1.298   .     A
C1290  O1357   1.300   .     A
C1290  C1293   1.487   .     S
C1291  C1298   1.393   .     A
C1291  C1296   1.412   .     A
C1292  O1348   1.279   .     A
C1292  O1353   1.279   .     A
C1293  C1299   1.407   .     A
C1293  C1297   1.420   .     A
C1294  O1341   1.378   .     S
C1294  C1296   1.404   .     A
C1294  C1302   1.425   .     A
C1295  C1304   1.419   .     A
C1295  C1297   1.420   .     A
C1295  O1342   1.386   .     S
C1296  C1308   1.448   .     S
C1297  C1307   1.450   .     S
C1298  C1300   1.411   .     A
C1298  O1340   1.383   .     S
C1299  C1301   1.401   .     A
C1299  O1339   1.378   .     S
C1300  C1305   1.416   .     A
C1300  C1302   1.422   .     A
C1301  C1306   1.414   .     A
C1301  C1304   1.416   .     A
C1302  C592    1.417   1_556 S
C1303  C1306   1.424   .     A
C1303  O1343   1.384   .     S
C1303  C1312   1.414   .     A
C1305  C1311   1.424   .     A
C1305  C586    1.395   1_556 S
C1307  N1333   1.158   .     T
C1308  N1334   1.158   .     T
C1309  C1316   1.452   .     S
C1309  N1335   1.157   .     T
C1310  N1336   1.157   .     T
C1311  C1313   1.415   .     A
C1311  O1344   1.382   .     S
C1312  O1358   1.385   .     S
C1313  O1338   1.384   .     S
C1313  C584    1.418   1_556 S
C1314  O1345   1.388   .     S
C1314  C836    1.393   1_565 S
C1315  O1346   1.388   .     S
H1317  O1358   0.989   .     S
H1318  O1346   0.988   .     S
H1320  O1429   0.988   .     S
H1321  O1350   0.990   .     S
H1322  O1351   0.990   .     S
H1323  O1338   0.988   .     S
H1324  O1339   0.992   .     S
H1325  O1340   0.991   .     S
H1328  O1343   0.991   .     S
H1329  O1344   0.990   .     S
H1330  O1345   0.988   .     S
N1331  Zn1359  2.010   .     S
N1332  Zn1360  2.010   .     S
O1337  Zn1359  1.988   .     S
O1341  H606    0.991   1_556 S
O1342  H1407   0.988   .     S
O1347  H1399   0.990   .     S
O1348  Zn1360  1.988   .     S
O1352  Zn1360  1.987   .     S
O1353  Zn1359  1.987   .     S
O1354  Zn1359  1.931   .     S
O1355  Zn1360  1.931   .     S
O1356  Zn1360  1.885   .     S
O1357  Zn1359  1.885   .     S
C1361  O1432   1.279   .     A
C1361  O1417   1.278   .     A
C1361  C1364   1.412   .     S
C1362  C1364   1.405   .     A
C1362  C1390   1.453   .     S
C1362  C915    1.393   1_565 S
C1363  C1372   1.412   .     S
C1363  C1395   1.400   .     A
C1363  C1396   1.405   .     A
C1364  C1394   1.400   .     A
C1365  O1427   1.378   .     S
C1365  N1412   1.365   .     A
C1365  C1207   1.439   1_655 S
C1366  O1429   1.379   .     S
C1366  N1411   1.366   .     A
C1367  O1430   1.378   .     S
C1367  N1411   1.368   .     A
C1368  N1412   1.368   .     A
C1368  O1431   1.377   .     S
C1368  C1206   1.440   1_655 S
C1369  O1436   1.295   .     A
C1369  C1371   1.469   .     S
C1369  O1434   1.293   .     A
C1370  O1435   1.298   .     A
C1370  O1437   1.300   .     A
C1370  C1373   1.487   .     S
C1371  C1378   1.393   .     A
C1371  C1376   1.412   .     A
C1372  O1428   1.279   .     A
C1372  O1433   1.279   .     A
C1373  C1379   1.407   .     A
C1373  C1377   1.420   .     A
C1374  O1421   1.378   .     S
C1374  C1376   1.404   .     A
C1374  C1382   1.425   .     A
C1375  C1384   1.419   .     A
C1375  C1377   1.420   .     A
C1375  O1422   1.386   .     S
C1376  C1388   1.448   .     S
C1377  C1387   1.450   .     S
C1378  C1380   1.411   .     A
C1378  O1420   1.383   .     S
C1379  C1381   1.401   .     A
C1379  O1419   1.378   .     S
C1380  C1385   1.416   .     A
C1380  C1382   1.422   .     A
C1381  C1386   1.414   .     A
C1381  C1384   1.416   .     A
C1382  C672    1.417   1_556 S
C1383  C1386   1.424   .     A
C1383  O1423   1.384   .     S
C1383  C1392   1.414   .     A
C1385  C1391   1.424   .     A
C1385  C666    1.395   1_556 S
C1387  N1413   1.158   .     T
C1388  N1414   1.158   .     T
C1389  C1396   1.452   .     S
C1389  N1415   1.157   .     T
C1390  N1416   1.157   .     T
C1391  C1393   1.415   .     A
C1391  O1424   1.382   .     S
C1392  O1438   1.385   .     S
C1393  O1418   1.384   .     S
C1393  C664    1.418   1_556 S
C1394  O1425   1.388   .     S
C1394  C916    1.393   1_565 S
C1395  O1426   1.388   .     S
H1397  O1438   0.989   .     S
H1398  O1426   0.988   .     S
H1400  O1269   0.988   1_655 S
H1401  O1430   0.990   .     S
H1402  O1431   0.990   .     S
H1403  O1418   0.988   .     S
H1404  O1419   0.992   .     S
H1405  O1420   0.991   .     S
H1408  O1423   0.991   .     S
H1409  O1424   0.990   .     S
H1410  O1425   0.988   .     S
N1411  Zn1439  2.010   .     S
N1412  Zn1440  2.010   .     S
O1417  Zn1439  1.988   .     S
O1421  H686    0.991   1_556 S
O1422  H1247   0.988   1_655 S
O1427  H1239   0.990   1_655 S
O1428  Zn1440  1.988   .     S
O1432  Zn1440  1.987   .     S
O1433  Zn1439  1.987   .     S
O1434  Zn1439  1.931   .     S
O1435  Zn1440  1.931   .     S
O1436  Zn1440  1.885   .     S
O1437  Zn1439  1.885   .     S
