data_str_m3_o1_o10_pcu_sym.62
_audit_creation_date              2020-01-03
_audit_creation_method            'Materials Studio'
_symmetry_space_group_name_H-M    'P1'
_symmetry_Int_Tables_number       1
_symmetry_cell_setting            triclinic
loop_
_symmetry_equiv_pos_as_xyz
  x,y,z
_cell_length_a                    25.7803
_cell_length_b                    32.1761
_cell_length_c                    29.7233
_cell_angle_alpha                 90.5402
_cell_angle_beta                  99.1770
_cell_angle_gamma                 91.2602
loop_
_atom_site_label
_atom_site_type_symbol
_atom_site_fract_x
_atom_site_fract_y
_atom_site_fract_z
_atom_site_U_iso_or_equiv
_atom_site_adp_type
_atom_site_occupancy
C1     C     0.16658   0.08668   0.16652   0.00000  Uiso   1.00
C2     C     0.16816   0.02168   0.20782   0.00000  Uiso   1.00
C3     C     0.16673   0.29084   0.16682   0.00000  Uiso   1.00
C4     C     0.16660   0.04249   0.16651   0.00000  Uiso   1.00
C5     C     0.19996   0.19230   0.02940   0.00000  Uiso   1.00
C6     C     0.13337   0.14103   0.30393   0.00000  Uiso   1.00
C7     C     0.20032   0.19261   0.31511   0.00000  Uiso   1.00
C8     C     0.13301   0.14072   0.01822   0.00000  Uiso   1.00
C9     C     0.23902   0.22243   0.29928   0.00000  Uiso   1.00
C10    C     0.09432   0.11090   0.03405   0.00000  Uiso   1.00
C11    C     0.16675   0.24665   0.16681   0.00000  Uiso   1.00
C12    C     0.06705   0.16660   0.15462   0.00000  Uiso   1.00
C13    C     0.26629   0.16673   0.17871   0.00000  Uiso   1.00
C14    C     0.01185   0.16662   0.14827   0.00000  Uiso   1.00
C15    C     0.32148   0.16671   0.18506   0.00000  Uiso   1.00
C16    C     0.16510   0.02088   0.12537   0.00000  Uiso   1.00
C17    C     0.16824   0.31245   0.20797   0.00000  Uiso   1.00
C18    C     0.16517   0.31165   0.12552   0.00000  Uiso   1.00
H19    H     0.32423   0.16659   0.11347   0.00000  Uiso   1.00
H20    H     0.23095   0.25455   0.30983   0.00000  Uiso   1.00
H21    H     0.27947   0.21455   0.31526   0.00000  Uiso   1.00
H22    H     0.09533   0.11088   0.07088   0.00000  Uiso   1.00
H23    H     0.05386   0.11878   0.01808   0.00000  Uiso   1.00
H24    H     0.10238   0.07878   0.02350   0.00000  Uiso   1.00
H25    H     0.00911   0.16674   0.21986   0.00000  Uiso   1.00
H26    H     0.16384   0.03669   0.09320   0.00000  Uiso   1.00
H27    H     0.16950   0.29665   0.24014   0.00000  Uiso   1.00
H28    H     0.16397   0.29521   0.09337   0.00000  Uiso   1.00
H29    H     0.16937   0.03812   0.23997   0.00000  Uiso   1.00
H30    H     0.22646   0.21272   0.05195   0.00000  Uiso   1.00
H31    H     0.10687   0.12061   0.28138   0.00000  Uiso   1.00
H32    H     0.23800   0.22245   0.26246   0.00000  Uiso   1.00
N33    N     0.16665   0.16666   0.28573   0.00000  Uiso   1.00
N34    N     0.16668   0.16668   0.04760   0.00000  Uiso   1.00
O35    O     0.16666   0.10558   0.20487   0.00000  Uiso   1.00
O36    O     0.16667   0.22775   0.12846   0.00000  Uiso   1.00
O37    O     0.16666   0.10559   0.12843   0.00000  Uiso   1.00
O38    O     0.16667   0.22774   0.20490   0.00000  Uiso   1.00
O39    O     0.09058   0.16666   0.19595   0.00000  Uiso   1.00
O40    O     0.24275   0.16667   0.13739   0.00000  Uiso   1.00
O41    O     0.09058   0.16667   0.11950   0.00000  Uiso   1.00
O42    O     0.24275   0.16666   0.21383   0.00000  Uiso   1.00
Zn43   Zn    0.16667   0.16666   0.21771   0.00000  Uiso   1.00
Zn44   Zn    0.16667   0.16667   0.11563   0.00000  Uiso   1.00
C45    C     0.49992   0.08668   0.16652   0.00000  Uiso   1.00
C46    C     0.50149   0.02168   0.20782   0.00000  Uiso   1.00
C47    C     0.50007   0.29084   0.16682   0.00000  Uiso   1.00
C48    C     0.49993   0.04249   0.16651   0.00000  Uiso   1.00
C49    C     0.53330   0.19230   0.02940   0.00000  Uiso   1.00
C50    C     0.46670   0.14103   0.30393   0.00000  Uiso   1.00
C51    C     0.53365   0.19261   0.31511   0.00000  Uiso   1.00
C52    C     0.46635   0.14072   0.01822   0.00000  Uiso   1.00
C53    C     0.57235   0.22243   0.29928   0.00000  Uiso   1.00
C54    C     0.42765   0.11090   0.03405   0.00000  Uiso   1.00
C55    C     0.50008   0.24665   0.16681   0.00000  Uiso   1.00
C56    C     0.40038   0.16660   0.15462   0.00000  Uiso   1.00
C57    C     0.59962   0.16673   0.17871   0.00000  Uiso   1.00
C58    C     0.34518   0.16662   0.14827   0.00000  Uiso   1.00
C59    C     0.65482   0.16671   0.18506   0.00000  Uiso   1.00
C60    C     0.49843   0.02088   0.12537   0.00000  Uiso   1.00
C61    C     0.50157   0.31245   0.20797   0.00000  Uiso   1.00
C62    C     0.49851   0.31165   0.12552   0.00000  Uiso   1.00
H63    H     0.65756   0.16659   0.11347   0.00000  Uiso   1.00
H64    H     0.56429   0.25455   0.30983   0.00000  Uiso   1.00
H65    H     0.61281   0.21455   0.31526   0.00000  Uiso   1.00
H66    H     0.42867   0.11088   0.07088   0.00000  Uiso   1.00
H67    H     0.38719   0.11878   0.01808   0.00000  Uiso   1.00
H68    H     0.43571   0.07878   0.02350   0.00000  Uiso   1.00
H69    H     0.34244   0.16674   0.21986   0.00000  Uiso   1.00
H70    H     0.49717   0.03669   0.09320   0.00000  Uiso   1.00
H71    H     0.50283   0.29665   0.24014   0.00000  Uiso   1.00
H72    H     0.49730   0.29521   0.09337   0.00000  Uiso   1.00
H73    H     0.50270   0.03812   0.23997   0.00000  Uiso   1.00
H74    H     0.55980   0.21272   0.05195   0.00000  Uiso   1.00
H75    H     0.44020   0.12061   0.28138   0.00000  Uiso   1.00
H76    H     0.57133   0.22245   0.26246   0.00000  Uiso   1.00
N77    N     0.49999   0.16666   0.28573   0.00000  Uiso   1.00
N78    N     0.50001   0.16668   0.04760   0.00000  Uiso   1.00
O79    O     0.50000   0.10558   0.20487   0.00000  Uiso   1.00
O80    O     0.50000   0.22775   0.12846   0.00000  Uiso   1.00
O81    O     0.50000   0.10559   0.12843   0.00000  Uiso   1.00
O82    O     0.50000   0.22774   0.20490   0.00000  Uiso   1.00
O83    O     0.42392   0.16666   0.19595   0.00000  Uiso   1.00
O84    O     0.57608   0.16667   0.13739   0.00000  Uiso   1.00
O85    O     0.42392   0.16667   0.11950   0.00000  Uiso   1.00
O86    O     0.57608   0.16666   0.21383   0.00000  Uiso   1.00
Zn87   Zn    0.50000   0.16666   0.21771   0.00000  Uiso   1.00
Zn88   Zn    0.50000   0.16667   0.11563   0.00000  Uiso   1.00
C89    C     0.83325   0.08668   0.16652   0.00000  Uiso   1.00
C90    C     0.83483   0.02168   0.20782   0.00000  Uiso   1.00
C91    C     0.83340   0.29084   0.16682   0.00000  Uiso   1.00
C92    C     0.83327   0.04249   0.16651   0.00000  Uiso   1.00
C93    C     0.86663   0.19230   0.02940   0.00000  Uiso   1.00
C94    C     0.80004   0.14103   0.30393   0.00000  Uiso   1.00
C95    C     0.86699   0.19261   0.31511   0.00000  Uiso   1.00
C96    C     0.79968   0.14072   0.01822   0.00000  Uiso   1.00
C97    C     0.90568   0.22243   0.29928   0.00000  Uiso   1.00
C98    C     0.76099   0.11090   0.03405   0.00000  Uiso   1.00
C99    C     0.83342   0.24665   0.16681   0.00000  Uiso   1.00
C100   C     0.73372   0.16660   0.15462   0.00000  Uiso   1.00
C101   C     0.93295   0.16673   0.17871   0.00000  Uiso   1.00
C102   C     0.67852   0.16662   0.14827   0.00000  Uiso   1.00
C103   C     0.98815   0.16671   0.18506   0.00000  Uiso   1.00
C104   C     0.83176   0.02088   0.12537   0.00000  Uiso   1.00
C105   C     0.83490   0.31245   0.20797   0.00000  Uiso   1.00
C106   C     0.83184   0.31165   0.12552   0.00000  Uiso   1.00
H107   H     0.99089   0.16659   0.11347   0.00000  Uiso   1.00
H108   H     0.89762   0.25455   0.30983   0.00000  Uiso   1.00
H109   H     0.94614   0.21455   0.31526   0.00000  Uiso   1.00
H110   H     0.76200   0.11088   0.07088   0.00000  Uiso   1.00
H111   H     0.72053   0.11878   0.01808   0.00000  Uiso   1.00
H112   H     0.76905   0.07878   0.02350   0.00000  Uiso   1.00
H113   H     0.67577   0.16674   0.21986   0.00000  Uiso   1.00
H114   H     0.83050   0.03669   0.09320   0.00000  Uiso   1.00
H115   H     0.83616   0.29665   0.24014   0.00000  Uiso   1.00
H116   H     0.83063   0.29521   0.09337   0.00000  Uiso   1.00
H117   H     0.83603   0.03812   0.23997   0.00000  Uiso   1.00
H118   H     0.89313   0.21272   0.05195   0.00000  Uiso   1.00
H119   H     0.77354   0.12061   0.28138   0.00000  Uiso   1.00
H120   H     0.90467   0.22245   0.26246   0.00000  Uiso   1.00
N121   N     0.83332   0.16666   0.28573   0.00000  Uiso   1.00
N122   N     0.83335   0.16668   0.04760   0.00000  Uiso   1.00
O123   O     0.83333   0.10558   0.20487   0.00000  Uiso   1.00
O124   O     0.83334   0.22775   0.12846   0.00000  Uiso   1.00
O125   O     0.83333   0.10559   0.12843   0.00000  Uiso   1.00
O126   O     0.83334   0.22774   0.20490   0.00000  Uiso   1.00
O127   O     0.75725   0.16666   0.19595   0.00000  Uiso   1.00
O128   O     0.90942   0.16667   0.13739   0.00000  Uiso   1.00
O129   O     0.75725   0.16667   0.11950   0.00000  Uiso   1.00
O130   O     0.90942   0.16666   0.21383   0.00000  Uiso   1.00
Zn131  Zn    0.83333   0.16666   0.21771   0.00000  Uiso   1.00
Zn132  Zn    0.83333   0.16667   0.11563   0.00000  Uiso   1.00
C133   C     0.16658   0.42002   0.16652   0.00000  Uiso   1.00
C134   C     0.16816   0.35502   0.20782   0.00000  Uiso   1.00
C135   C     0.16673   0.62417   0.16682   0.00000  Uiso   1.00
C136   C     0.16660   0.37583   0.16651   0.00000  Uiso   1.00
C137   C     0.19996   0.52564   0.02940   0.00000  Uiso   1.00
C138   C     0.13337   0.47436   0.30393   0.00000  Uiso   1.00
C139   C     0.20032   0.52594   0.31511   0.00000  Uiso   1.00
C140   C     0.13301   0.47406   0.01822   0.00000  Uiso   1.00
C141   C     0.23902   0.55577   0.29928   0.00000  Uiso   1.00
C142   C     0.09432   0.44423   0.03405   0.00000  Uiso   1.00
C143   C     0.16675   0.57998   0.16681   0.00000  Uiso   1.00
C144   C     0.06705   0.49994   0.15462   0.00000  Uiso   1.00
C145   C     0.26629   0.50006   0.17871   0.00000  Uiso   1.00
C146   C     0.01185   0.49996   0.14827   0.00000  Uiso   1.00
C147   C     0.32148   0.50004   0.18506   0.00000  Uiso   1.00
C148   C     0.16510   0.35421   0.12537   0.00000  Uiso   1.00
C149   C     0.16824   0.64579   0.20797   0.00000  Uiso   1.00
C150   C     0.16517   0.64498   0.12552   0.00000  Uiso   1.00
H151   H     0.32423   0.49992   0.11347   0.00000  Uiso   1.00
H152   H     0.23095   0.58789   0.30983   0.00000  Uiso   1.00
H153   H     0.27947   0.54789   0.31526   0.00000  Uiso   1.00
H154   H     0.09533   0.44422   0.07088   0.00000  Uiso   1.00
H155   H     0.05386   0.45211   0.01808   0.00000  Uiso   1.00
H156   H     0.10238   0.41211   0.02350   0.00000  Uiso   1.00
H157   H     0.00911   0.50008   0.21986   0.00000  Uiso   1.00
H158   H     0.16384   0.37002   0.09320   0.00000  Uiso   1.00
H159   H     0.16950   0.62998   0.24014   0.00000  Uiso   1.00
H160   H     0.16397   0.62855   0.09337   0.00000  Uiso   1.00
H161   H     0.16937   0.37145   0.23997   0.00000  Uiso   1.00
H162   H     0.22646   0.54605   0.05195   0.00000  Uiso   1.00
H163   H     0.10687   0.45395   0.28138   0.00000  Uiso   1.00
H164   H     0.23800   0.55578   0.26246   0.00000  Uiso   1.00
N165   N     0.16665   0.49999   0.28573   0.00000  Uiso   1.00
N166   N     0.16668   0.50001   0.04760   0.00000  Uiso   1.00
O167   O     0.16666   0.43892   0.20487   0.00000  Uiso   1.00
O168   O     0.16667   0.56108   0.12846   0.00000  Uiso   1.00
O169   O     0.16666   0.43893   0.12843   0.00000  Uiso   1.00
O170   O     0.16667   0.56107   0.20490   0.00000  Uiso   1.00
O171   O     0.09058   0.50000   0.19595   0.00000  Uiso   1.00
O172   O     0.24275   0.50000   0.13739   0.00000  Uiso   1.00
O173   O     0.09058   0.50000   0.11950   0.00000  Uiso   1.00
O174   O     0.24275   0.50000   0.21383   0.00000  Uiso   1.00
Zn175  Zn    0.16667   0.49999   0.21771   0.00000  Uiso   1.00
Zn176  Zn    0.16667   0.50001   0.11563   0.00000  Uiso   1.00
C177   C     0.49992   0.42002   0.16652   0.00000  Uiso   1.00
C178   C     0.50149   0.35502   0.20782   0.00000  Uiso   1.00
C179   C     0.50007   0.62417   0.16682   0.00000  Uiso   1.00
C180   C     0.49993   0.37583   0.16651   0.00000  Uiso   1.00
C181   C     0.53330   0.52564   0.02940   0.00000  Uiso   1.00
C182   C     0.46670   0.47436   0.30393   0.00000  Uiso   1.00
C183   C     0.53365   0.52594   0.31511   0.00000  Uiso   1.00
C184   C     0.46635   0.47406   0.01822   0.00000  Uiso   1.00
C185   C     0.57235   0.55577   0.29928   0.00000  Uiso   1.00
C186   C     0.42765   0.44423   0.03405   0.00000  Uiso   1.00
C187   C     0.50008   0.57998   0.16681   0.00000  Uiso   1.00
C188   C     0.40038   0.49994   0.15462   0.00000  Uiso   1.00
C189   C     0.59962   0.50006   0.17871   0.00000  Uiso   1.00
C190   C     0.34518   0.49996   0.14827   0.00000  Uiso   1.00
C191   C     0.65482   0.50004   0.18506   0.00000  Uiso   1.00
C192   C     0.49843   0.35421   0.12537   0.00000  Uiso   1.00
C193   C     0.50157   0.64579   0.20797   0.00000  Uiso   1.00
C194   C     0.49851   0.64498   0.12552   0.00000  Uiso   1.00
H195   H     0.65756   0.49992   0.11347   0.00000  Uiso   1.00
H196   H     0.56429   0.58789   0.30983   0.00000  Uiso   1.00
H197   H     0.61281   0.54789   0.31526   0.00000  Uiso   1.00
H198   H     0.42867   0.44422   0.07088   0.00000  Uiso   1.00
H199   H     0.38719   0.45211   0.01808   0.00000  Uiso   1.00
H200   H     0.43571   0.41211   0.02350   0.00000  Uiso   1.00
H201   H     0.34244   0.50008   0.21986   0.00000  Uiso   1.00
H202   H     0.49717   0.37002   0.09320   0.00000  Uiso   1.00
H203   H     0.50283   0.62998   0.24014   0.00000  Uiso   1.00
H204   H     0.49730   0.62855   0.09337   0.00000  Uiso   1.00
H205   H     0.50270   0.37145   0.23997   0.00000  Uiso   1.00
H206   H     0.55980   0.54605   0.05195   0.00000  Uiso   1.00
H207   H     0.44020   0.45395   0.28138   0.00000  Uiso   1.00
H208   H     0.57133   0.55578   0.26246   0.00000  Uiso   1.00
N209   N     0.49999   0.49999   0.28573   0.00000  Uiso   1.00
N210   N     0.50001   0.50001   0.04760   0.00000  Uiso   1.00
O211   O     0.50000   0.43892   0.20487   0.00000  Uiso   1.00
O212   O     0.50000   0.56108   0.12846   0.00000  Uiso   1.00
O213   O     0.50000   0.43893   0.12843   0.00000  Uiso   1.00
O214   O     0.50000   0.56107   0.20490   0.00000  Uiso   1.00
O215   O     0.42392   0.50000   0.19595   0.00000  Uiso   1.00
O216   O     0.57608   0.50000   0.13739   0.00000  Uiso   1.00
O217   O     0.42392   0.50000   0.11950   0.00000  Uiso   1.00
O218   O     0.57608   0.50000   0.21383   0.00000  Uiso   1.00
Zn219  Zn    0.50000   0.49999   0.21771   0.00000  Uiso   1.00
Zn220  Zn    0.50000   0.50001   0.11563   0.00000  Uiso   1.00
C221   C     0.83325   0.42002   0.16652   0.00000  Uiso   1.00
C222   C     0.83483   0.35502   0.20782   0.00000  Uiso   1.00
C223   C     0.83340   0.62417   0.16682   0.00000  Uiso   1.00
C224   C     0.83327   0.37583   0.16651   0.00000  Uiso   1.00
C225   C     0.86663   0.52564   0.02940   0.00000  Uiso   1.00
C226   C     0.80004   0.47436   0.30393   0.00000  Uiso   1.00
C227   C     0.86699   0.52594   0.31511   0.00000  Uiso   1.00
C228   C     0.79968   0.47406   0.01822   0.00000  Uiso   1.00
C229   C     0.90568   0.55577   0.29928   0.00000  Uiso   1.00
C230   C     0.76099   0.44423   0.03405   0.00000  Uiso   1.00
C231   C     0.83342   0.57998   0.16681   0.00000  Uiso   1.00
C232   C     0.73372   0.49994   0.15462   0.00000  Uiso   1.00
C233   C     0.93295   0.50006   0.17871   0.00000  Uiso   1.00
C234   C     0.67852   0.49996   0.14827   0.00000  Uiso   1.00
C235   C     0.98815   0.50004   0.18506   0.00000  Uiso   1.00
C236   C     0.83176   0.35421   0.12537   0.00000  Uiso   1.00
C237   C     0.83490   0.64579   0.20797   0.00000  Uiso   1.00
C238   C     0.83184   0.64498   0.12552   0.00000  Uiso   1.00
H239   H     0.99089   0.49992   0.11347   0.00000  Uiso   1.00
H240   H     0.89762   0.58789   0.30983   0.00000  Uiso   1.00
H241   H     0.94614   0.54789   0.31526   0.00000  Uiso   1.00
H242   H     0.76200   0.44422   0.07088   0.00000  Uiso   1.00
H243   H     0.72053   0.45211   0.01808   0.00000  Uiso   1.00
H244   H     0.76905   0.41211   0.02350   0.00000  Uiso   1.00
H245   H     0.67577   0.50008   0.21986   0.00000  Uiso   1.00
H246   H     0.83050   0.37002   0.09320   0.00000  Uiso   1.00
H247   H     0.83616   0.62998   0.24014   0.00000  Uiso   1.00
H248   H     0.83063   0.62855   0.09337   0.00000  Uiso   1.00
H249   H     0.83603   0.37145   0.23997   0.00000  Uiso   1.00
H250   H     0.89313   0.54605   0.05195   0.00000  Uiso   1.00
H251   H     0.77354   0.45395   0.28138   0.00000  Uiso   1.00
H252   H     0.90467   0.55578   0.26246   0.00000  Uiso   1.00
N253   N     0.83332   0.49999   0.28573   0.00000  Uiso   1.00
N254   N     0.83335   0.50001   0.04760   0.00000  Uiso   1.00
O255   O     0.83333   0.43892   0.20487   0.00000  Uiso   1.00
O256   O     0.83334   0.56108   0.12846   0.00000  Uiso   1.00
O257   O     0.83333   0.43893   0.12843   0.00000  Uiso   1.00
O258   O     0.83334   0.56107   0.20490   0.00000  Uiso   1.00
O259   O     0.75725   0.50000   0.19595   0.00000  Uiso   1.00
O260   O     0.90942   0.50000   0.13739   0.00000  Uiso   1.00
O261   O     0.75725   0.50000   0.11950   0.00000  Uiso   1.00
O262   O     0.90942   0.50000   0.21383   0.00000  Uiso   1.00
Zn263  Zn    0.83333   0.49999   0.21771   0.00000  Uiso   1.00
Zn264  Zn    0.83333   0.50001   0.11563   0.00000  Uiso   1.00
C265   C     0.16658   0.75335   0.16652   0.00000  Uiso   1.00
C266   C     0.16816   0.68835   0.20782   0.00000  Uiso   1.00
C267   C     0.16673   0.95751   0.16682   0.00000  Uiso   1.00
C268   C     0.16660   0.70916   0.16651   0.00000  Uiso   1.00
C269   C     0.19996   0.85897   0.02940   0.00000  Uiso   1.00
C270   C     0.13337   0.80770   0.30393   0.00000  Uiso   1.00
C271   C     0.20032   0.85928   0.31511   0.00000  Uiso   1.00
C272   C     0.13301   0.80739   0.01822   0.00000  Uiso   1.00
C273   C     0.23902   0.88910   0.29928   0.00000  Uiso   1.00
C274   C     0.09432   0.77757   0.03405   0.00000  Uiso   1.00
C275   C     0.16675   0.91332   0.16681   0.00000  Uiso   1.00
C276   C     0.06705   0.83327   0.15462   0.00000  Uiso   1.00
C277   C     0.26629   0.83340   0.17871   0.00000  Uiso   1.00
C278   C     0.01185   0.83329   0.14827   0.00000  Uiso   1.00
C279   C     0.32148   0.83338   0.18506   0.00000  Uiso   1.00
C280   C     0.16510   0.68755   0.12537   0.00000  Uiso   1.00
C281   C     0.16824   0.97912   0.20797   0.00000  Uiso   1.00
C282   C     0.16517   0.97832   0.12552   0.00000  Uiso   1.00
H283   H     0.32423   0.83326   0.11347   0.00000  Uiso   1.00
H284   H     0.23095   0.92122   0.30983   0.00000  Uiso   1.00
H285   H     0.27947   0.88122   0.31526   0.00000  Uiso   1.00
H286   H     0.09533   0.77755   0.07088   0.00000  Uiso   1.00
H287   H     0.05386   0.78545   0.01808   0.00000  Uiso   1.00
H288   H     0.10238   0.74545   0.02350   0.00000  Uiso   1.00
H289   H     0.00911   0.83341   0.21986   0.00000  Uiso   1.00
H290   H     0.16384   0.70335   0.09320   0.00000  Uiso   1.00
H291   H     0.16950   0.96331   0.24014   0.00000  Uiso   1.00
H292   H     0.16397   0.96188   0.09337   0.00000  Uiso   1.00
H293   H     0.16937   0.70479   0.23997   0.00000  Uiso   1.00
H294   H     0.22646   0.87939   0.05195   0.00000  Uiso   1.00
H295   H     0.10687   0.78728   0.28138   0.00000  Uiso   1.00
H296   H     0.23800   0.88912   0.26246   0.00000  Uiso   1.00
N297   N     0.16665   0.83332   0.28573   0.00000  Uiso   1.00
N298   N     0.16668   0.83334   0.04760   0.00000  Uiso   1.00
O299   O     0.16666   0.77225   0.20487   0.00000  Uiso   1.00
O300   O     0.16667   0.89442   0.12846   0.00000  Uiso   1.00
O301   O     0.16666   0.77226   0.12843   0.00000  Uiso   1.00
O302   O     0.16667   0.89441   0.20490   0.00000  Uiso   1.00
O303   O     0.09058   0.83333   0.19595   0.00000  Uiso   1.00
O304   O     0.24275   0.83334   0.13739   0.00000  Uiso   1.00
O305   O     0.09058   0.83334   0.11950   0.00000  Uiso   1.00
O306   O     0.24275   0.83333   0.21383   0.00000  Uiso   1.00
Zn307  Zn    0.16667   0.83333   0.21771   0.00000  Uiso   1.00
Zn308  Zn    0.16667   0.83334   0.11563   0.00000  Uiso   1.00
C309   C     0.49992   0.75335   0.16652   0.00000  Uiso   1.00
C310   C     0.50149   0.68835   0.20782   0.00000  Uiso   1.00
C311   C     0.50007   0.95751   0.16682   0.00000  Uiso   1.00
C312   C     0.49993   0.70916   0.16651   0.00000  Uiso   1.00
C313   C     0.53330   0.85897   0.02940   0.00000  Uiso   1.00
C314   C     0.46670   0.80770   0.30393   0.00000  Uiso   1.00
C315   C     0.53365   0.85928   0.31511   0.00000  Uiso   1.00
C316   C     0.46635   0.80739   0.01822   0.00000  Uiso   1.00
C317   C     0.57235   0.88910   0.29928   0.00000  Uiso   1.00
C318   C     0.42765   0.77757   0.03405   0.00000  Uiso   1.00
C319   C     0.50008   0.91332   0.16681   0.00000  Uiso   1.00
C320   C     0.40038   0.83327   0.15462   0.00000  Uiso   1.00
C321   C     0.59962   0.83340   0.17871   0.00000  Uiso   1.00
C322   C     0.34518   0.83329   0.14827   0.00000  Uiso   1.00
C323   C     0.65482   0.83338   0.18506   0.00000  Uiso   1.00
C324   C     0.49843   0.68755   0.12537   0.00000  Uiso   1.00
C325   C     0.50157   0.97912   0.20797   0.00000  Uiso   1.00
C326   C     0.49851   0.97832   0.12552   0.00000  Uiso   1.00
H327   H     0.65756   0.83326   0.11347   0.00000  Uiso   1.00
H328   H     0.56429   0.92122   0.30983   0.00000  Uiso   1.00
H329   H     0.61281   0.88122   0.31526   0.00000  Uiso   1.00
H330   H     0.42867   0.77755   0.07088   0.00000  Uiso   1.00
H331   H     0.38719   0.78545   0.01808   0.00000  Uiso   1.00
H332   H     0.43571   0.74545   0.02350   0.00000  Uiso   1.00
H333   H     0.34244   0.83341   0.21986   0.00000  Uiso   1.00
H334   H     0.49717   0.70335   0.09320   0.00000  Uiso   1.00
H335   H     0.50283   0.96331   0.24014   0.00000  Uiso   1.00
H336   H     0.49730   0.96188   0.09337   0.00000  Uiso   1.00
H337   H     0.50270   0.70479   0.23997   0.00000  Uiso   1.00
H338   H     0.55980   0.87939   0.05195   0.00000  Uiso   1.00
H339   H     0.44020   0.78728   0.28138   0.00000  Uiso   1.00
H340   H     0.57133   0.88912   0.26246   0.00000  Uiso   1.00
N341   N     0.49999   0.83332   0.28573   0.00000  Uiso   1.00
N342   N     0.50001   0.83334   0.04760   0.00000  Uiso   1.00
O343   O     0.50000   0.77225   0.20487   0.00000  Uiso   1.00
O344   O     0.50000   0.89442   0.12846   0.00000  Uiso   1.00
O345   O     0.50000   0.77226   0.12843   0.00000  Uiso   1.00
O346   O     0.50000   0.89441   0.20490   0.00000  Uiso   1.00
O347   O     0.42392   0.83333   0.19595   0.00000  Uiso   1.00
O348   O     0.57608   0.83334   0.13739   0.00000  Uiso   1.00
O349   O     0.42392   0.83334   0.11950   0.00000  Uiso   1.00
O350   O     0.57608   0.83333   0.21383   0.00000  Uiso   1.00
Zn351  Zn    0.50000   0.83333   0.21771   0.00000  Uiso   1.00
Zn352  Zn    0.50000   0.83334   0.11563   0.00000  Uiso   1.00
C353   C     0.83325   0.75335   0.16652   0.00000  Uiso   1.00
C354   C     0.83483   0.68835   0.20782   0.00000  Uiso   1.00
C355   C     0.83340   0.95751   0.16682   0.00000  Uiso   1.00
C356   C     0.83327   0.70916   0.16651   0.00000  Uiso   1.00
C357   C     0.86663   0.85897   0.02940   0.00000  Uiso   1.00
C358   C     0.80004   0.80770   0.30393   0.00000  Uiso   1.00
C359   C     0.86699   0.85928   0.31511   0.00000  Uiso   1.00
C360   C     0.79968   0.80739   0.01822   0.00000  Uiso   1.00
C361   C     0.90568   0.88910   0.29928   0.00000  Uiso   1.00
C362   C     0.76099   0.77757   0.03405   0.00000  Uiso   1.00
C363   C     0.83342   0.91332   0.16681   0.00000  Uiso   1.00
C364   C     0.73372   0.83327   0.15462   0.00000  Uiso   1.00
C365   C     0.93295   0.83340   0.17871   0.00000  Uiso   1.00
C366   C     0.67852   0.83329   0.14827   0.00000  Uiso   1.00
C367   C     0.98815   0.83338   0.18506   0.00000  Uiso   1.00
C368   C     0.83176   0.68755   0.12537   0.00000  Uiso   1.00
C369   C     0.83490   0.97912   0.20797   0.00000  Uiso   1.00
C370   C     0.83184   0.97832   0.12552   0.00000  Uiso   1.00
H371   H     0.99089   0.83326   0.11347   0.00000  Uiso   1.00
H372   H     0.89762   0.92122   0.30983   0.00000  Uiso   1.00
H373   H     0.94614   0.88122   0.31526   0.00000  Uiso   1.00
H374   H     0.76200   0.77755   0.07088   0.00000  Uiso   1.00
H375   H     0.72053   0.78545   0.01808   0.00000  Uiso   1.00
H376   H     0.76905   0.74545   0.02350   0.00000  Uiso   1.00
H377   H     0.67577   0.83341   0.21986   0.00000  Uiso   1.00
H378   H     0.83050   0.70335   0.09320   0.00000  Uiso   1.00
H379   H     0.83616   0.96331   0.24014   0.00000  Uiso   1.00
H380   H     0.83063   0.96188   0.09337   0.00000  Uiso   1.00
H381   H     0.83603   0.70479   0.23997   0.00000  Uiso   1.00
H382   H     0.89313   0.87939   0.05195   0.00000  Uiso   1.00
H383   H     0.77354   0.78728   0.28138   0.00000  Uiso   1.00
H384   H     0.90467   0.88912   0.26246   0.00000  Uiso   1.00
N385   N     0.83332   0.83332   0.28573   0.00000  Uiso   1.00
N386   N     0.83335   0.83334   0.04760   0.00000  Uiso   1.00
O387   O     0.83333   0.77225   0.20487   0.00000  Uiso   1.00
O388   O     0.83334   0.89442   0.12846   0.00000  Uiso   1.00
O389   O     0.83333   0.77226   0.12843   0.00000  Uiso   1.00
O390   O     0.83334   0.89441   0.20490   0.00000  Uiso   1.00
O391   O     0.75725   0.83333   0.19595   0.00000  Uiso   1.00
O392   O     0.90942   0.83334   0.13739   0.00000  Uiso   1.00
O393   O     0.75725   0.83334   0.11950   0.00000  Uiso   1.00
O394   O     0.90942   0.83333   0.21383   0.00000  Uiso   1.00
Zn395  Zn    0.83333   0.83333   0.21771   0.00000  Uiso   1.00
Zn396  Zn    0.83333   0.83334   0.11563   0.00000  Uiso   1.00
C397   C     0.16658   0.08668   0.49985   0.00000  Uiso   1.00
C398   C     0.16816   0.02168   0.54115   0.00000  Uiso   1.00
C399   C     0.16673   0.29084   0.50016   0.00000  Uiso   1.00
C400   C     0.16660   0.04249   0.49984   0.00000  Uiso   1.00
C401   C     0.19996   0.19230   0.36273   0.00000  Uiso   1.00
C402   C     0.13337   0.14103   0.63726   0.00000  Uiso   1.00
C403   C     0.20032   0.19261   0.64845   0.00000  Uiso   1.00
C404   C     0.13301   0.14072   0.35155   0.00000  Uiso   1.00
C405   C     0.23902   0.22243   0.63261   0.00000  Uiso   1.00
C406   C     0.09432   0.11090   0.36739   0.00000  Uiso   1.00
C407   C     0.16675   0.24665   0.50015   0.00000  Uiso   1.00
C408   C     0.06705   0.16660   0.48796   0.00000  Uiso   1.00
C409   C     0.26629   0.16673   0.51204   0.00000  Uiso   1.00
C410   C     0.01185   0.16662   0.48160   0.00000  Uiso   1.00
C411   C     0.32148   0.16671   0.51840   0.00000  Uiso   1.00
C412   C     0.16510   0.02088   0.45870   0.00000  Uiso   1.00
C413   C     0.16824   0.31245   0.54130   0.00000  Uiso   1.00
C414   C     0.16517   0.31165   0.45885   0.00000  Uiso   1.00
H415   H     0.32423   0.16659   0.44680   0.00000  Uiso   1.00
H416   H     0.23095   0.25455   0.64316   0.00000  Uiso   1.00
H417   H     0.27947   0.21455   0.64859   0.00000  Uiso   1.00
H418   H     0.09533   0.11088   0.40421   0.00000  Uiso   1.00
H419   H     0.05386   0.11878   0.35141   0.00000  Uiso   1.00
H420   H     0.10238   0.07878   0.35684   0.00000  Uiso   1.00
H421   H     0.00911   0.16674   0.55320   0.00000  Uiso   1.00
H422   H     0.16384   0.03669   0.42653   0.00000  Uiso   1.00
H423   H     0.16950   0.29665   0.57347   0.00000  Uiso   1.00
H424   H     0.16397   0.29521   0.42670   0.00000  Uiso   1.00
H425   H     0.16937   0.03812   0.57330   0.00000  Uiso   1.00
H426   H     0.22646   0.21272   0.38528   0.00000  Uiso   1.00
H427   H     0.10687   0.12061   0.61472   0.00000  Uiso   1.00
H428   H     0.23800   0.22245   0.59579   0.00000  Uiso   1.00
N429   N     0.16665   0.16666   0.61907   0.00000  Uiso   1.00
N430   N     0.16668   0.16668   0.38093   0.00000  Uiso   1.00
O431   O     0.16666   0.10558   0.53821   0.00000  Uiso   1.00
O432   O     0.16667   0.22775   0.46179   0.00000  Uiso   1.00
O433   O     0.16666   0.10559   0.46176   0.00000  Uiso   1.00
O434   O     0.16667   0.22774   0.53824   0.00000  Uiso   1.00
O435   O     0.09058   0.16666   0.52928   0.00000  Uiso   1.00
O436   O     0.24275   0.16667   0.47072   0.00000  Uiso   1.00
O437   O     0.09058   0.16667   0.45284   0.00000  Uiso   1.00
O438   O     0.24275   0.16666   0.54716   0.00000  Uiso   1.00
Zn439  Zn    0.16667   0.16666   0.55104   0.00000  Uiso   1.00
Zn440  Zn    0.16667   0.16667   0.44896   0.00000  Uiso   1.00
C441   C     0.49992   0.08668   0.49985   0.00000  Uiso   1.00
C442   C     0.50149   0.02168   0.54115   0.00000  Uiso   1.00
C443   C     0.50007   0.29084   0.50016   0.00000  Uiso   1.00
C444   C     0.49993   0.04249   0.49984   0.00000  Uiso   1.00
C445   C     0.53330   0.19230   0.36273   0.00000  Uiso   1.00
C446   C     0.46670   0.14103   0.63726   0.00000  Uiso   1.00
C447   C     0.53365   0.19261   0.64845   0.00000  Uiso   1.00
C448   C     0.46635   0.14072   0.35155   0.00000  Uiso   1.00
C449   C     0.57235   0.22243   0.63261   0.00000  Uiso   1.00
C450   C     0.42765   0.11090   0.36739   0.00000  Uiso   1.00
C451   C     0.50008   0.24665   0.50015   0.00000  Uiso   1.00
C452   C     0.40038   0.16660   0.48796   0.00000  Uiso   1.00
C453   C     0.59962   0.16673   0.51204   0.00000  Uiso   1.00
C454   C     0.34518   0.16662   0.48160   0.00000  Uiso   1.00
C455   C     0.65482   0.16671   0.51840   0.00000  Uiso   1.00
C456   C     0.49843   0.02088   0.45870   0.00000  Uiso   1.00
C457   C     0.50157   0.31245   0.54130   0.00000  Uiso   1.00
C458   C     0.49851   0.31165   0.45885   0.00000  Uiso   1.00
H459   H     0.65756   0.16659   0.44680   0.00000  Uiso   1.00
H460   H     0.56429   0.25455   0.64316   0.00000  Uiso   1.00
H461   H     0.61281   0.21455   0.64859   0.00000  Uiso   1.00
H462   H     0.42867   0.11088   0.40421   0.00000  Uiso   1.00
H463   H     0.38719   0.11878   0.35141   0.00000  Uiso   1.00
H464   H     0.43571   0.07878   0.35684   0.00000  Uiso   1.00
H465   H     0.34244   0.16674   0.55320   0.00000  Uiso   1.00
H466   H     0.49717   0.03669   0.42653   0.00000  Uiso   1.00
H467   H     0.50283   0.29665   0.57347   0.00000  Uiso   1.00
H468   H     0.49730   0.29521   0.42670   0.00000  Uiso   1.00
H469   H     0.50270   0.03812   0.57330   0.00000  Uiso   1.00
H470   H     0.55980   0.21272   0.38528   0.00000  Uiso   1.00
H471   H     0.44020   0.12061   0.61472   0.00000  Uiso   1.00
H472   H     0.57133   0.22245   0.59579   0.00000  Uiso   1.00
N473   N     0.49999   0.16666   0.61907   0.00000  Uiso   1.00
N474   N     0.50001   0.16668   0.38093   0.00000  Uiso   1.00
O475   O     0.50000   0.10558   0.53821   0.00000  Uiso   1.00
O476   O     0.50000   0.22775   0.46179   0.00000  Uiso   1.00
O477   O     0.50000   0.10559   0.46176   0.00000  Uiso   1.00
O478   O     0.50000   0.22774   0.53824   0.00000  Uiso   1.00
O479   O     0.42392   0.16666   0.52928   0.00000  Uiso   1.00
O480   O     0.57608   0.16667   0.47072   0.00000  Uiso   1.00
O481   O     0.42392   0.16667   0.45284   0.00000  Uiso   1.00
O482   O     0.57608   0.16666   0.54716   0.00000  Uiso   1.00
Zn483  Zn    0.50000   0.16666   0.55104   0.00000  Uiso   1.00
Zn484  Zn    0.50000   0.16667   0.44896   0.00000  Uiso   1.00
C485   C     0.83325   0.08668   0.49985   0.00000  Uiso   1.00
C486   C     0.83483   0.02168   0.54115   0.00000  Uiso   1.00
C487   C     0.83340   0.29084   0.50016   0.00000  Uiso   1.00
C488   C     0.83327   0.04249   0.49984   0.00000  Uiso   1.00
C489   C     0.86663   0.19230   0.36273   0.00000  Uiso   1.00
C490   C     0.80004   0.14103   0.63726   0.00000  Uiso   1.00
C491   C     0.86699   0.19261   0.64845   0.00000  Uiso   1.00
C492   C     0.79968   0.14072   0.35155   0.00000  Uiso   1.00
C493   C     0.90568   0.22243   0.63261   0.00000  Uiso   1.00
C494   C     0.76099   0.11090   0.36739   0.00000  Uiso   1.00
C495   C     0.83342   0.24665   0.50015   0.00000  Uiso   1.00
C496   C     0.73372   0.16660   0.48796   0.00000  Uiso   1.00
C497   C     0.93295   0.16673   0.51204   0.00000  Uiso   1.00
C498   C     0.67852   0.16662   0.48160   0.00000  Uiso   1.00
C499   C     0.98815   0.16671   0.51840   0.00000  Uiso   1.00
C500   C     0.83176   0.02088   0.45870   0.00000  Uiso   1.00
C501   C     0.83490   0.31245   0.54130   0.00000  Uiso   1.00
C502   C     0.83184   0.31165   0.45885   0.00000  Uiso   1.00
H503   H     0.99089   0.16659   0.44680   0.00000  Uiso   1.00
H504   H     0.89762   0.25455   0.64316   0.00000  Uiso   1.00
H505   H     0.94614   0.21455   0.64859   0.00000  Uiso   1.00
H506   H     0.76200   0.11088   0.40421   0.00000  Uiso   1.00
H507   H     0.72053   0.11878   0.35141   0.00000  Uiso   1.00
H508   H     0.76905   0.07878   0.35684   0.00000  Uiso   1.00
H509   H     0.67577   0.16674   0.55320   0.00000  Uiso   1.00
H510   H     0.83050   0.03669   0.42653   0.00000  Uiso   1.00
H511   H     0.83616   0.29665   0.57347   0.00000  Uiso   1.00
H512   H     0.83063   0.29521   0.42670   0.00000  Uiso   1.00
H513   H     0.83603   0.03812   0.57330   0.00000  Uiso   1.00
H514   H     0.89313   0.21272   0.38528   0.00000  Uiso   1.00
H515   H     0.77354   0.12061   0.61472   0.00000  Uiso   1.00
H516   H     0.90467   0.22245   0.59579   0.00000  Uiso   1.00
N517   N     0.83332   0.16666   0.61907   0.00000  Uiso   1.00
N518   N     0.83335   0.16668   0.38093   0.00000  Uiso   1.00
O519   O     0.83333   0.10558   0.53821   0.00000  Uiso   1.00
O520   O     0.83334   0.22775   0.46179   0.00000  Uiso   1.00
O521   O     0.83333   0.10559   0.46176   0.00000  Uiso   1.00
O522   O     0.83334   0.22774   0.53824   0.00000  Uiso   1.00
O523   O     0.75725   0.16666   0.52928   0.00000  Uiso   1.00
O524   O     0.90942   0.16667   0.47072   0.00000  Uiso   1.00
O525   O     0.75725   0.16667   0.45284   0.00000  Uiso   1.00
O526   O     0.90942   0.16666   0.54716   0.00000  Uiso   1.00
Zn527  Zn    0.83333   0.16666   0.55104   0.00000  Uiso   1.00
Zn528  Zn    0.83333   0.16667   0.44896   0.00000  Uiso   1.00
C529   C     0.16658   0.42002   0.49985   0.00000  Uiso   1.00
C530   C     0.16816   0.35502   0.54115   0.00000  Uiso   1.00
C531   C     0.16673   0.62417   0.50016   0.00000  Uiso   1.00
C532   C     0.16660   0.37583   0.49984   0.00000  Uiso   1.00
C533   C     0.19996   0.52564   0.36273   0.00000  Uiso   1.00
C534   C     0.13337   0.47436   0.63726   0.00000  Uiso   1.00
C535   C     0.20032   0.52594   0.64845   0.00000  Uiso   1.00
C536   C     0.13301   0.47406   0.35155   0.00000  Uiso   1.00
C537   C     0.23902   0.55577   0.63261   0.00000  Uiso   1.00
C538   C     0.09432   0.44423   0.36739   0.00000  Uiso   1.00
C539   C     0.16675   0.57998   0.50015   0.00000  Uiso   1.00
C540   C     0.06705   0.49994   0.48796   0.00000  Uiso   1.00
C541   C     0.26629   0.50006   0.51204   0.00000  Uiso   1.00
C542   C     0.01185   0.49996   0.48160   0.00000  Uiso   1.00
C543   C     0.32148   0.50004   0.51840   0.00000  Uiso   1.00
C544   C     0.16510   0.35421   0.45870   0.00000  Uiso   1.00
C545   C     0.16824   0.64579   0.54130   0.00000  Uiso   1.00
C546   C     0.16517   0.64498   0.45885   0.00000  Uiso   1.00
H547   H     0.32423   0.49992   0.44680   0.00000  Uiso   1.00
H548   H     0.23095   0.58789   0.64316   0.00000  Uiso   1.00
H549   H     0.27947   0.54789   0.64859   0.00000  Uiso   1.00
H550   H     0.09533   0.44422   0.40421   0.00000  Uiso   1.00
H551   H     0.05386   0.45211   0.35141   0.00000  Uiso   1.00
H552   H     0.10238   0.41211   0.35684   0.00000  Uiso   1.00
H553   H     0.00911   0.50008   0.55320   0.00000  Uiso   1.00
H554   H     0.16384   0.37002   0.42653   0.00000  Uiso   1.00
H555   H     0.16950   0.62998   0.57347   0.00000  Uiso   1.00
H556   H     0.16397   0.62855   0.42670   0.00000  Uiso   1.00
H557   H     0.16937   0.37145   0.57330   0.00000  Uiso   1.00
H558   H     0.22646   0.54605   0.38528   0.00000  Uiso   1.00
H559   H     0.10687   0.45395   0.61472   0.00000  Uiso   1.00
H560   H     0.23800   0.55578   0.59579   0.00000  Uiso   1.00
N561   N     0.16665   0.49999   0.61907   0.00000  Uiso   1.00
N562   N     0.16668   0.50001   0.38093   0.00000  Uiso   1.00
O563   O     0.16666   0.43892   0.53821   0.00000  Uiso   1.00
O564   O     0.16667   0.56108   0.46179   0.00000  Uiso   1.00
O565   O     0.16666   0.43893   0.46176   0.00000  Uiso   1.00
O566   O     0.16667   0.56107   0.53824   0.00000  Uiso   1.00
O567   O     0.09058   0.50000   0.52928   0.00000  Uiso   1.00
O568   O     0.24275   0.50000   0.47072   0.00000  Uiso   1.00
O569   O     0.09058   0.50000   0.45284   0.00000  Uiso   1.00
O570   O     0.24275   0.50000   0.54716   0.00000  Uiso   1.00
Zn571  Zn    0.16667   0.49999   0.55104   0.00000  Uiso   1.00
Zn572  Zn    0.16667   0.50001   0.44896   0.00000  Uiso   1.00
C573   C     0.49992   0.42002   0.49985   0.00000  Uiso   1.00
C574   C     0.50149   0.35502   0.54115   0.00000  Uiso   1.00
C575   C     0.50007   0.62417   0.50016   0.00000  Uiso   1.00
C576   C     0.49993   0.37583   0.49984   0.00000  Uiso   1.00
C577   C     0.53330   0.52564   0.36273   0.00000  Uiso   1.00
C578   C     0.46670   0.47436   0.63726   0.00000  Uiso   1.00
C579   C     0.53365   0.52594   0.64845   0.00000  Uiso   1.00
C580   C     0.46635   0.47406   0.35155   0.00000  Uiso   1.00
C581   C     0.57235   0.55577   0.63261   0.00000  Uiso   1.00
C582   C     0.42765   0.44423   0.36739   0.00000  Uiso   1.00
C583   C     0.50008   0.57998   0.50015   0.00000  Uiso   1.00
C584   C     0.40038   0.49994   0.48796   0.00000  Uiso   1.00
C585   C     0.59962   0.50006   0.51204   0.00000  Uiso   1.00
C586   C     0.34518   0.49996   0.48160   0.00000  Uiso   1.00
C587   C     0.65482   0.50004   0.51840   0.00000  Uiso   1.00
C588   C     0.49843   0.35421   0.45870   0.00000  Uiso   1.00
C589   C     0.50157   0.64579   0.54130   0.00000  Uiso   1.00
C590   C     0.49851   0.64498   0.45885   0.00000  Uiso   1.00
H591   H     0.65756   0.49992   0.44680   0.00000  Uiso   1.00
H592   H     0.56429   0.58789   0.64316   0.00000  Uiso   1.00
H593   H     0.61281   0.54789   0.64859   0.00000  Uiso   1.00
H594   H     0.42867   0.44422   0.40421   0.00000  Uiso   1.00
H595   H     0.38719   0.45211   0.35141   0.00000  Uiso   1.00
H596   H     0.43571   0.41211   0.35684   0.00000  Uiso   1.00
H597   H     0.34244   0.50008   0.55320   0.00000  Uiso   1.00
H598   H     0.49717   0.37002   0.42653   0.00000  Uiso   1.00
H599   H     0.50283   0.62998   0.57347   0.00000  Uiso   1.00
H600   H     0.49730   0.62855   0.42670   0.00000  Uiso   1.00
H601   H     0.50270   0.37145   0.57330   0.00000  Uiso   1.00
H602   H     0.55980   0.54605   0.38528   0.00000  Uiso   1.00
H603   H     0.44020   0.45395   0.61472   0.00000  Uiso   1.00
H604   H     0.57133   0.55578   0.59579   0.00000  Uiso   1.00
N605   N     0.49999   0.49999   0.61907   0.00000  Uiso   1.00
N606   N     0.50001   0.50001   0.38093   0.00000  Uiso   1.00
O607   O     0.50000   0.43892   0.53821   0.00000  Uiso   1.00
O608   O     0.50000   0.56108   0.46179   0.00000  Uiso   1.00
O609   O     0.50000   0.43893   0.46176   0.00000  Uiso   1.00
O610   O     0.50000   0.56107   0.53824   0.00000  Uiso   1.00
O611   O     0.42392   0.50000   0.52928   0.00000  Uiso   1.00
O612   O     0.57608   0.50000   0.47072   0.00000  Uiso   1.00
O613   O     0.42392   0.50000   0.45284   0.00000  Uiso   1.00
O614   O     0.57608   0.50000   0.54716   0.00000  Uiso   1.00
Zn615  Zn    0.50000   0.49999   0.55104   0.00000  Uiso   1.00
Zn616  Zn    0.50000   0.50001   0.44896   0.00000  Uiso   1.00
C617   C     0.83325   0.42002   0.49985   0.00000  Uiso   1.00
C618   C     0.83483   0.35502   0.54115   0.00000  Uiso   1.00
C619   C     0.83340   0.62417   0.50016   0.00000  Uiso   1.00
C620   C     0.83327   0.37583   0.49984   0.00000  Uiso   1.00
C621   C     0.86663   0.52564   0.36273   0.00000  Uiso   1.00
C622   C     0.80004   0.47436   0.63726   0.00000  Uiso   1.00
C623   C     0.86699   0.52594   0.64845   0.00000  Uiso   1.00
C624   C     0.79968   0.47406   0.35155   0.00000  Uiso   1.00
C625   C     0.90568   0.55577   0.63261   0.00000  Uiso   1.00
C626   C     0.76099   0.44423   0.36739   0.00000  Uiso   1.00
C627   C     0.83342   0.57998   0.50015   0.00000  Uiso   1.00
C628   C     0.73372   0.49994   0.48796   0.00000  Uiso   1.00
C629   C     0.93295   0.50006   0.51204   0.00000  Uiso   1.00
C630   C     0.67852   0.49996   0.48160   0.00000  Uiso   1.00
C631   C     0.98815   0.50004   0.51840   0.00000  Uiso   1.00
C632   C     0.83176   0.35421   0.45870   0.00000  Uiso   1.00
C633   C     0.83490   0.64579   0.54130   0.00000  Uiso   1.00
C634   C     0.83184   0.64498   0.45885   0.00000  Uiso   1.00
H635   H     0.99089   0.49992   0.44680   0.00000  Uiso   1.00
H636   H     0.89762   0.58789   0.64316   0.00000  Uiso   1.00
H637   H     0.94614   0.54789   0.64859   0.00000  Uiso   1.00
H638   H     0.76200   0.44422   0.40421   0.00000  Uiso   1.00
H639   H     0.72053   0.45211   0.35141   0.00000  Uiso   1.00
H640   H     0.76905   0.41211   0.35684   0.00000  Uiso   1.00
H641   H     0.67577   0.50008   0.55320   0.00000  Uiso   1.00
H642   H     0.83050   0.37002   0.42653   0.00000  Uiso   1.00
H643   H     0.83616   0.62998   0.57347   0.00000  Uiso   1.00
H644   H     0.83063   0.62855   0.42670   0.00000  Uiso   1.00
H645   H     0.83603   0.37145   0.57330   0.00000  Uiso   1.00
H646   H     0.89313   0.54605   0.38528   0.00000  Uiso   1.00
H647   H     0.77354   0.45395   0.61472   0.00000  Uiso   1.00
H648   H     0.90467   0.55578   0.59579   0.00000  Uiso   1.00
N649   N     0.83332   0.49999   0.61907   0.00000  Uiso   1.00
N650   N     0.83335   0.50001   0.38093   0.00000  Uiso   1.00
O651   O     0.83333   0.43892   0.53821   0.00000  Uiso   1.00
O652   O     0.83334   0.56108   0.46179   0.00000  Uiso   1.00
O653   O     0.83333   0.43893   0.46176   0.00000  Uiso   1.00
O654   O     0.83334   0.56107   0.53824   0.00000  Uiso   1.00
O655   O     0.75725   0.50000   0.52928   0.00000  Uiso   1.00
O656   O     0.90942   0.50000   0.47072   0.00000  Uiso   1.00
O657   O     0.75725   0.50000   0.45284   0.00000  Uiso   1.00
O658   O     0.90942   0.50000   0.54716   0.00000  Uiso   1.00
Zn659  Zn    0.83333   0.49999   0.55104   0.00000  Uiso   1.00
Zn660  Zn    0.83333   0.50001   0.44896   0.00000  Uiso   1.00
C661   C     0.16658   0.75335   0.49985   0.00000  Uiso   1.00
C662   C     0.16816   0.68835   0.54115   0.00000  Uiso   1.00
C663   C     0.16673   0.95751   0.50016   0.00000  Uiso   1.00
C664   C     0.16660   0.70916   0.49984   0.00000  Uiso   1.00
C665   C     0.19996   0.85897   0.36273   0.00000  Uiso   1.00
C666   C     0.13337   0.80770   0.63726   0.00000  Uiso   1.00
C667   C     0.20032   0.85928   0.64845   0.00000  Uiso   1.00
C668   C     0.13301   0.80739   0.35155   0.00000  Uiso   1.00
C669   C     0.23902   0.88910   0.63261   0.00000  Uiso   1.00
C670   C     0.09432   0.77757   0.36739   0.00000  Uiso   1.00
C671   C     0.16675   0.91332   0.50015   0.00000  Uiso   1.00
C672   C     0.06705   0.83327   0.48796   0.00000  Uiso   1.00
C673   C     0.26629   0.83340   0.51204   0.00000  Uiso   1.00
C674   C     0.01185   0.83329   0.48160   0.00000  Uiso   1.00
C675   C     0.32148   0.83338   0.51840   0.00000  Uiso   1.00
C676   C     0.16510   0.68755   0.45870   0.00000  Uiso   1.00
C677   C     0.16824   0.97912   0.54130   0.00000  Uiso   1.00
C678   C     0.16517   0.97832   0.45885   0.00000  Uiso   1.00
H679   H     0.32423   0.83326   0.44680   0.00000  Uiso   1.00
H680   H     0.23095   0.92122   0.64316   0.00000  Uiso   1.00
H681   H     0.27947   0.88122   0.64859   0.00000  Uiso   1.00
H682   H     0.09533   0.77755   0.40421   0.00000  Uiso   1.00
H683   H     0.05386   0.78545   0.35141   0.00000  Uiso   1.00
H684   H     0.10238   0.74545   0.35684   0.00000  Uiso   1.00
H685   H     0.00911   0.83341   0.55320   0.00000  Uiso   1.00
H686   H     0.16384   0.70335   0.42653   0.00000  Uiso   1.00
H687   H     0.16950   0.96331   0.57347   0.00000  Uiso   1.00
H688   H     0.16397   0.96188   0.42670   0.00000  Uiso   1.00
H689   H     0.16937   0.70479   0.57330   0.00000  Uiso   1.00
H690   H     0.22646   0.87939   0.38528   0.00000  Uiso   1.00
H691   H     0.10687   0.78728   0.61472   0.00000  Uiso   1.00
H692   H     0.23800   0.88912   0.59579   0.00000  Uiso   1.00
N693   N     0.16665   0.83332   0.61907   0.00000  Uiso   1.00
N694   N     0.16668   0.83334   0.38093   0.00000  Uiso   1.00
O695   O     0.16666   0.77225   0.53821   0.00000  Uiso   1.00
O696   O     0.16667   0.89442   0.46179   0.00000  Uiso   1.00
O697   O     0.16666   0.77226   0.46176   0.00000  Uiso   1.00
O698   O     0.16667   0.89441   0.53824   0.00000  Uiso   1.00
O699   O     0.09058   0.83333   0.52928   0.00000  Uiso   1.00
O700   O     0.24275   0.83334   0.47072   0.00000  Uiso   1.00
O701   O     0.09058   0.83334   0.45284   0.00000  Uiso   1.00
O702   O     0.24275   0.83333   0.54716   0.00000  Uiso   1.00
Zn703  Zn    0.16667   0.83333   0.55104   0.00000  Uiso   1.00
Zn704  Zn    0.16667   0.83334   0.44896   0.00000  Uiso   1.00
C705   C     0.49992   0.75335   0.49985   0.00000  Uiso   1.00
C706   C     0.50149   0.68835   0.54115   0.00000  Uiso   1.00
C707   C     0.50007   0.95751   0.50016   0.00000  Uiso   1.00
C708   C     0.49993   0.70916   0.49984   0.00000  Uiso   1.00
C709   C     0.53330   0.85897   0.36273   0.00000  Uiso   1.00
C710   C     0.46670   0.80770   0.63726   0.00000  Uiso   1.00
C711   C     0.53365   0.85928   0.64845   0.00000  Uiso   1.00
C712   C     0.46635   0.80739   0.35155   0.00000  Uiso   1.00
C713   C     0.57235   0.88910   0.63261   0.00000  Uiso   1.00
C714   C     0.42765   0.77757   0.36739   0.00000  Uiso   1.00
C715   C     0.50008   0.91332   0.50015   0.00000  Uiso   1.00
C716   C     0.40038   0.83327   0.48796   0.00000  Uiso   1.00
C717   C     0.59962   0.83340   0.51204   0.00000  Uiso   1.00
C718   C     0.34518   0.83329   0.48160   0.00000  Uiso   1.00
C719   C     0.65482   0.83338   0.51840   0.00000  Uiso   1.00
C720   C     0.49843   0.68755   0.45870   0.00000  Uiso   1.00
C721   C     0.50157   0.97912   0.54130   0.00000  Uiso   1.00
C722   C     0.49851   0.97832   0.45885   0.00000  Uiso   1.00
H723   H     0.65756   0.83326   0.44680   0.00000  Uiso   1.00
H724   H     0.56429   0.92122   0.64316   0.00000  Uiso   1.00
H725   H     0.61281   0.88122   0.64859   0.00000  Uiso   1.00
H726   H     0.42867   0.77755   0.40421   0.00000  Uiso   1.00
H727   H     0.38719   0.78545   0.35141   0.00000  Uiso   1.00
H728   H     0.43571   0.74545   0.35684   0.00000  Uiso   1.00
H729   H     0.34244   0.83341   0.55320   0.00000  Uiso   1.00
H730   H     0.49717   0.70335   0.42653   0.00000  Uiso   1.00
H731   H     0.50283   0.96331   0.57347   0.00000  Uiso   1.00
H732   H     0.49730   0.96188   0.42670   0.00000  Uiso   1.00
H733   H     0.50270   0.70479   0.57330   0.00000  Uiso   1.00
H734   H     0.55980   0.87939   0.38528   0.00000  Uiso   1.00
H735   H     0.44020   0.78728   0.61472   0.00000  Uiso   1.00
H736   H     0.57133   0.88912   0.59579   0.00000  Uiso   1.00
N737   N     0.49999   0.83332   0.61907   0.00000  Uiso   1.00
N738   N     0.50001   0.83334   0.38093   0.00000  Uiso   1.00
O739   O     0.50000   0.77225   0.53821   0.00000  Uiso   1.00
O740   O     0.50000   0.89442   0.46179   0.00000  Uiso   1.00
O741   O     0.50000   0.77226   0.46176   0.00000  Uiso   1.00
O742   O     0.50000   0.89441   0.53824   0.00000  Uiso   1.00
O743   O     0.42392   0.83333   0.52928   0.00000  Uiso   1.00
O744   O     0.57608   0.83334   0.47072   0.00000  Uiso   1.00
O745   O     0.42392   0.83334   0.45284   0.00000  Uiso   1.00
O746   O     0.57608   0.83333   0.54716   0.00000  Uiso   1.00
Zn747  Zn    0.50000   0.83333   0.55104   0.00000  Uiso   1.00
Zn748  Zn    0.50000   0.83334   0.44896   0.00000  Uiso   1.00
C749   C     0.83325   0.75335   0.49985   0.00000  Uiso   1.00
C750   C     0.83483   0.68835   0.54115   0.00000  Uiso   1.00
C751   C     0.83340   0.95751   0.50016   0.00000  Uiso   1.00
C752   C     0.83327   0.70916   0.49984   0.00000  Uiso   1.00
C753   C     0.86663   0.85897   0.36273   0.00000  Uiso   1.00
C754   C     0.80004   0.80770   0.63726   0.00000  Uiso   1.00
C755   C     0.86699   0.85928   0.64845   0.00000  Uiso   1.00
C756   C     0.79968   0.80739   0.35155   0.00000  Uiso   1.00
C757   C     0.90568   0.88910   0.63261   0.00000  Uiso   1.00
C758   C     0.76099   0.77757   0.36739   0.00000  Uiso   1.00
C759   C     0.83342   0.91332   0.50015   0.00000  Uiso   1.00
C760   C     0.73372   0.83327   0.48796   0.00000  Uiso   1.00
C761   C     0.93295   0.83340   0.51204   0.00000  Uiso   1.00
C762   C     0.67852   0.83329   0.48160   0.00000  Uiso   1.00
C763   C     0.98815   0.83338   0.51840   0.00000  Uiso   1.00
C764   C     0.83176   0.68755   0.45870   0.00000  Uiso   1.00
C765   C     0.83490   0.97912   0.54130   0.00000  Uiso   1.00
C766   C     0.83184   0.97832   0.45885   0.00000  Uiso   1.00
H767   H     0.99089   0.83326   0.44680   0.00000  Uiso   1.00
H768   H     0.89762   0.92122   0.64316   0.00000  Uiso   1.00
H769   H     0.94614   0.88122   0.64859   0.00000  Uiso   1.00
H770   H     0.76200   0.77755   0.40421   0.00000  Uiso   1.00
H771   H     0.72053   0.78545   0.35141   0.00000  Uiso   1.00
H772   H     0.76905   0.74545   0.35684   0.00000  Uiso   1.00
H773   H     0.67577   0.83341   0.55320   0.00000  Uiso   1.00
H774   H     0.83050   0.70335   0.42653   0.00000  Uiso   1.00
H775   H     0.83616   0.96331   0.57347   0.00000  Uiso   1.00
H776   H     0.83063   0.96188   0.42670   0.00000  Uiso   1.00
H777   H     0.83603   0.70479   0.57330   0.00000  Uiso   1.00
H778   H     0.89313   0.87939   0.38528   0.00000  Uiso   1.00
H779   H     0.77354   0.78728   0.61472   0.00000  Uiso   1.00
H780   H     0.90467   0.88912   0.59579   0.00000  Uiso   1.00
N781   N     0.83332   0.83332   0.61907   0.00000  Uiso   1.00
N782   N     0.83335   0.83334   0.38093   0.00000  Uiso   1.00
O783   O     0.83333   0.77225   0.53821   0.00000  Uiso   1.00
O784   O     0.83334   0.89442   0.46179   0.00000  Uiso   1.00
O785   O     0.83333   0.77226   0.46176   0.00000  Uiso   1.00
O786   O     0.83334   0.89441   0.53824   0.00000  Uiso   1.00
O787   O     0.75725   0.83333   0.52928   0.00000  Uiso   1.00
O788   O     0.90942   0.83334   0.47072   0.00000  Uiso   1.00
O789   O     0.75725   0.83334   0.45284   0.00000  Uiso   1.00
O790   O     0.90942   0.83333   0.54716   0.00000  Uiso   1.00
Zn791  Zn    0.83333   0.83333   0.55104   0.00000  Uiso   1.00
Zn792  Zn    0.83333   0.83334   0.44896   0.00000  Uiso   1.00
C793   C     0.16658   0.08668   0.83319   0.00000  Uiso   1.00
C794   C     0.16816   0.02168   0.87448   0.00000  Uiso   1.00
C795   C     0.16673   0.29084   0.83349   0.00000  Uiso   1.00
C796   C     0.16660   0.04249   0.83318   0.00000  Uiso   1.00
C797   C     0.19996   0.19230   0.69607   0.00000  Uiso   1.00
C798   C     0.13337   0.14103   0.97060   0.00000  Uiso   1.00
C799   C     0.20032   0.19261   0.98178   0.00000  Uiso   1.00
C800   C     0.13301   0.14072   0.68489   0.00000  Uiso   1.00
C801   C     0.23902   0.22243   0.96595   0.00000  Uiso   1.00
C802   C     0.09432   0.11090   0.70072   0.00000  Uiso   1.00
C803   C     0.16675   0.24665   0.83348   0.00000  Uiso   1.00
C804   C     0.06705   0.16660   0.82129   0.00000  Uiso   1.00
C805   C     0.26629   0.16673   0.84538   0.00000  Uiso   1.00
C806   C     0.01185   0.16662   0.81494   0.00000  Uiso   1.00
C807   C     0.32148   0.16671   0.85173   0.00000  Uiso   1.00
C808   C     0.16510   0.02088   0.79203   0.00000  Uiso   1.00
C809   C     0.16824   0.31245   0.87463   0.00000  Uiso   1.00
C810   C     0.16517   0.31165   0.79218   0.00000  Uiso   1.00
H811   H     0.32423   0.16659   0.78014   0.00000  Uiso   1.00
H812   H     0.23095   0.25455   0.97650   0.00000  Uiso   1.00
H813   H     0.27947   0.21455   0.98192   0.00000  Uiso   1.00
H814   H     0.09533   0.11088   0.73754   0.00000  Uiso   1.00
H815   H     0.05386   0.11878   0.68474   0.00000  Uiso   1.00
H816   H     0.10238   0.07878   0.69017   0.00000  Uiso   1.00
H817   H     0.00911   0.16674   0.88653   0.00000  Uiso   1.00
H818   H     0.16384   0.03669   0.75986   0.00000  Uiso   1.00
H819   H     0.16950   0.29665   0.90680   0.00000  Uiso   1.00
H820   H     0.16397   0.29521   0.76003   0.00000  Uiso   1.00
H821   H     0.16937   0.03812   0.90663   0.00000  Uiso   1.00
H822   H     0.22646   0.21272   0.71862   0.00000  Uiso   1.00
H823   H     0.10687   0.12061   0.94805   0.00000  Uiso   1.00
H824   H     0.23800   0.22245   0.92912   0.00000  Uiso   1.00
N825   N     0.16665   0.16666   0.95240   0.00000  Uiso   1.00
N826   N     0.16668   0.16668   0.71427   0.00000  Uiso   1.00
O827   O     0.16666   0.10558   0.87154   0.00000  Uiso   1.00
O828   O     0.16667   0.22775   0.79513   0.00000  Uiso   1.00
O829   O     0.16666   0.10559   0.79510   0.00000  Uiso   1.00
O830   O     0.16667   0.22774   0.87157   0.00000  Uiso   1.00
O831   O     0.09058   0.16666   0.86261   0.00000  Uiso   1.00
O832   O     0.24275   0.16667   0.80405   0.00000  Uiso   1.00
O833   O     0.09058   0.16667   0.78617   0.00000  Uiso   1.00
O834   O     0.24275   0.16666   0.88050   0.00000  Uiso   1.00
Zn835  Zn    0.16667   0.16666   0.88437   0.00000  Uiso   1.00
Zn836  Zn    0.16667   0.16667   0.78229   0.00000  Uiso   1.00
C837   C     0.49992   0.08668   0.83319   0.00000  Uiso   1.00
C838   C     0.50149   0.02168   0.87448   0.00000  Uiso   1.00
C839   C     0.50007   0.29084   0.83349   0.00000  Uiso   1.00
C840   C     0.49993   0.04249   0.83318   0.00000  Uiso   1.00
C841   C     0.53330   0.19230   0.69607   0.00000  Uiso   1.00
C842   C     0.46670   0.14103   0.97060   0.00000  Uiso   1.00
C843   C     0.53365   0.19261   0.98178   0.00000  Uiso   1.00
C844   C     0.46635   0.14072   0.68489   0.00000  Uiso   1.00
C845   C     0.57235   0.22243   0.96595   0.00000  Uiso   1.00
C846   C     0.42765   0.11090   0.70072   0.00000  Uiso   1.00
C847   C     0.50008   0.24665   0.83348   0.00000  Uiso   1.00
C848   C     0.40038   0.16660   0.82129   0.00000  Uiso   1.00
C849   C     0.59962   0.16673   0.84538   0.00000  Uiso   1.00
C850   C     0.34518   0.16662   0.81494   0.00000  Uiso   1.00
C851   C     0.65482   0.16671   0.85173   0.00000  Uiso   1.00
C852   C     0.49843   0.02088   0.79203   0.00000  Uiso   1.00
C853   C     0.50157   0.31245   0.87463   0.00000  Uiso   1.00
C854   C     0.49851   0.31165   0.79218   0.00000  Uiso   1.00
H855   H     0.65756   0.16659   0.78014   0.00000  Uiso   1.00
H856   H     0.56429   0.25455   0.97650   0.00000  Uiso   1.00
H857   H     0.61281   0.21455   0.98192   0.00000  Uiso   1.00
H858   H     0.42867   0.11088   0.73754   0.00000  Uiso   1.00
H859   H     0.38719   0.11878   0.68474   0.00000  Uiso   1.00
H860   H     0.43571   0.07878   0.69017   0.00000  Uiso   1.00
H861   H     0.34244   0.16674   0.88653   0.00000  Uiso   1.00
H862   H     0.49717   0.03669   0.75986   0.00000  Uiso   1.00
H863   H     0.50283   0.29665   0.90680   0.00000  Uiso   1.00
H864   H     0.49730   0.29521   0.76003   0.00000  Uiso   1.00
H865   H     0.50270   0.03812   0.90663   0.00000  Uiso   1.00
H866   H     0.55980   0.21272   0.71862   0.00000  Uiso   1.00
H867   H     0.44020   0.12061   0.94805   0.00000  Uiso   1.00
H868   H     0.57133   0.22245   0.92912   0.00000  Uiso   1.00
N869   N     0.49999   0.16666   0.95240   0.00000  Uiso   1.00
N870   N     0.50001   0.16668   0.71427   0.00000  Uiso   1.00
O871   O     0.50000   0.10558   0.87154   0.00000  Uiso   1.00
O872   O     0.50000   0.22775   0.79513   0.00000  Uiso   1.00
O873   O     0.50000   0.10559   0.79510   0.00000  Uiso   1.00
O874   O     0.50000   0.22774   0.87157   0.00000  Uiso   1.00
O875   O     0.42392   0.16666   0.86261   0.00000  Uiso   1.00
O876   O     0.57608   0.16667   0.80405   0.00000  Uiso   1.00
O877   O     0.42392   0.16667   0.78617   0.00000  Uiso   1.00
O878   O     0.57608   0.16666   0.88050   0.00000  Uiso   1.00
Zn879  Zn    0.50000   0.16666   0.88437   0.00000  Uiso   1.00
Zn880  Zn    0.50000   0.16667   0.78229   0.00000  Uiso   1.00
C881   C     0.83325   0.08668   0.83319   0.00000  Uiso   1.00
C882   C     0.83483   0.02168   0.87448   0.00000  Uiso   1.00
C883   C     0.83340   0.29084   0.83349   0.00000  Uiso   1.00
C884   C     0.83327   0.04249   0.83318   0.00000  Uiso   1.00
C885   C     0.86663   0.19230   0.69607   0.00000  Uiso   1.00
C886   C     0.80004   0.14103   0.97060   0.00000  Uiso   1.00
C887   C     0.86699   0.19261   0.98178   0.00000  Uiso   1.00
C888   C     0.79968   0.14072   0.68489   0.00000  Uiso   1.00
C889   C     0.90568   0.22243   0.96595   0.00000  Uiso   1.00
C890   C     0.76099   0.11090   0.70072   0.00000  Uiso   1.00
C891   C     0.83342   0.24665   0.83348   0.00000  Uiso   1.00
C892   C     0.73372   0.16660   0.82129   0.00000  Uiso   1.00
C893   C     0.93295   0.16673   0.84538   0.00000  Uiso   1.00
C894   C     0.67852   0.16662   0.81494   0.00000  Uiso   1.00
C895   C     0.98815   0.16671   0.85173   0.00000  Uiso   1.00
C896   C     0.83176   0.02088   0.79203   0.00000  Uiso   1.00
C897   C     0.83490   0.31245   0.87463   0.00000  Uiso   1.00
C898   C     0.83184   0.31165   0.79218   0.00000  Uiso   1.00
H899   H     0.99089   0.16659   0.78014   0.00000  Uiso   1.00
H900   H     0.89762   0.25455   0.97650   0.00000  Uiso   1.00
H901   H     0.94614   0.21455   0.98192   0.00000  Uiso   1.00
H902   H     0.76200   0.11088   0.73754   0.00000  Uiso   1.00
H903   H     0.72053   0.11878   0.68474   0.00000  Uiso   1.00
H904   H     0.76905   0.07878   0.69017   0.00000  Uiso   1.00
H905   H     0.67577   0.16674   0.88653   0.00000  Uiso   1.00
H906   H     0.83050   0.03669   0.75986   0.00000  Uiso   1.00
H907   H     0.83616   0.29665   0.90680   0.00000  Uiso   1.00
H908   H     0.83063   0.29521   0.76003   0.00000  Uiso   1.00
H909   H     0.83603   0.03812   0.90663   0.00000  Uiso   1.00
H910   H     0.89313   0.21272   0.71862   0.00000  Uiso   1.00
H911   H     0.77354   0.12061   0.94805   0.00000  Uiso   1.00
H912   H     0.90467   0.22245   0.92912   0.00000  Uiso   1.00
N913   N     0.83332   0.16666   0.95240   0.00000  Uiso   1.00
N914   N     0.83335   0.16668   0.71427   0.00000  Uiso   1.00
O915   O     0.83333   0.10558   0.87154   0.00000  Uiso   1.00
O916   O     0.83334   0.22775   0.79513   0.00000  Uiso   1.00
O917   O     0.83333   0.10559   0.79510   0.00000  Uiso   1.00
O918   O     0.83334   0.22774   0.87157   0.00000  Uiso   1.00
O919   O     0.75725   0.16666   0.86261   0.00000  Uiso   1.00
O920   O     0.90942   0.16667   0.80405   0.00000  Uiso   1.00
O921   O     0.75725   0.16667   0.78617   0.00000  Uiso   1.00
O922   O     0.90942   0.16666   0.88050   0.00000  Uiso   1.00
Zn923  Zn    0.83333   0.16666   0.88437   0.00000  Uiso   1.00
Zn924  Zn    0.83333   0.16667   0.78229   0.00000  Uiso   1.00
C925   C     0.16658   0.42002   0.83319   0.00000  Uiso   1.00
C926   C     0.16816   0.35502   0.87448   0.00000  Uiso   1.00
C927   C     0.16673   0.62417   0.83349   0.00000  Uiso   1.00
C928   C     0.16660   0.37583   0.83318   0.00000  Uiso   1.00
C929   C     0.19996   0.52564   0.69607   0.00000  Uiso   1.00
C930   C     0.13337   0.47436   0.97060   0.00000  Uiso   1.00
C931   C     0.20032   0.52594   0.98178   0.00000  Uiso   1.00
C932   C     0.13301   0.47406   0.68489   0.00000  Uiso   1.00
C933   C     0.23902   0.55577   0.96595   0.00000  Uiso   1.00
C934   C     0.09432   0.44423   0.70072   0.00000  Uiso   1.00
C935   C     0.16675   0.57998   0.83348   0.00000  Uiso   1.00
C936   C     0.06705   0.49994   0.82129   0.00000  Uiso   1.00
C937   C     0.26629   0.50006   0.84538   0.00000  Uiso   1.00
C938   C     0.01185   0.49996   0.81494   0.00000  Uiso   1.00
C939   C     0.32148   0.50004   0.85173   0.00000  Uiso   1.00
C940   C     0.16510   0.35421   0.79203   0.00000  Uiso   1.00
C941   C     0.16824   0.64579   0.87463   0.00000  Uiso   1.00
C942   C     0.16517   0.64498   0.79218   0.00000  Uiso   1.00
H943   H     0.32423   0.49992   0.78014   0.00000  Uiso   1.00
H944   H     0.23095   0.58789   0.97650   0.00000  Uiso   1.00
H945   H     0.27947   0.54789   0.98192   0.00000  Uiso   1.00
H946   H     0.09533   0.44422   0.73754   0.00000  Uiso   1.00
H947   H     0.05386   0.45211   0.68474   0.00000  Uiso   1.00
H948   H     0.10238   0.41211   0.69017   0.00000  Uiso   1.00
H949   H     0.00911   0.50008   0.88653   0.00000  Uiso   1.00
H950   H     0.16384   0.37002   0.75986   0.00000  Uiso   1.00
H951   H     0.16950   0.62998   0.90680   0.00000  Uiso   1.00
H952   H     0.16397   0.62855   0.76003   0.00000  Uiso   1.00
H953   H     0.16937   0.37145   0.90663   0.00000  Uiso   1.00
H954   H     0.22646   0.54605   0.71862   0.00000  Uiso   1.00
H955   H     0.10687   0.45395   0.94805   0.00000  Uiso   1.00
H956   H     0.23800   0.55578   0.92912   0.00000  Uiso   1.00
N957   N     0.16665   0.49999   0.95240   0.00000  Uiso   1.00
N958   N     0.16668   0.50001   0.71427   0.00000  Uiso   1.00
O959   O     0.16666   0.43892   0.87154   0.00000  Uiso   1.00
O960   O     0.16667   0.56108   0.79513   0.00000  Uiso   1.00
O961   O     0.16666   0.43893   0.79510   0.00000  Uiso   1.00
O962   O     0.16667   0.56107   0.87157   0.00000  Uiso   1.00
O963   O     0.09058   0.50000   0.86261   0.00000  Uiso   1.00
O964   O     0.24275   0.50000   0.80405   0.00000  Uiso   1.00
O965   O     0.09058   0.50000   0.78617   0.00000  Uiso   1.00
O966   O     0.24275   0.50000   0.88050   0.00000  Uiso   1.00
Zn967  Zn    0.16667   0.49999   0.88437   0.00000  Uiso   1.00
Zn968  Zn    0.16667   0.50001   0.78229   0.00000  Uiso   1.00
C969   C     0.49992   0.42002   0.83319   0.00000  Uiso   1.00
C970   C     0.50149   0.35502   0.87448   0.00000  Uiso   1.00
C971   C     0.50007   0.62417   0.83349   0.00000  Uiso   1.00
C972   C     0.49993   0.37583   0.83318   0.00000  Uiso   1.00
C973   C     0.53330   0.52564   0.69607   0.00000  Uiso   1.00
C974   C     0.46670   0.47436   0.97060   0.00000  Uiso   1.00
C975   C     0.53365   0.52594   0.98178   0.00000  Uiso   1.00
C976   C     0.46635   0.47406   0.68489   0.00000  Uiso   1.00
C977   C     0.57235   0.55577   0.96595   0.00000  Uiso   1.00
C978   C     0.42765   0.44423   0.70072   0.00000  Uiso   1.00
C979   C     0.50008   0.57998   0.83348   0.00000  Uiso   1.00
C980   C     0.40038   0.49994   0.82129   0.00000  Uiso   1.00
C981   C     0.59962   0.50006   0.84538   0.00000  Uiso   1.00
C982   C     0.34518   0.49996   0.81494   0.00000  Uiso   1.00
C983   C     0.65482   0.50004   0.85173   0.00000  Uiso   1.00
C984   C     0.49843   0.35421   0.79203   0.00000  Uiso   1.00
C985   C     0.50157   0.64579   0.87463   0.00000  Uiso   1.00
C986   C     0.49851   0.64498   0.79218   0.00000  Uiso   1.00
H987   H     0.65756   0.49992   0.78014   0.00000  Uiso   1.00
H988   H     0.56429   0.58789   0.97650   0.00000  Uiso   1.00
H989   H     0.61281   0.54789   0.98192   0.00000  Uiso   1.00
H990   H     0.42867   0.44422   0.73754   0.00000  Uiso   1.00
H991   H     0.38719   0.45211   0.68474   0.00000  Uiso   1.00
H992   H     0.43571   0.41211   0.69017   0.00000  Uiso   1.00
H993   H     0.34244   0.50008   0.88653   0.00000  Uiso   1.00
H994   H     0.49717   0.37002   0.75986   0.00000  Uiso   1.00
H995   H     0.50283   0.62998   0.90680   0.00000  Uiso   1.00
H996   H     0.49730   0.62855   0.76003   0.00000  Uiso   1.00
H997   H     0.50270   0.37145   0.90663   0.00000  Uiso   1.00
H998   H     0.55980   0.54605   0.71862   0.00000  Uiso   1.00
H999   H     0.44020   0.45395   0.94805   0.00000  Uiso   1.00
H1000  H     0.57133   0.55578   0.92912   0.00000  Uiso   1.00
N1001  N     0.49999   0.49999   0.95240   0.00000  Uiso   1.00
N1002  N     0.50001   0.50001   0.71427   0.00000  Uiso   1.00
O1003  O     0.50000   0.43892   0.87154   0.00000  Uiso   1.00
O1004  O     0.50000   0.56108   0.79513   0.00000  Uiso   1.00
O1005  O     0.50000   0.43893   0.79510   0.00000  Uiso   1.00
O1006  O     0.50000   0.56107   0.87157   0.00000  Uiso   1.00
O1007  O     0.42392   0.50000   0.86261   0.00000  Uiso   1.00
O1008  O     0.57608   0.50000   0.80405   0.00000  Uiso   1.00
O1009  O     0.42392   0.50000   0.78617   0.00000  Uiso   1.00
O1010  O     0.57608   0.50000   0.88050   0.00000  Uiso   1.00
Zn1011 Zn    0.50000   0.49999   0.88437   0.00000  Uiso   1.00
Zn1012 Zn    0.50000   0.50001   0.78229   0.00000  Uiso   1.00
C1013  C     0.83325   0.42002   0.83319   0.00000  Uiso   1.00
C1014  C     0.83483   0.35502   0.87448   0.00000  Uiso   1.00
C1015  C     0.83340   0.62417   0.83349   0.00000  Uiso   1.00
C1016  C     0.83327   0.37583   0.83318   0.00000  Uiso   1.00
C1017  C     0.86663   0.52564   0.69607   0.00000  Uiso   1.00
C1018  C     0.80004   0.47436   0.97060   0.00000  Uiso   1.00
C1019  C     0.86699   0.52594   0.98178   0.00000  Uiso   1.00
C1020  C     0.79968   0.47406   0.68489   0.00000  Uiso   1.00
C1021  C     0.90568   0.55577   0.96595   0.00000  Uiso   1.00
C1022  C     0.76099   0.44423   0.70072   0.00000  Uiso   1.00
C1023  C     0.83342   0.57998   0.83348   0.00000  Uiso   1.00
C1024  C     0.73372   0.49994   0.82129   0.00000  Uiso   1.00
C1025  C     0.93295   0.50006   0.84538   0.00000  Uiso   1.00
C1026  C     0.67852   0.49996   0.81494   0.00000  Uiso   1.00
C1027  C     0.98815   0.50004   0.85173   0.00000  Uiso   1.00
C1028  C     0.83176   0.35421   0.79203   0.00000  Uiso   1.00
C1029  C     0.83490   0.64579   0.87463   0.00000  Uiso   1.00
C1030  C     0.83184   0.64498   0.79218   0.00000  Uiso   1.00
H1031  H     0.99089   0.49992   0.78014   0.00000  Uiso   1.00
H1032  H     0.89762   0.58789   0.97650   0.00000  Uiso   1.00
H1033  H     0.94614   0.54789   0.98192   0.00000  Uiso   1.00
H1034  H     0.76200   0.44422   0.73754   0.00000  Uiso   1.00
H1035  H     0.72053   0.45211   0.68474   0.00000  Uiso   1.00
H1036  H     0.76905   0.41211   0.69017   0.00000  Uiso   1.00
H1037  H     0.67577   0.50008   0.88653   0.00000  Uiso   1.00
H1038  H     0.83050   0.37002   0.75986   0.00000  Uiso   1.00
H1039  H     0.83616   0.62998   0.90680   0.00000  Uiso   1.00
H1040  H     0.83063   0.62855   0.76003   0.00000  Uiso   1.00
H1041  H     0.83603   0.37145   0.90663   0.00000  Uiso   1.00
H1042  H     0.89313   0.54605   0.71862   0.00000  Uiso   1.00
H1043  H     0.77354   0.45395   0.94805   0.00000  Uiso   1.00
H1044  H     0.90467   0.55578   0.92912   0.00000  Uiso   1.00
N1045  N     0.83332   0.49999   0.95240   0.00000  Uiso   1.00
N1046  N     0.83335   0.50001   0.71427   0.00000  Uiso   1.00
O1047  O     0.83333   0.43892   0.87154   0.00000  Uiso   1.00
O1048  O     0.83334   0.56108   0.79513   0.00000  Uiso   1.00
O1049  O     0.83333   0.43893   0.79510   0.00000  Uiso   1.00
O1050  O     0.83334   0.56107   0.87157   0.00000  Uiso   1.00
O1051  O     0.75725   0.50000   0.86261   0.00000  Uiso   1.00
O1052  O     0.90942   0.50000   0.80405   0.00000  Uiso   1.00
O1053  O     0.75725   0.50000   0.78617   0.00000  Uiso   1.00
O1054  O     0.90942   0.50000   0.88050   0.00000  Uiso   1.00
Zn1055 Zn    0.83333   0.49999   0.88437   0.00000  Uiso   1.00
Zn1056 Zn    0.83333   0.50001   0.78229   0.00000  Uiso   1.00
C1057  C     0.16658   0.75335   0.83319   0.00000  Uiso   1.00
C1058  C     0.16816   0.68835   0.87448   0.00000  Uiso   1.00
C1059  C     0.16673   0.95751   0.83349   0.00000  Uiso   1.00
C1060  C     0.16660   0.70916   0.83318   0.00000  Uiso   1.00
C1061  C     0.19996   0.85897   0.69607   0.00000  Uiso   1.00
C1062  C     0.13337   0.80770   0.97060   0.00000  Uiso   1.00
C1063  C     0.20032   0.85928   0.98178   0.00000  Uiso   1.00
C1064  C     0.13301   0.80739   0.68489   0.00000  Uiso   1.00
C1065  C     0.23902   0.88910   0.96595   0.00000  Uiso   1.00
C1066  C     0.09432   0.77757   0.70072   0.00000  Uiso   1.00
C1067  C     0.16675   0.91332   0.83348   0.00000  Uiso   1.00
C1068  C     0.06705   0.83327   0.82129   0.00000  Uiso   1.00
C1069  C     0.26629   0.83340   0.84538   0.00000  Uiso   1.00
C1070  C     0.01185   0.83329   0.81494   0.00000  Uiso   1.00
C1071  C     0.32148   0.83338   0.85173   0.00000  Uiso   1.00
C1072  C     0.16510   0.68755   0.79203   0.00000  Uiso   1.00
C1073  C     0.16824   0.97912   0.87463   0.00000  Uiso   1.00
C1074  C     0.16517   0.97832   0.79218   0.00000  Uiso   1.00
H1075  H     0.32423   0.83326   0.78014   0.00000  Uiso   1.00
H1076  H     0.23095   0.92122   0.97650   0.00000  Uiso   1.00
H1077  H     0.27947   0.88122   0.98192   0.00000  Uiso   1.00
H1078  H     0.09533   0.77755   0.73754   0.00000  Uiso   1.00
H1079  H     0.05386   0.78545   0.68474   0.00000  Uiso   1.00
H1080  H     0.10238   0.74545   0.69017   0.00000  Uiso   1.00
H1081  H     0.00911   0.83341   0.88653   0.00000  Uiso   1.00
H1082  H     0.16384   0.70335   0.75986   0.00000  Uiso   1.00
H1083  H     0.16950   0.96331   0.90680   0.00000  Uiso   1.00
H1084  H     0.16397   0.96188   0.76003   0.00000  Uiso   1.00
H1085  H     0.16937   0.70479   0.90663   0.00000  Uiso   1.00
H1086  H     0.22646   0.87939   0.71862   0.00000  Uiso   1.00
H1087  H     0.10687   0.78728   0.94805   0.00000  Uiso   1.00
H1088  H     0.23800   0.88912   0.92912   0.00000  Uiso   1.00
N1089  N     0.16665   0.83332   0.95240   0.00000  Uiso   1.00
N1090  N     0.16668   0.83334   0.71427   0.00000  Uiso   1.00
O1091  O     0.16666   0.77225   0.87154   0.00000  Uiso   1.00
O1092  O     0.16667   0.89442   0.79513   0.00000  Uiso   1.00
O1093  O     0.16666   0.77226   0.79510   0.00000  Uiso   1.00
O1094  O     0.16667   0.89441   0.87157   0.00000  Uiso   1.00
O1095  O     0.09058   0.83333   0.86261   0.00000  Uiso   1.00
O1096  O     0.24275   0.83334   0.80405   0.00000  Uiso   1.00
O1097  O     0.09058   0.83334   0.78617   0.00000  Uiso   1.00
O1098  O     0.24275   0.83333   0.88050   0.00000  Uiso   1.00
Zn1099 Zn    0.16667   0.83333   0.88437   0.00000  Uiso   1.00
Zn1100 Zn    0.16667   0.83334   0.78229   0.00000  Uiso   1.00
C1101  C     0.49992   0.75335   0.83319   0.00000  Uiso   1.00
C1102  C     0.50149   0.68835   0.87448   0.00000  Uiso   1.00
C1103  C     0.50007   0.95751   0.83349   0.00000  Uiso   1.00
C1104  C     0.49993   0.70916   0.83318   0.00000  Uiso   1.00
C1105  C     0.53330   0.85897   0.69607   0.00000  Uiso   1.00
C1106  C     0.46670   0.80770   0.97060   0.00000  Uiso   1.00
C1107  C     0.53365   0.85928   0.98178   0.00000  Uiso   1.00
C1108  C     0.46635   0.80739   0.68489   0.00000  Uiso   1.00
C1109  C     0.57235   0.88910   0.96595   0.00000  Uiso   1.00
C1110  C     0.42765   0.77757   0.70072   0.00000  Uiso   1.00
C1111  C     0.50008   0.91332   0.83348   0.00000  Uiso   1.00
C1112  C     0.40038   0.83327   0.82129   0.00000  Uiso   1.00
C1113  C     0.59962   0.83340   0.84538   0.00000  Uiso   1.00
C1114  C     0.34518   0.83329   0.81494   0.00000  Uiso   1.00
C1115  C     0.65482   0.83338   0.85173   0.00000  Uiso   1.00
C1116  C     0.49843   0.68755   0.79203   0.00000  Uiso   1.00
C1117  C     0.50157   0.97912   0.87463   0.00000  Uiso   1.00
C1118  C     0.49851   0.97832   0.79218   0.00000  Uiso   1.00
H1119  H     0.65756   0.83326   0.78014   0.00000  Uiso   1.00
H1120  H     0.56429   0.92122   0.97650   0.00000  Uiso   1.00
H1121  H     0.61281   0.88122   0.98192   0.00000  Uiso   1.00
H1122  H     0.42867   0.77755   0.73754   0.00000  Uiso   1.00
H1123  H     0.38719   0.78545   0.68474   0.00000  Uiso   1.00
H1124  H     0.43571   0.74545   0.69017   0.00000  Uiso   1.00
H1125  H     0.34244   0.83341   0.88653   0.00000  Uiso   1.00
H1126  H     0.49717   0.70335   0.75986   0.00000  Uiso   1.00
H1127  H     0.50283   0.96331   0.90680   0.00000  Uiso   1.00
H1128  H     0.49730   0.96188   0.76003   0.00000  Uiso   1.00
H1129  H     0.50270   0.70479   0.90663   0.00000  Uiso   1.00
H1130  H     0.55980   0.87939   0.71862   0.00000  Uiso   1.00
H1131  H     0.44020   0.78728   0.94805   0.00000  Uiso   1.00
H1132  H     0.57133   0.88912   0.92912   0.00000  Uiso   1.00
N1133  N     0.49999   0.83332   0.95240   0.00000  Uiso   1.00
N1134  N     0.50001   0.83334   0.71427   0.00000  Uiso   1.00
O1135  O     0.50000   0.77225   0.87154   0.00000  Uiso   1.00
O1136  O     0.50000   0.89442   0.79513   0.00000  Uiso   1.00
O1137  O     0.50000   0.77226   0.79510   0.00000  Uiso   1.00
O1138  O     0.50000   0.89441   0.87157   0.00000  Uiso   1.00
O1139  O     0.42392   0.83333   0.86261   0.00000  Uiso   1.00
O1140  O     0.57608   0.83334   0.80405   0.00000  Uiso   1.00
O1141  O     0.42392   0.83334   0.78617   0.00000  Uiso   1.00
O1142  O     0.57608   0.83333   0.88050   0.00000  Uiso   1.00
Zn1143 Zn    0.50000   0.83333   0.88437   0.00000  Uiso   1.00
Zn1144 Zn    0.50000   0.83334   0.78229   0.00000  Uiso   1.00
C1145  C     0.83325   0.75335   0.83319   0.00000  Uiso   1.00
C1146  C     0.83483   0.68835   0.87448   0.00000  Uiso   1.00
C1147  C     0.83340   0.95751   0.83349   0.00000  Uiso   1.00
C1148  C     0.83327   0.70916   0.83318   0.00000  Uiso   1.00
C1149  C     0.86663   0.85897   0.69607   0.00000  Uiso   1.00
C1150  C     0.80004   0.80770   0.97060   0.00000  Uiso   1.00
C1151  C     0.86699   0.85928   0.98178   0.00000  Uiso   1.00
C1152  C     0.79968   0.80739   0.68489   0.00000  Uiso   1.00
C1153  C     0.90568   0.88910   0.96595   0.00000  Uiso   1.00
C1154  C     0.76099   0.77757   0.70072   0.00000  Uiso   1.00
C1155  C     0.83342   0.91332   0.83348   0.00000  Uiso   1.00
C1156  C     0.73372   0.83327   0.82129   0.00000  Uiso   1.00
C1157  C     0.93295   0.83340   0.84538   0.00000  Uiso   1.00
C1158  C     0.67852   0.83329   0.81494   0.00000  Uiso   1.00
C1159  C     0.98815   0.83338   0.85173   0.00000  Uiso   1.00
C1160  C     0.83176   0.68755   0.79203   0.00000  Uiso   1.00
C1161  C     0.83490   0.97912   0.87463   0.00000  Uiso   1.00
C1162  C     0.83184   0.97832   0.79218   0.00000  Uiso   1.00
H1163  H     0.99089   0.83326   0.78014   0.00000  Uiso   1.00
H1164  H     0.89762   0.92122   0.97650   0.00000  Uiso   1.00
H1165  H     0.94614   0.88122   0.98192   0.00000  Uiso   1.00
H1166  H     0.76200   0.77755   0.73754   0.00000  Uiso   1.00
H1167  H     0.72053   0.78545   0.68474   0.00000  Uiso   1.00
H1168  H     0.76905   0.74545   0.69017   0.00000  Uiso   1.00
H1169  H     0.67577   0.83341   0.88653   0.00000  Uiso   1.00
H1170  H     0.83050   0.70335   0.75986   0.00000  Uiso   1.00
H1171  H     0.83616   0.96331   0.90680   0.00000  Uiso   1.00
H1172  H     0.83063   0.96188   0.76003   0.00000  Uiso   1.00
H1173  H     0.83603   0.70479   0.90663   0.00000  Uiso   1.00
H1174  H     0.89313   0.87939   0.71862   0.00000  Uiso   1.00
H1175  H     0.77354   0.78728   0.94805   0.00000  Uiso   1.00
H1176  H     0.90467   0.88912   0.92912   0.00000  Uiso   1.00
N1177  N     0.83332   0.83332   0.95240   0.00000  Uiso   1.00
N1178  N     0.83335   0.83334   0.71427   0.00000  Uiso   1.00
O1179  O     0.83333   0.77225   0.87154   0.00000  Uiso   1.00
O1180  O     0.83334   0.89442   0.79513   0.00000  Uiso   1.00
O1181  O     0.83333   0.77226   0.79510   0.00000  Uiso   1.00
O1182  O     0.83334   0.89441   0.87157   0.00000  Uiso   1.00
O1183  O     0.75725   0.83333   0.86261   0.00000  Uiso   1.00
O1184  O     0.90942   0.83334   0.80405   0.00000  Uiso   1.00
O1185  O     0.75725   0.83334   0.78617   0.00000  Uiso   1.00
O1186  O     0.90942   0.83333   0.88050   0.00000  Uiso   1.00
Zn1187 Zn    0.83333   0.83333   0.88437   0.00000  Uiso   1.00
Zn1188 Zn    0.83333   0.83334   0.78229   0.00000  Uiso   1.00
loop_
_geom_bond_atom_site_label_1
_geom_bond_atom_site_label_2
_geom_bond_distance
_geom_bond_site_symmetry_2
_ccdc_geom_bond_type
C1     O37     1.291   .     A
C1     C4      1.422   .     S
C1     O35     1.287   .     A
C2     C4      1.399   .     A
C2     H29     1.084   .     S
C2     C281    1.370   1_545 S
C3     C17     1.396   .     A
C3     C11     1.422   .     S
C3     C18     1.399   .     A
C4     C16     1.396   .     A
C5     N34     1.354   .     A
C5     H30     1.083   .     S
C5     C799    1.417   1_554 S
C6     N33     1.354   .     A
C6     H31     1.083   .     S
C6     C404    1.417   .     S
C7     N33     1.388   .     A
C7     C9      1.501   .     S
C7     C401    1.417   .     S
C8     N34     1.388   .     A
C8     C10     1.501   .     S
C8     C798    1.417   1_554 S
C9     H20     1.111   .     S
C9     H21     1.111   .     S
C9     H32     1.091   .     S
C10    H23     1.111   .     S
C10    H22     1.091   .     S
C10    H24     1.111   .     S
C11    O38     1.291   .     A
C11    O36     1.287   .     A
C12    O41     1.288   .     A
C12    O39     1.280   .     A
C12    C14     1.405   .     S
C13    O42     1.288   .     A
C13    C15     1.405   .     S
C13    O40     1.280   .     A
C14    C103    1.335   1_455 S
C14    H107    1.088   1_455 S
C15    C58     1.335   .     S
C15    H69     1.088   .     S
C16    H26     1.084   .     S
C16    C282    1.370   1_545 S
C17    H27     1.084   .     S
C17    C134    1.370   .     S
C18    H28     1.084   .     S
C18    C148    1.370   .     S
H19    C58     1.088   .     S
H25    C103    1.088   1_455 S
N33    Zn43    2.022   .     S
N34    Zn44    2.022   .     S
O35    Zn43    1.998   .     S
O36    Zn44    1.998   .     S
O37    Zn44    2.005   .     S
O38    Zn43    2.005   .     S
O39    Zn43    1.965   .     S
O40    Zn44    1.965   .     S
O41    Zn44    1.983   .     S
O42    Zn43    1.983   .     S
C45    O81     1.291   .     A
C45    C48     1.422   .     S
C45    O79     1.287   .     A
C46    C48     1.399   .     A
C46    H73     1.084   .     S
C46    C325    1.370   1_545 S
C47    C61     1.396   .     A
C47    C55     1.422   .     S
C47    C62     1.399   .     A
C48    C60     1.396   .     A
C49    N78     1.354   .     A
C49    H74     1.083   .     S
C49    C843    1.417   1_554 S
C50    N77     1.354   .     A
C50    H75     1.083   .     S
C50    C448    1.417   .     S
C51    N77     1.388   .     A
C51    C53     1.501   .     S
C51    C445    1.417   .     S
C52    N78     1.388   .     A
C52    C54     1.501   .     S
C52    C842    1.417   1_554 S
C53    H64     1.111   .     S
C53    H65     1.111   .     S
C53    H76     1.091   .     S
C54    H67     1.111   .     S
C54    H66     1.091   .     S
C54    H68     1.111   .     S
C55    O82     1.291   .     A
C55    O80     1.287   .     A
C56    O85     1.288   .     A
C56    O83     1.280   .     A
C56    C58     1.405   .     S
C57    O86     1.288   .     A
C57    C59     1.405   .     S
C57    O84     1.280   .     A
C59    C102    1.335   .     S
C59    H113    1.088   .     S
C60    H70     1.084   .     S
C60    C326    1.370   1_545 S
C61    H71     1.084   .     S
C61    C178    1.370   .     S
C62    H72     1.084   .     S
C62    C192    1.370   .     S
H63    C102    1.088   .     S
N77    Zn87    2.022   .     S
N78    Zn88    2.022   .     S
O79    Zn87    1.998   .     S
O80    Zn88    1.998   .     S
O81    Zn88    2.005   .     S
O82    Zn87    2.005   .     S
O83    Zn87    1.965   .     S
O84    Zn88    1.965   .     S
O85    Zn88    1.983   .     S
O86    Zn87    1.983   .     S
C89    O125    1.291   .     A
C89    C92     1.422   .     S
C89    O123    1.287   .     A
C90    C92     1.399   .     A
C90    H117    1.084   .     S
C90    C369    1.370   1_545 S
C91    C105    1.396   .     A
C91    C99     1.422   .     S
C91    C106    1.399   .     A
C92    C104    1.396   .     A
C93    N122    1.354   .     A
C93    H118    1.083   .     S
C93    C887    1.417   1_554 S
C94    N121    1.354   .     A
C94    H119    1.083   .     S
C94    C492    1.417   .     S
C95    N121    1.388   .     A
C95    C97     1.501   .     S
C95    C489    1.417   .     S
C96    N122    1.388   .     A
C96    C98     1.501   .     S
C96    C886    1.417   1_554 S
C97    H108    1.111   .     S
C97    H109    1.111   .     S
C97    H120    1.091   .     S
C98    H111    1.111   .     S
C98    H110    1.091   .     S
C98    H112    1.111   .     S
C99    O126    1.291   .     A
C99    O124    1.287   .     A
C100   O129    1.288   .     A
C100   O127    1.280   .     A
C100   C102    1.405   .     S
C101   O130    1.288   .     A
C101   C103    1.405   .     S
C101   O128    1.280   .     A
C103   C14     1.335   1_655 S
C103   H25     1.088   1_655 S
C104   H114    1.084   .     S
C104   C370    1.370   1_545 S
C105   H115    1.084   .     S
C105   C222    1.370   .     S
C106   H116    1.084   .     S
C106   C236    1.370   .     S
H107   C14     1.088   1_655 S
N121   Zn131   2.022   .     S
N122   Zn132   2.022   .     S
O123   Zn131   1.998   .     S
O124   Zn132   1.998   .     S
O125   Zn132   2.005   .     S
O126   Zn131   2.005   .     S
O127   Zn131   1.965   .     S
O128   Zn132   1.965   .     S
O129   Zn132   1.983   .     S
O130   Zn131   1.983   .     S
C133   O169    1.291   .     A
C133   C136    1.422   .     S
C133   O167    1.287   .     A
C134   C136    1.399   .     A
C134   H161    1.084   .     S
C135   C149    1.396   .     A
C135   C143    1.422   .     S
C135   C150    1.399   .     A
C136   C148    1.396   .     A
C137   N166    1.354   .     A
C137   H162    1.083   .     S
C137   C931    1.417   1_554 S
C138   N165    1.354   .     A
C138   H163    1.083   .     S
C138   C536    1.417   .     S
C139   N165    1.388   .     A
C139   C141    1.501   .     S
C139   C533    1.417   .     S
C140   N166    1.388   .     A
C140   C142    1.501   .     S
C140   C930    1.417   1_554 S
C141   H152    1.111   .     S
C141   H153    1.111   .     S
C141   H164    1.091   .     S
C142   H155    1.111   .     S
C142   H154    1.091   .     S
C142   H156    1.111   .     S
C143   O170    1.291   .     A
C143   O168    1.287   .     A
C144   O173    1.288   .     A
C144   O171    1.280   .     A
C144   C146    1.405   .     S
C145   O174    1.288   .     A
C145   C147    1.405   .     S
C145   O172    1.280   .     A
C146   C235    1.335   1_455 S
C146   H239    1.088   1_455 S
C147   C190    1.335   .     S
C147   H201    1.088   .     S
C148   H158    1.084   .     S
C149   H159    1.084   .     S
C149   C266    1.370   .     S
C150   H160    1.084   .     S
C150   C280    1.370   .     S
H151   C190    1.088   .     S
H157   C235    1.088   1_455 S
N165   Zn175   2.022   .     S
N166   Zn176   2.022   .     S
O167   Zn175   1.998   .     S
O168   Zn176   1.998   .     S
O169   Zn176   2.005   .     S
O170   Zn175   2.005   .     S
O171   Zn175   1.965   .     S
O172   Zn176   1.965   .     S
O173   Zn176   1.983   .     S
O174   Zn175   1.983   .     S
C177   O213    1.291   .     A
C177   C180    1.422   .     S
C177   O211    1.287   .     A
C178   C180    1.399   .     A
C178   H205    1.084   .     S
C179   C193    1.396   .     A
C179   C187    1.422   .     S
C179   C194    1.399   .     A
C180   C192    1.396   .     A
C181   N210    1.354   .     A
C181   H206    1.083   .     S
C181   C975    1.417   1_554 S
C182   N209    1.354   .     A
C182   H207    1.083   .     S
C182   C580    1.417   .     S
C183   N209    1.388   .     A
C183   C185    1.501   .     S
C183   C577    1.417   .     S
C184   N210    1.388   .     A
C184   C186    1.501   .     S
C184   C974    1.417   1_554 S
C185   H196    1.111   .     S
C185   H197    1.111   .     S
C185   H208    1.091   .     S
C186   H199    1.111   .     S
C186   H198    1.091   .     S
C186   H200    1.111   .     S
C187   O214    1.291   .     A
C187   O212    1.287   .     A
C188   O217    1.288   .     A
C188   O215    1.280   .     A
C188   C190    1.405   .     S
C189   O218    1.288   .     A
C189   C191    1.405   .     S
C189   O216    1.280   .     A
C191   C234    1.335   .     S
C191   H245    1.088   .     S
C192   H202    1.084   .     S
C193   H203    1.084   .     S
C193   C310    1.370   .     S
C194   H204    1.084   .     S
C194   C324    1.370   .     S
H195   C234    1.088   .     S
N209   Zn219   2.022   .     S
N210   Zn220   2.022   .     S
O211   Zn219   1.998   .     S
O212   Zn220   1.998   .     S
O213   Zn220   2.005   .     S
O214   Zn219   2.005   .     S
O215   Zn219   1.965   .     S
O216   Zn220   1.965   .     S
O217   Zn220   1.983   .     S
O218   Zn219   1.983   .     S
C221   O257    1.291   .     A
C221   C224    1.422   .     S
C221   O255    1.287   .     A
C222   C224    1.399   .     A
C222   H249    1.084   .     S
C223   C237    1.396   .     A
C223   C231    1.422   .     S
C223   C238    1.399   .     A
C224   C236    1.396   .     A
C225   N254    1.354   .     A
C225   H250    1.083   .     S
C225   C1019   1.417   1_554 S
C226   N253    1.354   .     A
C226   H251    1.083   .     S
C226   C624    1.417   .     S
C227   N253    1.388   .     A
C227   C229    1.501   .     S
C227   C621    1.417   .     S
C228   N254    1.388   .     A
C228   C230    1.501   .     S
C228   C1018   1.417   1_554 S
C229   H240    1.111   .     S
C229   H241    1.111   .     S
C229   H252    1.091   .     S
C230   H243    1.111   .     S
C230   H242    1.091   .     S
C230   H244    1.111   .     S
C231   O258    1.291   .     A
C231   O256    1.287   .     A
C232   O261    1.288   .     A
C232   O259    1.280   .     A
C232   C234    1.405   .     S
C233   O262    1.288   .     A
C233   C235    1.405   .     S
C233   O260    1.280   .     A
C235   C146    1.335   1_655 S
C235   H157    1.088   1_655 S
C236   H246    1.084   .     S
C237   H247    1.084   .     S
C237   C354    1.370   .     S
C238   H248    1.084   .     S
C238   C368    1.370   .     S
H239   C146    1.088   1_655 S
N253   Zn263   2.022   .     S
N254   Zn264   2.022   .     S
O255   Zn263   1.998   .     S
O256   Zn264   1.998   .     S
O257   Zn264   2.005   .     S
O258   Zn263   2.005   .     S
O259   Zn263   1.965   .     S
O260   Zn264   1.965   .     S
O261   Zn264   1.983   .     S
O262   Zn263   1.983   .     S
C265   O301    1.291   .     A
C265   C268    1.422   .     S
C265   O299    1.287   .     A
C266   C268    1.399   .     A
C266   H293    1.084   .     S
C267   C281    1.396   .     A
C267   C275    1.422   .     S
C267   C282    1.399   .     A
C268   C280    1.396   .     A
C269   N298    1.354   .     A
C269   H294    1.083   .     S
C269   C1063   1.417   1_554 S
C270   N297    1.354   .     A
C270   H295    1.083   .     S
C270   C668    1.417   .     S
C271   N297    1.388   .     A
C271   C273    1.501   .     S
C271   C665    1.417   .     S
C272   N298    1.388   .     A
C272   C274    1.501   .     S
C272   C1062   1.417   1_554 S
C273   H284    1.111   .     S
C273   H285    1.111   .     S
C273   H296    1.091   .     S
C274   H287    1.111   .     S
C274   H286    1.091   .     S
C274   H288    1.111   .     S
C275   O302    1.291   .     A
C275   O300    1.287   .     A
C276   O305    1.288   .     A
C276   O303    1.280   .     A
C276   C278    1.405   .     S
C277   O306    1.288   .     A
C277   C279    1.405   .     S
C277   O304    1.280   .     A
C278   C367    1.335   1_455 S
C278   H371    1.088   1_455 S
C279   C322    1.335   .     S
C279   H333    1.088   .     S
C280   H290    1.084   .     S
C281   H291    1.084   .     S
C281   C2      1.370   1_565 S
C282   H292    1.084   .     S
C282   C16     1.370   1_565 S
H283   C322    1.088   .     S
H289   C367    1.088   1_455 S
N297   Zn307   2.022   .     S
N298   Zn308   2.022   .     S
O299   Zn307   1.998   .     S
O300   Zn308   1.998   .     S
O301   Zn308   2.005   .     S
O302   Zn307   2.005   .     S
O303   Zn307   1.965   .     S
O304   Zn308   1.965   .     S
O305   Zn308   1.983   .     S
O306   Zn307   1.983   .     S
C309   O345    1.291   .     A
C309   C312    1.422   .     S
C309   O343    1.287   .     A
C310   C312    1.399   .     A
C310   H337    1.084   .     S
C311   C325    1.396   .     A
C311   C319    1.422   .     S
C311   C326    1.399   .     A
C312   C324    1.396   .     A
C313   N342    1.354   .     A
C313   H338    1.083   .     S
C313   C1107   1.417   1_554 S
C314   N341    1.354   .     A
C314   H339    1.083   .     S
C314   C712    1.417   .     S
C315   N341    1.388   .     A
C315   C317    1.501   .     S
C315   C709    1.417   .     S
C316   N342    1.388   .     A
C316   C318    1.501   .     S
C316   C1106   1.417   1_554 S
C317   H328    1.111   .     S
C317   H329    1.111   .     S
C317   H340    1.091   .     S
C318   H331    1.111   .     S
C318   H330    1.091   .     S
C318   H332    1.111   .     S
C319   O346    1.291   .     A
C319   O344    1.287   .     A
C320   O349    1.288   .     A
C320   O347    1.280   .     A
C320   C322    1.405   .     S
C321   O350    1.288   .     A
C321   C323    1.405   .     S
C321   O348    1.280   .     A
C323   C366    1.335   .     S
C323   H377    1.088   .     S
C324   H334    1.084   .     S
C325   H335    1.084   .     S
C325   C46     1.370   1_565 S
C326   H336    1.084   .     S
C326   C60     1.370   1_565 S
H327   C366    1.088   .     S
N341   Zn351   2.022   .     S
N342   Zn352   2.022   .     S
O343   Zn351   1.998   .     S
O344   Zn352   1.998   .     S
O345   Zn352   2.005   .     S
O346   Zn351   2.005   .     S
O347   Zn351   1.965   .     S
O348   Zn352   1.965   .     S
O349   Zn352   1.983   .     S
O350   Zn351   1.983   .     S
C353   O389    1.291   .     A
C353   C356    1.422   .     S
C353   O387    1.287   .     A
C354   C356    1.399   .     A
C354   H381    1.084   .     S
C355   C369    1.396   .     A
C355   C363    1.422   .     S
C355   C370    1.399   .     A
C356   C368    1.396   .     A
C357   N386    1.354   .     A
C357   H382    1.083   .     S
C357   C1151   1.417   1_554 S
C358   N385    1.354   .     A
C358   H383    1.083   .     S
C358   C756    1.417   .     S
C359   N385    1.388   .     A
C359   C361    1.501   .     S
C359   C753    1.417   .     S
C360   N386    1.388   .     A
C360   C362    1.501   .     S
C360   C1150   1.417   1_554 S
C361   H372    1.111   .     S
C361   H373    1.111   .     S
C361   H384    1.091   .     S
C362   H375    1.111   .     S
C362   H374    1.091   .     S
C362   H376    1.111   .     S
C363   O390    1.291   .     A
C363   O388    1.287   .     A
C364   O393    1.288   .     A
C364   O391    1.280   .     A
C364   C366    1.405   .     S
C365   O394    1.288   .     A
C365   C367    1.405   .     S
C365   O392    1.280   .     A
C367   C278    1.335   1_655 S
C367   H289    1.088   1_655 S
C368   H378    1.084   .     S
C369   H379    1.084   .     S
C369   C90     1.370   1_565 S
C370   H380    1.084   .     S
C370   C104    1.370   1_565 S
H371   C278    1.088   1_655 S
N385   Zn395   2.022   .     S
N386   Zn396   2.022   .     S
O387   Zn395   1.998   .     S
O388   Zn396   1.998   .     S
O389   Zn396   2.005   .     S
O390   Zn395   2.005   .     S
O391   Zn395   1.965   .     S
O392   Zn396   1.965   .     S
O393   Zn396   1.983   .     S
O394   Zn395   1.983   .     S
C397   O433    1.291   .     A
C397   C400    1.422   .     S
C397   O431    1.287   .     A
C398   C400    1.399   .     A
C398   H425    1.084   .     S
C398   C677    1.370   1_545 S
C399   C413    1.396   .     A
C399   C407    1.422   .     S
C399   C414    1.399   .     A
C400   C412    1.396   .     A
C401   N430    1.354   .     A
C401   H426    1.083   .     S
C402   N429    1.354   .     A
C402   H427    1.083   .     S
C402   C800    1.417   .     S
C403   N429    1.388   .     A
C403   C405    1.501   .     S
C403   C797    1.417   .     S
C404   N430    1.388   .     A
C404   C406    1.501   .     S
C405   H416    1.111   .     S
C405   H417    1.111   .     S
C405   H428    1.091   .     S
C406   H419    1.111   .     S
C406   H418    1.091   .     S
C406   H420    1.111   .     S
C407   O434    1.291   .     A
C407   O432    1.287   .     A
C408   O437    1.288   .     A
C408   O435    1.280   .     A
C408   C410    1.405   .     S
C409   O438    1.288   .     A
C409   C411    1.405   .     S
C409   O436    1.280   .     A
C410   C499    1.335   1_455 S
C410   H503    1.088   1_455 S
C411   C454    1.335   .     S
C411   H465    1.088   .     S
C412   H422    1.084   .     S
C412   C678    1.370   1_545 S
C413   H423    1.084   .     S
C413   C530    1.370   .     S
C414   H424    1.084   .     S
C414   C544    1.370   .     S
H415   C454    1.088   .     S
H421   C499    1.088   1_455 S
N429   Zn439   2.022   .     S
N430   Zn440   2.022   .     S
O431   Zn439   1.998   .     S
O432   Zn440   1.998   .     S
O433   Zn440   2.005   .     S
O434   Zn439   2.005   .     S
O435   Zn439   1.965   .     S
O436   Zn440   1.965   .     S
O437   Zn440   1.983   .     S
O438   Zn439   1.983   .     S
C441   O477    1.291   .     A
C441   C444    1.422   .     S
C441   O475    1.287   .     A
C442   C444    1.399   .     A
C442   H469    1.084   .     S
C442   C721    1.370   1_545 S
C443   C457    1.396   .     A
C443   C451    1.422   .     S
C443   C458    1.399   .     A
C444   C456    1.396   .     A
C445   N474    1.354   .     A
C445   H470    1.083   .     S
C446   N473    1.354   .     A
C446   H471    1.083   .     S
C446   C844    1.417   .     S
C447   N473    1.388   .     A
C447   C449    1.501   .     S
C447   C841    1.417   .     S
C448   N474    1.388   .     A
C448   C450    1.501   .     S
C449   H460    1.111   .     S
C449   H461    1.111   .     S
C449   H472    1.091   .     S
C450   H463    1.111   .     S
C450   H462    1.091   .     S
C450   H464    1.111   .     S
C451   O478    1.291   .     A
C451   O476    1.287   .     A
C452   O481    1.288   .     A
C452   O479    1.280   .     A
C452   C454    1.405   .     S
C453   O482    1.288   .     A
C453   C455    1.405   .     S
C453   O480    1.280   .     A
C455   C498    1.335   .     S
C455   H509    1.088   .     S
C456   H466    1.084   .     S
C456   C722    1.370   1_545 S
C457   H467    1.084   .     S
C457   C574    1.370   .     S
C458   H468    1.084   .     S
C458   C588    1.370   .     S
H459   C498    1.088   .     S
N473   Zn483   2.022   .     S
N474   Zn484   2.022   .     S
O475   Zn483   1.998   .     S
O476   Zn484   1.998   .     S
O477   Zn484   2.005   .     S
O478   Zn483   2.005   .     S
O479   Zn483   1.965   .     S
O480   Zn484   1.965   .     S
O481   Zn484   1.983   .     S
O482   Zn483   1.983   .     S
C485   O521    1.291   .     A
C485   C488    1.422   .     S
C485   O519    1.287   .     A
C486   C488    1.399   .     A
C486   H513    1.084   .     S
C486   C765    1.370   1_545 S
C487   C501    1.396   .     A
C487   C495    1.422   .     S
C487   C502    1.399   .     A
C488   C500    1.396   .     A
C489   N518    1.354   .     A
C489   H514    1.083   .     S
C490   N517    1.354   .     A
C490   H515    1.083   .     S
C490   C888    1.417   .     S
C491   N517    1.388   .     A
C491   C493    1.501   .     S
C491   C885    1.417   .     S
C492   N518    1.388   .     A
C492   C494    1.501   .     S
C493   H504    1.111   .     S
C493   H505    1.111   .     S
C493   H516    1.091   .     S
C494   H507    1.111   .     S
C494   H506    1.091   .     S
C494   H508    1.111   .     S
C495   O522    1.291   .     A
C495   O520    1.287   .     A
C496   O525    1.288   .     A
C496   O523    1.280   .     A
C496   C498    1.405   .     S
C497   O526    1.288   .     A
C497   C499    1.405   .     S
C497   O524    1.280   .     A
C499   C410    1.335   1_655 S
C499   H421    1.088   1_655 S
C500   H510    1.084   .     S
C500   C766    1.370   1_545 S
C501   H511    1.084   .     S
C501   C618    1.370   .     S
C502   H512    1.084   .     S
C502   C632    1.370   .     S
H503   C410    1.088   1_655 S
N517   Zn527   2.022   .     S
N518   Zn528   2.022   .     S
O519   Zn527   1.998   .     S
O520   Zn528   1.998   .     S
O521   Zn528   2.005   .     S
O522   Zn527   2.005   .     S
O523   Zn527   1.965   .     S
O524   Zn528   1.965   .     S
O525   Zn528   1.983   .     S
O526   Zn527   1.983   .     S
C529   O565    1.291   .     A
C529   C532    1.422   .     S
C529   O563    1.287   .     A
C530   C532    1.399   .     A
C530   H557    1.084   .     S
C531   C545    1.396   .     A
C531   C539    1.422   .     S
C531   C546    1.399   .     A
C532   C544    1.396   .     A
C533   N562    1.354   .     A
C533   H558    1.083   .     S
C534   N561    1.354   .     A
C534   H559    1.083   .     S
C534   C932    1.417   .     S
C535   N561    1.388   .     A
C535   C537    1.501   .     S
C535   C929    1.417   .     S
C536   N562    1.388   .     A
C536   C538    1.501   .     S
C537   H548    1.111   .     S
C537   H549    1.111   .     S
C537   H560    1.091   .     S
C538   H551    1.111   .     S
C538   H550    1.091   .     S
C538   H552    1.111   .     S
C539   O566    1.291   .     A
C539   O564    1.287   .     A
C540   O569    1.288   .     A
C540   O567    1.280   .     A
C540   C542    1.405   .     S
C541   O570    1.288   .     A
C541   C543    1.405   .     S
C541   O568    1.280   .     A
C542   C631    1.335   1_455 S
C542   H635    1.088   1_455 S
C543   C586    1.335   .     S
C543   H597    1.088   .     S
C544   H554    1.084   .     S
C545   H555    1.084   .     S
C545   C662    1.370   .     S
C546   H556    1.084   .     S
C546   C676    1.370   .     S
H547   C586    1.088   .     S
H553   C631    1.088   1_455 S
N561   Zn571   2.022   .     S
N562   Zn572   2.022   .     S
O563   Zn571   1.998   .     S
O564   Zn572   1.998   .     S
O565   Zn572   2.005   .     S
O566   Zn571   2.005   .     S
O567   Zn571   1.965   .     S
O568   Zn572   1.965   .     S
O569   Zn572   1.983   .     S
O570   Zn571   1.983   .     S
C573   O609    1.291   .     A
C573   C576    1.422   .     S
C573   O607    1.287   .     A
C574   C576    1.399   .     A
C574   H601    1.084   .     S
C575   C589    1.396   .     A
C575   C583    1.422   .     S
C575   C590    1.399   .     A
C576   C588    1.396   .     A
C577   N606    1.354   .     A
C577   H602    1.083   .     S
C578   N605    1.354   .     A
C578   H603    1.083   .     S
C578   C976    1.417   .     S
C579   N605    1.388   .     A
C579   C581    1.501   .     S
C579   C973    1.417   .     S
C580   N606    1.388   .     A
C580   C582    1.501   .     S
C581   H592    1.111   .     S
C581   H593    1.111   .     S
C581   H604    1.091   .     S
C582   H595    1.111   .     S
C582   H594    1.091   .     S
C582   H596    1.111   .     S
C583   O610    1.291   .     A
C583   O608    1.287   .     A
C584   O613    1.288   .     A
C584   O611    1.280   .     A
C584   C586    1.405   .     S
C585   O614    1.288   .     A
C585   C587    1.405   .     S
C585   O612    1.280   .     A
C587   C630    1.335   .     S
C587   H641    1.088   .     S
C588   H598    1.084   .     S
C589   H599    1.084   .     S
C589   C706    1.370   .     S
C590   H600    1.084   .     S
C590   C720    1.370   .     S
H591   C630    1.088   .     S
N605   Zn615   2.022   .     S
N606   Zn616   2.022   .     S
O607   Zn615   1.998   .     S
O608   Zn616   1.998   .     S
O609   Zn616   2.005   .     S
O610   Zn615   2.005   .     S
O611   Zn615   1.965   .     S
O612   Zn616   1.965   .     S
O613   Zn616   1.983   .     S
O614   Zn615   1.983   .     S
C617   O653    1.291   .     A
C617   C620    1.422   .     S
C617   O651    1.287   .     A
C618   C620    1.399   .     A
C618   H645    1.084   .     S
C619   C633    1.396   .     A
C619   C627    1.422   .     S
C619   C634    1.399   .     A
C620   C632    1.396   .     A
C621   N650    1.354   .     A
C621   H646    1.083   .     S
C622   N649    1.354   .     A
C622   H647    1.083   .     S
C622   C1020   1.417   .     S
C623   N649    1.388   .     A
C623   C625    1.501   .     S
C623   C1017   1.417   .     S
C624   N650    1.388   .     A
C624   C626    1.501   .     S
C625   H636    1.111   .     S
C625   H637    1.111   .     S
C625   H648    1.091   .     S
C626   H639    1.111   .     S
C626   H638    1.091   .     S
C626   H640    1.111   .     S
C627   O654    1.291   .     A
C627   O652    1.287   .     A
C628   O657    1.288   .     A
C628   O655    1.280   .     A
C628   C630    1.405   .     S
C629   O658    1.288   .     A
C629   C631    1.405   .     S
C629   O656    1.280   .     A
C631   C542    1.335   1_655 S
C631   H553    1.088   1_655 S
C632   H642    1.084   .     S
C633   H643    1.084   .     S
C633   C750    1.370   .     S
C634   H644    1.084   .     S
C634   C764    1.370   .     S
H635   C542    1.088   1_655 S
N649   Zn659   2.022   .     S
N650   Zn660   2.022   .     S
O651   Zn659   1.998   .     S
O652   Zn660   1.998   .     S
O653   Zn660   2.005   .     S
O654   Zn659   2.005   .     S
O655   Zn659   1.965   .     S
O656   Zn660   1.965   .     S
O657   Zn660   1.983   .     S
O658   Zn659   1.983   .     S
C661   O697    1.291   .     A
C661   C664    1.422   .     S
C661   O695    1.287   .     A
C662   C664    1.399   .     A
C662   H689    1.084   .     S
C663   C677    1.396   .     A
C663   C671    1.422   .     S
C663   C678    1.399   .     A
C664   C676    1.396   .     A
C665   N694    1.354   .     A
C665   H690    1.083   .     S
C666   N693    1.354   .     A
C666   H691    1.083   .     S
C666   C1064   1.417   .     S
C667   N693    1.388   .     A
C667   C669    1.501   .     S
C667   C1061   1.417   .     S
C668   N694    1.388   .     A
C668   C670    1.501   .     S
C669   H680    1.111   .     S
C669   H681    1.111   .     S
C669   H692    1.091   .     S
C670   H683    1.111   .     S
C670   H682    1.091   .     S
C670   H684    1.111   .     S
C671   O698    1.291   .     A
C671   O696    1.287   .     A
C672   O701    1.288   .     A
C672   O699    1.280   .     A
C672   C674    1.405   .     S
C673   O702    1.288   .     A
C673   C675    1.405   .     S
C673   O700    1.280   .     A
C674   C763    1.335   1_455 S
C674   H767    1.088   1_455 S
C675   C718    1.335   .     S
C675   H729    1.088   .     S
C676   H686    1.084   .     S
C677   H687    1.084   .     S
C677   C398    1.370   1_565 S
C678   H688    1.084   .     S
C678   C412    1.370   1_565 S
H679   C718    1.088   .     S
H685   C763    1.088   1_455 S
N693   Zn703   2.022   .     S
N694   Zn704   2.022   .     S
O695   Zn703   1.998   .     S
O696   Zn704   1.998   .     S
O697   Zn704   2.005   .     S
O698   Zn703   2.005   .     S
O699   Zn703   1.965   .     S
O700   Zn704   1.965   .     S
O701   Zn704   1.983   .     S
O702   Zn703   1.983   .     S
C705   O741    1.291   .     A
C705   C708    1.422   .     S
C705   O739    1.287   .     A
C706   C708    1.399   .     A
C706   H733    1.084   .     S
C707   C721    1.396   .     A
C707   C715    1.422   .     S
C707   C722    1.399   .     A
C708   C720    1.396   .     A
C709   N738    1.354   .     A
C709   H734    1.083   .     S
C710   N737    1.354   .     A
C710   H735    1.083   .     S
C710   C1108   1.417   .     S
C711   N737    1.388   .     A
C711   C713    1.501   .     S
C711   C1105   1.417   .     S
C712   N738    1.388   .     A
C712   C714    1.501   .     S
C713   H724    1.111   .     S
C713   H725    1.111   .     S
C713   H736    1.091   .     S
C714   H727    1.111   .     S
C714   H726    1.091   .     S
C714   H728    1.111   .     S
C715   O742    1.291   .     A
C715   O740    1.287   .     A
C716   O745    1.288   .     A
C716   O743    1.280   .     A
C716   C718    1.405   .     S
C717   O746    1.288   .     A
C717   C719    1.405   .     S
C717   O744    1.280   .     A
C719   C762    1.335   .     S
C719   H773    1.088   .     S
C720   H730    1.084   .     S
C721   H731    1.084   .     S
C721   C442    1.370   1_565 S
C722   H732    1.084   .     S
C722   C456    1.370   1_565 S
H723   C762    1.088   .     S
N737   Zn747   2.022   .     S
N738   Zn748   2.022   .     S
O739   Zn747   1.998   .     S
O740   Zn748   1.998   .     S
O741   Zn748   2.005   .     S
O742   Zn747   2.005   .     S
O743   Zn747   1.965   .     S
O744   Zn748   1.965   .     S
O745   Zn748   1.983   .     S
O746   Zn747   1.983   .     S
C749   O785    1.291   .     A
C749   C752    1.422   .     S
C749   O783    1.287   .     A
C750   C752    1.399   .     A
C750   H777    1.084   .     S
C751   C765    1.396   .     A
C751   C759    1.422   .     S
C751   C766    1.399   .     A
C752   C764    1.396   .     A
C753   N782    1.354   .     A
C753   H778    1.083   .     S
C754   N781    1.354   .     A
C754   H779    1.083   .     S
C754   C1152   1.417   .     S
C755   N781    1.388   .     A
C755   C757    1.501   .     S
C755   C1149   1.417   .     S
C756   N782    1.388   .     A
C756   C758    1.501   .     S
C757   H768    1.111   .     S
C757   H769    1.111   .     S
C757   H780    1.091   .     S
C758   H771    1.111   .     S
C758   H770    1.091   .     S
C758   H772    1.111   .     S
C759   O786    1.291   .     A
C759   O784    1.287   .     A
C760   O789    1.288   .     A
C760   O787    1.280   .     A
C760   C762    1.405   .     S
C761   O790    1.288   .     A
C761   C763    1.405   .     S
C761   O788    1.280   .     A
C763   C674    1.335   1_655 S
C763   H685    1.088   1_655 S
C764   H774    1.084   .     S
C765   H775    1.084   .     S
C765   C486    1.370   1_565 S
C766   H776    1.084   .     S
C766   C500    1.370   1_565 S
H767   C674    1.088   1_655 S
N781   Zn791   2.022   .     S
N782   Zn792   2.022   .     S
O783   Zn791   1.998   .     S
O784   Zn792   1.998   .     S
O785   Zn792   2.005   .     S
O786   Zn791   2.005   .     S
O787   Zn791   1.965   .     S
O788   Zn792   1.965   .     S
O789   Zn792   1.983   .     S
O790   Zn791   1.983   .     S
C793   O829    1.291   .     A
C793   C796    1.422   .     S
C793   O827    1.287   .     A
C794   C796    1.399   .     A
C794   H821    1.084   .     S
C794   C1073   1.370   1_545 S
C795   C809    1.396   .     A
C795   C803    1.422   .     S
C795   C810    1.399   .     A
C796   C808    1.396   .     A
C797   N826    1.354   .     A
C797   H822    1.083   .     S
C798   N825    1.354   .     A
C798   H823    1.083   .     S
C798   C8      1.417   1_556 S
C799   N825    1.388   .     A
C799   C801    1.501   .     S
C799   C5      1.417   1_556 S
C800   N826    1.388   .     A
C800   C802    1.501   .     S
C801   H812    1.111   .     S
C801   H813    1.111   .     S
C801   H824    1.091   .     S
C802   H815    1.111   .     S
C802   H814    1.091   .     S
C802   H816    1.111   .     S
C803   O830    1.291   .     A
C803   O828    1.287   .     A
C804   O833    1.288   .     A
C804   O831    1.280   .     A
C804   C806    1.405   .     S
C805   O834    1.288   .     A
C805   C807    1.405   .     S
C805   O832    1.280   .     A
C806   C895    1.335   1_455 S
C806   H899    1.088   1_455 S
C807   C850    1.335   .     S
C807   H861    1.088   .     S
C808   H818    1.084   .     S
C808   C1074   1.370   1_545 S
C809   H819    1.084   .     S
C809   C926    1.370   .     S
C810   H820    1.084   .     S
C810   C940    1.370   .     S
H811   C850    1.088   .     S
H817   C895    1.088   1_455 S
N825   Zn835   2.022   .     S
N826   Zn836   2.022   .     S
O827   Zn835   1.998   .     S
O828   Zn836   1.998   .     S
O829   Zn836   2.005   .     S
O830   Zn835   2.005   .     S
O831   Zn835   1.965   .     S
O832   Zn836   1.965   .     S
O833   Zn836   1.983   .     S
O834   Zn835   1.983   .     S
C837   O873    1.291   .     A
C837   C840    1.422   .     S
C837   O871    1.287   .     A
C838   C840    1.399   .     A
C838   H865    1.084   .     S
C838   C1117   1.370   1_545 S
C839   C853    1.396   .     A
C839   C847    1.422   .     S
C839   C854    1.399   .     A
C840   C852    1.396   .     A
C841   N870    1.354   .     A
C841   H866    1.083   .     S
C842   N869    1.354   .     A
C842   H867    1.083   .     S
C842   C52     1.417   1_556 S
C843   N869    1.388   .     A
C843   C845    1.501   .     S
C843   C49     1.417   1_556 S
C844   N870    1.388   .     A
C844   C846    1.501   .     S
C845   H856    1.111   .     S
C845   H857    1.111   .     S
C845   H868    1.091   .     S
C846   H859    1.111   .     S
C846   H858    1.091   .     S
C846   H860    1.111   .     S
C847   O874    1.291   .     A
C847   O872    1.287   .     A
C848   O877    1.288   .     A
C848   O875    1.280   .     A
C848   C850    1.405   .     S
C849   O878    1.288   .     A
C849   C851    1.405   .     S
C849   O876    1.280   .     A
C851   C894    1.335   .     S
C851   H905    1.088   .     S
C852   H862    1.084   .     S
C852   C1118   1.370   1_545 S
C853   H863    1.084   .     S
C853   C970    1.370   .     S
C854   H864    1.084   .     S
C854   C984    1.370   .     S
H855   C894    1.088   .     S
N869   Zn879   2.022   .     S
N870   Zn880   2.022   .     S
O871   Zn879   1.998   .     S
O872   Zn880   1.998   .     S
O873   Zn880   2.005   .     S
O874   Zn879   2.005   .     S
O875   Zn879   1.965   .     S
O876   Zn880   1.965   .     S
O877   Zn880   1.983   .     S
O878   Zn879   1.983   .     S
C881   O917    1.291   .     A
C881   C884    1.422   .     S
C881   O915    1.287   .     A
C882   C884    1.399   .     A
C882   H909    1.084   .     S
C882   C1161   1.370   1_545 S
C883   C897    1.396   .     A
C883   C891    1.422   .     S
C883   C898    1.399   .     A
C884   C896    1.396   .     A
C885   N914    1.354   .     A
C885   H910    1.083   .     S
C886   N913    1.354   .     A
C886   H911    1.083   .     S
C886   C96     1.417   1_556 S
C887   N913    1.388   .     A
C887   C889    1.501   .     S
C887   C93     1.417   1_556 S
C888   N914    1.388   .     A
C888   C890    1.501   .     S
C889   H900    1.111   .     S
C889   H901    1.111   .     S
C889   H912    1.091   .     S
C890   H903    1.111   .     S
C890   H902    1.091   .     S
C890   H904    1.111   .     S
C891   O918    1.291   .     A
C891   O916    1.287   .     A
C892   O921    1.288   .     A
C892   O919    1.280   .     A
C892   C894    1.405   .     S
C893   O922    1.288   .     A
C893   C895    1.405   .     S
C893   O920    1.280   .     A
C895   C806    1.335   1_655 S
C895   H817    1.088   1_655 S
C896   H906    1.084   .     S
C896   C1162   1.370   1_545 S
C897   H907    1.084   .     S
C897   C1014   1.370   .     S
C898   H908    1.084   .     S
C898   C1028   1.370   .     S
H899   C806    1.088   1_655 S
N913   Zn923   2.022   .     S
N914   Zn924   2.022   .     S
O915   Zn923   1.998   .     S
O916   Zn924   1.998   .     S
O917   Zn924   2.005   .     S
O918   Zn923   2.005   .     S
O919   Zn923   1.965   .     S
O920   Zn924   1.965   .     S
O921   Zn924   1.983   .     S
O922   Zn923   1.983   .     S
C925   O961    1.291   .     A
C925   C928    1.422   .     S
C925   O959    1.287   .     A
C926   C928    1.399   .     A
C926   H953    1.084   .     S
C927   C941    1.396   .     A
C927   C935    1.422   .     S
C927   C942    1.399   .     A
C928   C940    1.396   .     A
C929   N958    1.354   .     A
C929   H954    1.083   .     S
C930   N957    1.354   .     A
C930   H955    1.083   .     S
C930   C140    1.417   1_556 S
C931   N957    1.388   .     A
C931   C933    1.501   .     S
C931   C137    1.417   1_556 S
C932   N958    1.388   .     A
C932   C934    1.501   .     S
C933   H944    1.111   .     S
C933   H945    1.111   .     S
C933   H956    1.091   .     S
C934   H947    1.111   .     S
C934   H946    1.091   .     S
C934   H948    1.111   .     S
C935   O962    1.291   .     A
C935   O960    1.287   .     A
C936   O965    1.288   .     A
C936   O963    1.280   .     A
C936   C938    1.405   .     S
C937   O966    1.288   .     A
C937   C939    1.405   .     S
C937   O964    1.280   .     A
C938   C1027   1.335   1_455 S
C938   H1031   1.088   1_455 S
C939   C982    1.335   .     S
C939   H993    1.088   .     S
C940   H950    1.084   .     S
C941   H951    1.084   .     S
C941   C1058   1.370   .     S
C942   H952    1.084   .     S
C942   C1072   1.370   .     S
H943   C982    1.088   .     S
H949   C1027   1.088   1_455 S
N957   Zn967   2.022   .     S
N958   Zn968   2.022   .     S
O959   Zn967   1.998   .     S
O960   Zn968   1.998   .     S
O961   Zn968   2.005   .     S
O962   Zn967   2.005   .     S
O963   Zn967   1.965   .     S
O964   Zn968   1.965   .     S
O965   Zn968   1.983   .     S
O966   Zn967   1.983   .     S
C969   O1005   1.291   .     A
C969   C972    1.422   .     S
C969   O1003   1.287   .     A
C970   C972    1.399   .     A
C970   H997    1.084   .     S
C971   C985    1.396   .     A
C971   C979    1.422   .     S
C971   C986    1.399   .     A
C972   C984    1.396   .     A
C973   N1002   1.354   .     A
C973   H998    1.083   .     S
C974   N1001   1.354   .     A
C974   H999    1.083   .     S
C974   C184    1.417   1_556 S
C975   N1001   1.388   .     A
C975   C977    1.501   .     S
C975   C181    1.417   1_556 S
C976   N1002   1.388   .     A
C976   C978    1.501   .     S
C977   H988    1.111   .     S
C977   H989    1.111   .     S
C977   H1000   1.091   .     S
C978   H991    1.111   .     S
C978   H990    1.091   .     S
C978   H992    1.111   .     S
C979   O1006   1.291   .     A
C979   O1004   1.287   .     A
C980   O1009   1.288   .     A
C980   O1007   1.280   .     A
C980   C982    1.405   .     S
C981   O1010   1.288   .     A
C981   C983    1.405   .     S
C981   O1008   1.280   .     A
C983   C1026   1.335   .     S
C983   H1037   1.088   .     S
C984   H994    1.084   .     S
C985   H995    1.084   .     S
C985   C1102   1.370   .     S
C986   H996    1.084   .     S
C986   C1116   1.370   .     S
H987   C1026   1.088   .     S
N1001  Zn1011  2.022   .     S
N1002  Zn1012  2.022   .     S
O1003  Zn1011  1.998   .     S
O1004  Zn1012  1.998   .     S
O1005  Zn1012  2.005   .     S
O1006  Zn1011  2.005   .     S
O1007  Zn1011  1.965   .     S
O1008  Zn1012  1.965   .     S
O1009  Zn1012  1.983   .     S
O1010  Zn1011  1.983   .     S
C1013  O1049   1.291   .     A
C1013  C1016   1.422   .     S
C1013  O1047   1.287   .     A
C1014  C1016   1.399   .     A
C1014  H1041   1.084   .     S
C1015  C1029   1.396   .     A
C1015  C1023   1.422   .     S
C1015  C1030   1.399   .     A
C1016  C1028   1.396   .     A
C1017  N1046   1.354   .     A
C1017  H1042   1.083   .     S
C1018  N1045   1.354   .     A
C1018  H1043   1.083   .     S
C1018  C228    1.417   1_556 S
C1019  N1045   1.388   .     A
C1019  C1021   1.501   .     S
C1019  C225    1.417   1_556 S
C1020  N1046   1.388   .     A
C1020  C1022   1.501   .     S
C1021  H1032   1.111   .     S
C1021  H1033   1.111   .     S
C1021  H1044   1.091   .     S
C1022  H1035   1.111   .     S
C1022  H1034   1.091   .     S
C1022  H1036   1.111   .     S
C1023  O1050   1.291   .     A
C1023  O1048   1.287   .     A
C1024  O1053   1.288   .     A
C1024  O1051   1.280   .     A
C1024  C1026   1.405   .     S
C1025  O1054   1.288   .     A
C1025  C1027   1.405   .     S
C1025  O1052   1.280   .     A
C1027  C938    1.335   1_655 S
C1027  H949    1.088   1_655 S
C1028  H1038   1.084   .     S
C1029  H1039   1.084   .     S
C1029  C1146   1.370   .     S
C1030  H1040   1.084   .     S
C1030  C1160   1.370   .     S
H1031  C938    1.088   1_655 S
N1045  Zn1055  2.022   .     S
N1046  Zn1056  2.022   .     S
O1047  Zn1055  1.998   .     S
O1048  Zn1056  1.998   .     S
O1049  Zn1056  2.005   .     S
O1050  Zn1055  2.005   .     S
O1051  Zn1055  1.965   .     S
O1052  Zn1056  1.965   .     S
O1053  Zn1056  1.983   .     S
O1054  Zn1055  1.983   .     S
C1057  O1093   1.291   .     A
C1057  C1060   1.422   .     S
C1057  O1091   1.287   .     A
C1058  C1060   1.399   .     A
C1058  H1085   1.084   .     S
C1059  C1073   1.396   .     A
C1059  C1067   1.422   .     S
C1059  C1074   1.399   .     A
C1060  C1072   1.396   .     A
C1061  N1090   1.354   .     A
C1061  H1086   1.083   .     S
C1062  N1089   1.354   .     A
C1062  H1087   1.083   .     S
C1062  C272    1.417   1_556 S
C1063  N1089   1.388   .     A
C1063  C1065   1.501   .     S
C1063  C269    1.417   1_556 S
C1064  N1090   1.388   .     A
C1064  C1066   1.501   .     S
C1065  H1076   1.111   .     S
C1065  H1077   1.111   .     S
C1065  H1088   1.091   .     S
C1066  H1079   1.111   .     S
C1066  H1078   1.091   .     S
C1066  H1080   1.111   .     S
C1067  O1094   1.291   .     A
C1067  O1092   1.287   .     A
C1068  O1097   1.288   .     A
C1068  O1095   1.280   .     A
C1068  C1070   1.405   .     S
C1069  O1098   1.288   .     A
C1069  C1071   1.405   .     S
C1069  O1096   1.280   .     A
C1070  C1159   1.335   1_455 S
C1070  H1163   1.088   1_455 S
C1071  C1114   1.335   .     S
C1071  H1125   1.088   .     S
C1072  H1082   1.084   .     S
C1073  H1083   1.084   .     S
C1073  C794    1.370   1_565 S
C1074  H1084   1.084   .     S
C1074  C808    1.370   1_565 S
H1075  C1114   1.088   .     S
H1081  C1159   1.088   1_455 S
N1089  Zn1099  2.022   .     S
N1090  Zn1100  2.022   .     S
O1091  Zn1099  1.998   .     S
O1092  Zn1100  1.998   .     S
O1093  Zn1100  2.005   .     S
O1094  Zn1099  2.005   .     S
O1095  Zn1099  1.965   .     S
O1096  Zn1100  1.965   .     S
O1097  Zn1100  1.983   .     S
O1098  Zn1099  1.983   .     S
C1101  O1137   1.291   .     A
C1101  C1104   1.422   .     S
C1101  O1135   1.287   .     A
C1102  C1104   1.399   .     A
C1102  H1129   1.084   .     S
C1103  C1117   1.396   .     A
C1103  C1111   1.422   .     S
C1103  C1118   1.399   .     A
C1104  C1116   1.396   .     A
C1105  N1134   1.354   .     A
C1105  H1130   1.083   .     S
C1106  N1133   1.354   .     A
C1106  H1131   1.083   .     S
C1106  C316    1.417   1_556 S
C1107  N1133   1.388   .     A
C1107  C1109   1.501   .     S
C1107  C313    1.417   1_556 S
C1108  N1134   1.388   .     A
C1108  C1110   1.501   .     S
C1109  H1120   1.111   .     S
C1109  H1121   1.111   .     S
C1109  H1132   1.091   .     S
C1110  H1123   1.111   .     S
C1110  H1122   1.091   .     S
C1110  H1124   1.111   .     S
C1111  O1138   1.291   .     A
C1111  O1136   1.287   .     A
C1112  O1141   1.288   .     A
C1112  O1139   1.280   .     A
C1112  C1114   1.405   .     S
C1113  O1142   1.288   .     A
C1113  C1115   1.405   .     S
C1113  O1140   1.280   .     A
C1115  C1158   1.335   .     S
C1115  H1169   1.088   .     S
C1116  H1126   1.084   .     S
C1117  H1127   1.084   .     S
C1117  C838    1.370   1_565 S
C1118  H1128   1.084   .     S
C1118  C852    1.370   1_565 S
H1119  C1158   1.088   .     S
N1133  Zn1143  2.022   .     S
N1134  Zn1144  2.022   .     S
O1135  Zn1143  1.998   .     S
O1136  Zn1144  1.998   .     S
O1137  Zn1144  2.005   .     S
O1138  Zn1143  2.005   .     S
O1139  Zn1143  1.965   .     S
O1140  Zn1144  1.965   .     S
O1141  Zn1144  1.983   .     S
O1142  Zn1143  1.983   .     S
C1145  O1181   1.291   .     A
C1145  C1148   1.422   .     S
C1145  O1179   1.287   .     A
C1146  C1148   1.399   .     A
C1146  H1173   1.084   .     S
C1147  C1161   1.396   .     A
C1147  C1155   1.422   .     S
C1147  C1162   1.399   .     A
C1148  C1160   1.396   .     A
C1149  N1178   1.354   .     A
C1149  H1174   1.083   .     S
C1150  N1177   1.354   .     A
C1150  H1175   1.083   .     S
C1150  C360    1.417   1_556 S
C1151  N1177   1.388   .     A
C1151  C1153   1.501   .     S
C1151  C357    1.417   1_556 S
C1152  N1178   1.388   .     A
C1152  C1154   1.501   .     S
C1153  H1164   1.111   .     S
C1153  H1165   1.111   .     S
C1153  H1176   1.091   .     S
C1154  H1167   1.111   .     S
C1154  H1166   1.091   .     S
C1154  H1168   1.111   .     S
C1155  O1182   1.291   .     A
C1155  O1180   1.287   .     A
C1156  O1185   1.288   .     A
C1156  O1183   1.280   .     A
C1156  C1158   1.405   .     S
C1157  O1186   1.288   .     A
C1157  C1159   1.405   .     S
C1157  O1184   1.280   .     A
C1159  C1070   1.335   1_655 S
C1159  H1081   1.088   1_655 S
C1160  H1170   1.084   .     S
C1161  H1171   1.084   .     S
C1161  C882    1.370   1_565 S
C1162  H1172   1.084   .     S
C1162  C896    1.370   1_565 S
H1163  C1070   1.088   1_655 S
N1177  Zn1187  2.022   .     S
N1178  Zn1188  2.022   .     S
O1179  Zn1187  1.998   .     S
O1180  Zn1188  1.998   .     S
O1181  Zn1188  2.005   .     S
O1182  Zn1187  2.005   .     S
O1183  Zn1187  1.965   .     S
O1184  Zn1188  1.965   .     S
O1185  Zn1188  1.983   .     S
O1186  Zn1187  1.983   .     S
