data_str_m3_o1_o1_pcu_sym.4
_audit_creation_date              2020-01-03
_audit_creation_method            'Materials Studio'
_symmetry_space_group_name_H-M    'P1'
_symmetry_Int_Tables_number       1
_symmetry_cell_setting            triclinic
loop_
_symmetry_equiv_pos_as_xyz
  x,y,z
_cell_length_a                    31.1790
_cell_length_b                    30.2480
_cell_length_c                    29.5724
_cell_angle_alpha                 89.6438
_cell_angle_beta                  89.9982
_cell_angle_gamma                 90.0036
loop_
_atom_site_label
_atom_site_type_symbol
_atom_site_fract_x
_atom_site_fract_y
_atom_site_fract_z
_atom_site_U_iso_or_equiv
_atom_site_adp_type
_atom_site_occupancy
C1     C     0.06002   0.18981   0.16685   0.00000  Uiso   1.00
C2     C     0.00031   0.21142   0.30968   0.00000  Uiso   1.00
C3     C     0.49884   0.21141   0.02408   0.00000  Uiso   1.00
C4     C     0.49883   0.28858   0.30924   0.00000  Uiso   1.00
C5     C     0.25035   0.03859   0.02365   0.00000  Uiso   1.00
C6     C     0.25031   0.46141   0.30968   0.00000  Uiso   1.00
C7     C     0.24876   0.46141   0.02408   0.00000  Uiso   1.00
C8     C     0.24880   0.03858   0.30925   0.00000  Uiso   1.00
C9     C     0.38478   0.14704   0.12593   0.00000  Uiso   1.00
C10    C     0.10628   0.36349   0.20674   0.00000  Uiso   1.00
C11    C     0.11232   0.35777   0.12507   0.00000  Uiso   1.00
C12    C     0.43996   0.31000   0.16666   0.00000  Uiso   1.00
C13    C     0.39519   0.13473   0.20642   0.00000  Uiso   1.00
C14    C     0.11232   0.14225   0.20827   0.00000  Uiso   1.00
C15    C     0.39522   0.36527   0.12683   0.00000  Uiso   1.00
C16    C     0.38483   0.35304   0.20736   0.00000  Uiso   1.00
C17    C     0.10650   0.13675   0.12655   0.00000  Uiso   1.00
C18    C     0.13462   0.39728   0.12601   0.00000  Uiso   1.00
C19    C     0.35613   0.11362   0.20670   0.00000  Uiso   1.00
C20    C     0.36247   0.10753   0.12509   0.00000  Uiso   1.00
C21    C     0.14533   0.38461   0.20640   0.00000  Uiso   1.00
C22    C     0.36256   0.39257   0.20818   0.00000  Uiso   1.00
C23    C     0.43997   0.18999   0.16667   0.00000  Uiso   1.00
C24    C     0.14551   0.11554   0.12695   0.00000  Uiso   1.00
C25    C     0.13461   0.10273   0.20731   0.00000  Uiso   1.00
C26    C     0.35623   0.38652   0.12656   0.00000  Uiso   1.00
C27    C     0.09289   0.34385   0.16599   0.00000  Uiso   1.00
C28    C     0.40663   0.15716   0.16638   0.00000  Uiso   1.00
C29    C     0.40663   0.34286   0.16690   0.00000  Uiso   1.00
C30    C     0.09299   0.15626   0.16732   0.00000  Uiso   1.00
C31    C     0.34288   0.09383   0.16600   0.00000  Uiso   1.00
C32    C     0.15662   0.40719   0.16641   0.00000  Uiso   1.00
C33    C     0.15667   0.09286   0.16693   0.00000  Uiso   1.00
C34    C     0.05999   0.31023   0.16648   0.00000  Uiso   1.00
C35    C     0.34299   0.40629   0.16729   0.00000  Uiso   1.00
C36    C     0.31002   0.43982   0.16684   0.00000  Uiso   1.00
C37    C     0.18998   0.06001   0.16666   0.00000  Uiso   1.00
C38    C     0.18997   0.44000   0.16668   0.00000  Uiso   1.00
C39    C     0.30998   0.06022   0.16648   0.00000  Uiso   1.00
C40    C     0.00032   0.28859   0.02364   0.00000  Uiso   1.00
H41    H     0.00145   0.31952   0.04129   0.00000  Uiso   1.00
H42    H     0.00758   0.39472   0.26103   0.00000  Uiso   1.00
H43    H     0.11622   0.25449   0.06136   0.00000  Uiso   1.00
H44    H     0.49764   0.10642   0.25715   0.00000  Uiso   1.00
H45    H     0.11548   0.24539   0.27223   0.00000  Uiso   1.00
H46    H     0.48239   0.39982   0.12204   0.00000  Uiso   1.00
H47    H     0.38016   0.24348   0.25935   0.00000  Uiso   1.00
H48    H     0.02216   0.09921   0.11719   0.00000  Uiso   1.00
H49    H     0.12931   0.00725   0.07492   0.00000  Uiso   1.00
H50    H     0.25717   0.14458   0.26083   0.00000  Uiso   1.00
H51    H     0.36679   0.00380   0.06221   0.00000  Uiso   1.00
H52    H     0.00142   0.18052   0.29199   0.00000  Uiso   1.00
H53    H     0.24802   0.35649   0.25683   0.00000  Uiso   1.00
H54    H     0.36607   0.49628   0.27107   0.00000  Uiso   1.00
H55    H     0.24837   0.14334   0.07667   0.00000  Uiso   1.00
H56    H     0.13007   0.49282   0.25847   0.00000  Uiso   1.00
H57    H     0.27150   0.34919   0.11768   0.00000  Uiso   1.00
H58    H     0.49676   0.18047   0.04202   0.00000  Uiso   1.00
H59    H     0.49674   0.31949   0.29127   0.00000  Uiso   1.00
H60    H     0.25158   0.06948   0.04133   0.00000  Uiso   1.00
H61    H     0.25151   0.43051   0.29199   0.00000  Uiso   1.00
H62    H     0.24660   0.43047   0.04202   0.00000  Uiso   1.00
H63    H     0.24666   0.06949   0.29127   0.00000  Uiso   1.00
H64    H     0.37935   0.25669   0.07404   0.00000  Uiso   1.00
N65    N     0.00000   0.25000   0.28573   0.00000  Uiso   1.00
N66    N     0.00000   0.25000   0.04760   0.00000  Uiso   1.00
N67    N     0.25000   0.00000   0.28573   0.00000  Uiso   1.00
N68    N     0.25000   0.00000   0.04760   0.00000  Uiso   1.00
O69    O     0.04581   0.20419   0.20487   0.00000  Uiso   1.00
O70    O     0.20420   0.04581   0.12846   0.00000  Uiso   1.00
O71    O     0.20420   0.04581   0.20487   0.00000  Uiso   1.00
O72    O     0.29581   0.45419   0.12846   0.00000  Uiso   1.00
O73    O     0.20420   0.45419   0.12846   0.00000  Uiso   1.00
O74    O     0.29581   0.04581   0.20487   0.00000  Uiso   1.00
O75    O     0.29581   0.04581   0.12846   0.00000  Uiso   1.00
O76    O     0.20420   0.45419   0.20487   0.00000  Uiso   1.00
O77    O     0.41136   0.18067   0.04660   0.00000  Uiso   1.00
O78    O     0.33394   0.17682   0.05876   0.00000  Uiso   1.00
O79    O     0.37630   0.23747   0.10109   0.00000  Uiso   1.00
O80    O     0.45420   0.29581   0.12846   0.00000  Uiso   1.00
O81    O     0.07767   0.33163   0.28508   0.00000  Uiso   1.00
O82    O     0.08599   0.41188   0.27964   0.00000  Uiso   1.00
O83    O     0.02167   0.37679   0.23738   0.00000  Uiso   1.00
O84    O     0.08087   0.33319   0.04523   0.00000  Uiso   1.00
O85    O     0.15886   0.33590   0.05204   0.00000  Uiso   1.00
O86    O     0.11935   0.27041   0.09034   0.00000  Uiso   1.00
O87    O     0.42497   0.15986   0.28669   0.00000  Uiso   1.00
O88    O     0.41981   0.08038   0.27348   0.00000  Uiso   1.00
O89    O     0.48154   0.12281   0.23354   0.00000  Uiso   1.00
O90    O     0.08072   0.16654   0.28814   0.00000  Uiso   1.00
O91    O     0.45420   0.29581   0.20487   0.00000  Uiso   1.00
O92    O     0.15871   0.16407   0.28144   0.00000  Uiso   1.00
O93    O     0.11912   0.22956   0.24326   0.00000  Uiso   1.00
O94    O     0.42450   0.33911   0.04685   0.00000  Uiso   1.00
O95    O     0.42000   0.41872   0.05862   0.00000  Uiso   1.00
O96    O     0.48167   0.37658   0.09861   0.00000  Uiso   1.00
O97    O     0.41142   0.31957   0.28673   0.00000  Uiso   1.00
O98    O     0.33400   0.32330   0.27457   0.00000  Uiso   1.00
O99    O     0.37640   0.26263   0.23235   0.00000  Uiso   1.00
O100   O     0.07828   0.16930   0.04847   0.00000  Uiso   1.00
O101   O     0.08618   0.08906   0.05273   0.00000  Uiso   1.00
O102   O     0.04581   0.20419   0.12846   0.00000  Uiso   1.00
O103   O     0.02190   0.12378   0.09489   0.00000  Uiso   1.00
O104   O     0.16067   0.43137   0.04665   0.00000  Uiso   1.00
O105   O     0.08332   0.42754   0.05948   0.00000  Uiso   1.00
O106   O     0.12610   0.48787   0.10183   0.00000  Uiso   1.00
O107   O     0.32743   0.08206   0.28514   0.00000  Uiso   1.00
O108   O     0.33557   0.16230   0.27931   0.00000  Uiso   1.00
O109   O     0.27140   0.12683   0.23713   0.00000  Uiso   1.00
O110   O     0.33136   0.08231   0.04530   0.00000  Uiso   1.00
O111   O     0.40931   0.08520   0.05241   0.00000  Uiso   1.00
O112   O     0.36974   0.01994   0.09108   0.00000  Uiso   1.00
O113   O     0.45420   0.20419   0.12846   0.00000  Uiso   1.00
O114   O     0.17524   0.40936   0.28677   0.00000  Uiso   1.00
O115   O     0.17026   0.32995   0.27305   0.00000  Uiso   1.00
O116   O     0.23180   0.37280   0.23326   0.00000  Uiso   1.00
O117   O     0.33138   0.41768   0.28800   0.00000  Uiso   1.00
O118   O     0.40934   0.41494   0.28090   0.00000  Uiso   1.00
O119   O     0.36968   0.48015   0.24227   0.00000  Uiso   1.00
O120   O     0.17543   0.09081   0.04658   0.00000  Uiso   1.00
O121   O     0.17072   0.17022   0.06042   0.00000  Uiso   1.00
O122   O     0.23206   0.12709   0.10022   0.00000  Uiso   1.00
O123   O     0.16091   0.06875   0.28662   0.00000  Uiso   1.00
O124   O     0.04581   0.29581   0.20487   0.00000  Uiso   1.00
O125   O     0.08353   0.07243   0.27406   0.00000  Uiso   1.00
O126   O     0.12624   0.01215   0.23162   0.00000  Uiso   1.00
O127   O     0.32779   0.41857   0.04835   0.00000  Uiso   1.00
O128   O     0.33524   0.33832   0.05329   0.00000  Uiso   1.00
O129   O     0.27135   0.37382   0.09544   0.00000  Uiso   1.00
O130   O     0.04581   0.29581   0.12846   0.00000  Uiso   1.00
O131   O     0.45420   0.20419   0.20487   0.00000  Uiso   1.00
O132   O     0.29581   0.45419   0.20487   0.00000  Uiso   1.00
S133   S     0.37641   0.18553   0.08104   0.00000  Uiso   1.00
S134   S     0.32262   0.12128   0.25430   0.00000  Uiso   1.00
S135   S     0.36830   0.07380   0.07652   0.00000  Uiso   1.00
S136   S     0.18081   0.37399   0.25196   0.00000  Uiso   1.00
S137   S     0.36832   0.42628   0.25679   0.00000  Uiso   1.00
S138   S     0.18109   0.12611   0.08146   0.00000  Uiso   1.00
S139   S     0.12613   0.06398   0.25196   0.00000  Uiso   1.00
S140   S     0.32273   0.37913   0.07885   0.00000  Uiso   1.00
S141   S     0.07290   0.37102   0.25445   0.00000  Uiso   1.00
S142   S     0.11791   0.32437   0.07623   0.00000  Uiso   1.00
S143   S     0.43052   0.12426   0.25213   0.00000  Uiso   1.00
S144   S     0.11778   0.17555   0.25721   0.00000  Uiso   1.00
S145   S     0.43041   0.37519   0.08083   0.00000  Uiso   1.00
S146   S     0.37647   0.31461   0.25230   0.00000  Uiso   1.00
S147   S     0.07331   0.12956   0.07859   0.00000  Uiso   1.00
S148   S     0.12598   0.43606   0.08143   0.00000  Uiso   1.00
Zn149  Zn    0.00000   0.25000   0.21771   0.00000  Uiso   1.00
Zn150  Zn    0.00000   0.25000   0.11563   0.00000  Uiso   1.00
Zn151  Zn    0.25000   0.00000   0.21771   0.00000  Uiso   1.00
Zn152  Zn    0.25000   0.00000   0.11563   0.00000  Uiso   1.00
C153   C     0.56002   0.18981   0.16685   0.00000  Uiso   1.00
C154   C     0.50031   0.21142   0.30968   0.00000  Uiso   1.00
C155   C     0.99884   0.21141   0.02408   0.00000  Uiso   1.00
C156   C     0.99883   0.28858   0.30924   0.00000  Uiso   1.00
C157   C     0.75035   0.03859   0.02365   0.00000  Uiso   1.00
C158   C     0.75031   0.46141   0.30968   0.00000  Uiso   1.00
C159   C     0.74876   0.46141   0.02408   0.00000  Uiso   1.00
C160   C     0.74880   0.03858   0.30925   0.00000  Uiso   1.00
C161   C     0.88478   0.14704   0.12593   0.00000  Uiso   1.00
C162   C     0.60628   0.36349   0.20674   0.00000  Uiso   1.00
C163   C     0.61232   0.35777   0.12507   0.00000  Uiso   1.00
C164   C     0.93996   0.31000   0.16666   0.00000  Uiso   1.00
C165   C     0.89519   0.13473   0.20642   0.00000  Uiso   1.00
C166   C     0.61232   0.14225   0.20827   0.00000  Uiso   1.00
C167   C     0.89522   0.36527   0.12683   0.00000  Uiso   1.00
C168   C     0.88483   0.35304   0.20736   0.00000  Uiso   1.00
C169   C     0.60650   0.13675   0.12655   0.00000  Uiso   1.00
C170   C     0.63462   0.39728   0.12601   0.00000  Uiso   1.00
C171   C     0.85613   0.11362   0.20670   0.00000  Uiso   1.00
C172   C     0.86247   0.10753   0.12509   0.00000  Uiso   1.00
C173   C     0.64533   0.38461   0.20640   0.00000  Uiso   1.00
C174   C     0.86256   0.39257   0.20818   0.00000  Uiso   1.00
C175   C     0.93997   0.18999   0.16667   0.00000  Uiso   1.00
C176   C     0.64551   0.11554   0.12695   0.00000  Uiso   1.00
C177   C     0.63461   0.10273   0.20731   0.00000  Uiso   1.00
C178   C     0.85623   0.38652   0.12656   0.00000  Uiso   1.00
C179   C     0.59289   0.34385   0.16599   0.00000  Uiso   1.00
C180   C     0.90663   0.15716   0.16638   0.00000  Uiso   1.00
C181   C     0.90663   0.34286   0.16690   0.00000  Uiso   1.00
C182   C     0.59299   0.15626   0.16732   0.00000  Uiso   1.00
C183   C     0.84288   0.09383   0.16600   0.00000  Uiso   1.00
C184   C     0.65662   0.40719   0.16641   0.00000  Uiso   1.00
C185   C     0.65667   0.09286   0.16693   0.00000  Uiso   1.00
C186   C     0.55999   0.31023   0.16648   0.00000  Uiso   1.00
C187   C     0.84299   0.40629   0.16729   0.00000  Uiso   1.00
C188   C     0.81002   0.43982   0.16684   0.00000  Uiso   1.00
C189   C     0.68998   0.06001   0.16666   0.00000  Uiso   1.00
C190   C     0.68997   0.44000   0.16668   0.00000  Uiso   1.00
C191   C     0.80998   0.06022   0.16648   0.00000  Uiso   1.00
C192   C     0.50032   0.28859   0.02364   0.00000  Uiso   1.00
H193   H     0.50145   0.31952   0.04129   0.00000  Uiso   1.00
H194   H     0.50758   0.39472   0.26103   0.00000  Uiso   1.00
H195   H     0.61622   0.25449   0.06136   0.00000  Uiso   1.00
H196   H     0.99764   0.10642   0.25715   0.00000  Uiso   1.00
H197   H     0.61548   0.24539   0.27223   0.00000  Uiso   1.00
H198   H     0.98239   0.39982   0.12204   0.00000  Uiso   1.00
H199   H     0.88016   0.24348   0.25935   0.00000  Uiso   1.00
H200   H     0.52216   0.09921   0.11719   0.00000  Uiso   1.00
H201   H     0.62931   0.00725   0.07492   0.00000  Uiso   1.00
H202   H     0.75717   0.14458   0.26083   0.00000  Uiso   1.00
H203   H     0.86679   0.00380   0.06221   0.00000  Uiso   1.00
H204   H     0.50142   0.18052   0.29199   0.00000  Uiso   1.00
H205   H     0.74802   0.35649   0.25683   0.00000  Uiso   1.00
H206   H     0.86607   0.49628   0.27107   0.00000  Uiso   1.00
H207   H     0.74837   0.14334   0.07667   0.00000  Uiso   1.00
H208   H     0.63007   0.49282   0.25847   0.00000  Uiso   1.00
H209   H     0.77150   0.34919   0.11768   0.00000  Uiso   1.00
H210   H     0.99676   0.18047   0.04202   0.00000  Uiso   1.00
H211   H     0.99674   0.31949   0.29127   0.00000  Uiso   1.00
H212   H     0.75158   0.06948   0.04133   0.00000  Uiso   1.00
H213   H     0.75151   0.43051   0.29199   0.00000  Uiso   1.00
H214   H     0.74660   0.43047   0.04202   0.00000  Uiso   1.00
H215   H     0.74666   0.06949   0.29127   0.00000  Uiso   1.00
H216   H     0.87935   0.25669   0.07404   0.00000  Uiso   1.00
N217   N     0.50000   0.25000   0.28573   0.00000  Uiso   1.00
N218   N     0.50000   0.25000   0.04760   0.00000  Uiso   1.00
N219   N     0.75000   0.00000   0.28573   0.00000  Uiso   1.00
N220   N     0.75000   0.00000   0.04760   0.00000  Uiso   1.00
O221   O     0.54581   0.20419   0.20487   0.00000  Uiso   1.00
O222   O     0.70420   0.04581   0.12846   0.00000  Uiso   1.00
O223   O     0.70420   0.04581   0.20487   0.00000  Uiso   1.00
O224   O     0.79581   0.45419   0.12846   0.00000  Uiso   1.00
O225   O     0.70420   0.45419   0.12846   0.00000  Uiso   1.00
O226   O     0.79581   0.04581   0.20487   0.00000  Uiso   1.00
O227   O     0.79581   0.04581   0.12846   0.00000  Uiso   1.00
O228   O     0.70420   0.45419   0.20487   0.00000  Uiso   1.00
O229   O     0.91136   0.18067   0.04660   0.00000  Uiso   1.00
O230   O     0.83394   0.17682   0.05876   0.00000  Uiso   1.00
O231   O     0.87630   0.23747   0.10109   0.00000  Uiso   1.00
O232   O     0.95420   0.29581   0.12846   0.00000  Uiso   1.00
O233   O     0.57767   0.33163   0.28508   0.00000  Uiso   1.00
O234   O     0.58599   0.41188   0.27964   0.00000  Uiso   1.00
O235   O     0.52167   0.37679   0.23738   0.00000  Uiso   1.00
O236   O     0.58087   0.33319   0.04523   0.00000  Uiso   1.00
O237   O     0.65886   0.33590   0.05204   0.00000  Uiso   1.00
O238   O     0.61935   0.27041   0.09034   0.00000  Uiso   1.00
O239   O     0.92497   0.15986   0.28669   0.00000  Uiso   1.00
O240   O     0.91981   0.08038   0.27348   0.00000  Uiso   1.00
O241   O     0.98154   0.12281   0.23354   0.00000  Uiso   1.00
O242   O     0.58072   0.16654   0.28814   0.00000  Uiso   1.00
O243   O     0.95420   0.29581   0.20487   0.00000  Uiso   1.00
O244   O     0.65871   0.16407   0.28144   0.00000  Uiso   1.00
O245   O     0.61912   0.22956   0.24326   0.00000  Uiso   1.00
O246   O     0.92450   0.33911   0.04685   0.00000  Uiso   1.00
O247   O     0.92000   0.41872   0.05862   0.00000  Uiso   1.00
O248   O     0.98167   0.37658   0.09861   0.00000  Uiso   1.00
O249   O     0.91142   0.31957   0.28673   0.00000  Uiso   1.00
O250   O     0.83400   0.32330   0.27457   0.00000  Uiso   1.00
O251   O     0.87640   0.26263   0.23235   0.00000  Uiso   1.00
O252   O     0.57828   0.16930   0.04847   0.00000  Uiso   1.00
O253   O     0.58618   0.08906   0.05273   0.00000  Uiso   1.00
O254   O     0.54581   0.20419   0.12846   0.00000  Uiso   1.00
O255   O     0.52190   0.12378   0.09489   0.00000  Uiso   1.00
O256   O     0.66067   0.43137   0.04665   0.00000  Uiso   1.00
O257   O     0.58332   0.42754   0.05948   0.00000  Uiso   1.00
O258   O     0.62610   0.48787   0.10183   0.00000  Uiso   1.00
O259   O     0.82743   0.08206   0.28514   0.00000  Uiso   1.00
O260   O     0.83557   0.16230   0.27931   0.00000  Uiso   1.00
O261   O     0.77140   0.12683   0.23713   0.00000  Uiso   1.00
O262   O     0.83136   0.08231   0.04530   0.00000  Uiso   1.00
O263   O     0.90931   0.08520   0.05241   0.00000  Uiso   1.00
O264   O     0.86974   0.01994   0.09108   0.00000  Uiso   1.00
O265   O     0.95420   0.20419   0.12846   0.00000  Uiso   1.00
O266   O     0.67524   0.40936   0.28677   0.00000  Uiso   1.00
O267   O     0.67026   0.32995   0.27305   0.00000  Uiso   1.00
O268   O     0.73180   0.37280   0.23326   0.00000  Uiso   1.00
O269   O     0.83138   0.41768   0.28800   0.00000  Uiso   1.00
O270   O     0.90934   0.41494   0.28090   0.00000  Uiso   1.00
O271   O     0.86968   0.48015   0.24227   0.00000  Uiso   1.00
O272   O     0.67543   0.09081   0.04658   0.00000  Uiso   1.00
O273   O     0.67072   0.17022   0.06042   0.00000  Uiso   1.00
O274   O     0.73206   0.12709   0.10022   0.00000  Uiso   1.00
O275   O     0.66091   0.06875   0.28662   0.00000  Uiso   1.00
O276   O     0.54581   0.29581   0.20487   0.00000  Uiso   1.00
O277   O     0.58353   0.07243   0.27406   0.00000  Uiso   1.00
O278   O     0.62624   0.01215   0.23162   0.00000  Uiso   1.00
O279   O     0.82779   0.41857   0.04835   0.00000  Uiso   1.00
O280   O     0.83524   0.33832   0.05329   0.00000  Uiso   1.00
O281   O     0.77135   0.37382   0.09544   0.00000  Uiso   1.00
O282   O     0.54581   0.29581   0.12846   0.00000  Uiso   1.00
O283   O     0.95420   0.20419   0.20487   0.00000  Uiso   1.00
O284   O     0.79581   0.45419   0.20487   0.00000  Uiso   1.00
S285   S     0.87641   0.18553   0.08104   0.00000  Uiso   1.00
S286   S     0.82262   0.12128   0.25430   0.00000  Uiso   1.00
S287   S     0.86830   0.07380   0.07652   0.00000  Uiso   1.00
S288   S     0.68081   0.37399   0.25196   0.00000  Uiso   1.00
S289   S     0.86832   0.42628   0.25679   0.00000  Uiso   1.00
S290   S     0.68109   0.12611   0.08146   0.00000  Uiso   1.00
S291   S     0.62613   0.06398   0.25196   0.00000  Uiso   1.00
S292   S     0.82273   0.37913   0.07885   0.00000  Uiso   1.00
S293   S     0.57290   0.37102   0.25445   0.00000  Uiso   1.00
S294   S     0.61791   0.32437   0.07623   0.00000  Uiso   1.00
S295   S     0.93052   0.12426   0.25213   0.00000  Uiso   1.00
S296   S     0.61778   0.17555   0.25721   0.00000  Uiso   1.00
S297   S     0.93041   0.37519   0.08083   0.00000  Uiso   1.00
S298   S     0.87647   0.31461   0.25230   0.00000  Uiso   1.00
S299   S     0.57331   0.12956   0.07859   0.00000  Uiso   1.00
S300   S     0.62598   0.43606   0.08143   0.00000  Uiso   1.00
Zn301  Zn    0.50000   0.25000   0.21771   0.00000  Uiso   1.00
Zn302  Zn    0.50000   0.25000   0.11563   0.00000  Uiso   1.00
Zn303  Zn    0.75000   0.00000   0.21771   0.00000  Uiso   1.00
Zn304  Zn    0.75000   0.00000   0.11563   0.00000  Uiso   1.00
C305   C     0.06002   0.68981   0.16685   0.00000  Uiso   1.00
C306   C     0.00031   0.71142   0.30968   0.00000  Uiso   1.00
C307   C     0.49884   0.71141   0.02408   0.00000  Uiso   1.00
C308   C     0.49883   0.78858   0.30924   0.00000  Uiso   1.00
C309   C     0.25035   0.53859   0.02365   0.00000  Uiso   1.00
C310   C     0.25031   0.96141   0.30968   0.00000  Uiso   1.00
C311   C     0.24876   0.96141   0.02408   0.00000  Uiso   1.00
C312   C     0.24880   0.53858   0.30925   0.00000  Uiso   1.00
C313   C     0.38478   0.64704   0.12593   0.00000  Uiso   1.00
C314   C     0.10628   0.86349   0.20674   0.00000  Uiso   1.00
C315   C     0.11232   0.85777   0.12507   0.00000  Uiso   1.00
C316   C     0.43996   0.81000   0.16666   0.00000  Uiso   1.00
C317   C     0.39519   0.63473   0.20642   0.00000  Uiso   1.00
C318   C     0.11232   0.64225   0.20827   0.00000  Uiso   1.00
C319   C     0.39522   0.86527   0.12683   0.00000  Uiso   1.00
C320   C     0.38483   0.85304   0.20736   0.00000  Uiso   1.00
C321   C     0.10650   0.63675   0.12655   0.00000  Uiso   1.00
C322   C     0.13462   0.89728   0.12601   0.00000  Uiso   1.00
C323   C     0.35613   0.61362   0.20670   0.00000  Uiso   1.00
C324   C     0.36247   0.60753   0.12509   0.00000  Uiso   1.00
C325   C     0.14533   0.88461   0.20640   0.00000  Uiso   1.00
C326   C     0.36256   0.89257   0.20818   0.00000  Uiso   1.00
C327   C     0.43997   0.68999   0.16667   0.00000  Uiso   1.00
C328   C     0.14551   0.61554   0.12695   0.00000  Uiso   1.00
C329   C     0.13461   0.60273   0.20731   0.00000  Uiso   1.00
C330   C     0.35623   0.88652   0.12656   0.00000  Uiso   1.00
C331   C     0.09289   0.84385   0.16599   0.00000  Uiso   1.00
C332   C     0.40663   0.65716   0.16638   0.00000  Uiso   1.00
C333   C     0.40663   0.84286   0.16690   0.00000  Uiso   1.00
C334   C     0.09299   0.65626   0.16732   0.00000  Uiso   1.00
C335   C     0.34288   0.59383   0.16600   0.00000  Uiso   1.00
C336   C     0.15662   0.90719   0.16641   0.00000  Uiso   1.00
C337   C     0.15667   0.59286   0.16693   0.00000  Uiso   1.00
C338   C     0.05999   0.81023   0.16648   0.00000  Uiso   1.00
C339   C     0.34299   0.90629   0.16729   0.00000  Uiso   1.00
C340   C     0.31002   0.93982   0.16684   0.00000  Uiso   1.00
C341   C     0.18998   0.56001   0.16666   0.00000  Uiso   1.00
C342   C     0.18997   0.94000   0.16668   0.00000  Uiso   1.00
C343   C     0.30998   0.56022   0.16648   0.00000  Uiso   1.00
C344   C     0.00032   0.78859   0.02364   0.00000  Uiso   1.00
H345   H     0.00145   0.81952   0.04129   0.00000  Uiso   1.00
H346   H     0.00758   0.89472   0.26103   0.00000  Uiso   1.00
H347   H     0.11622   0.75449   0.06136   0.00000  Uiso   1.00
H348   H     0.49764   0.60642   0.25715   0.00000  Uiso   1.00
H349   H     0.11548   0.74539   0.27223   0.00000  Uiso   1.00
H350   H     0.48239   0.89982   0.12204   0.00000  Uiso   1.00
H351   H     0.38016   0.74348   0.25935   0.00000  Uiso   1.00
H352   H     0.02216   0.59921   0.11719   0.00000  Uiso   1.00
H353   H     0.12931   0.50725   0.07492   0.00000  Uiso   1.00
H354   H     0.25717   0.64458   0.26083   0.00000  Uiso   1.00
H355   H     0.36679   0.50380   0.06221   0.00000  Uiso   1.00
H356   H     0.00142   0.68052   0.29199   0.00000  Uiso   1.00
H357   H     0.24802   0.85649   0.25683   0.00000  Uiso   1.00
H358   H     0.36607   0.99628   0.27107   0.00000  Uiso   1.00
H359   H     0.24837   0.64334   0.07667   0.00000  Uiso   1.00
H360   H     0.13007   0.99282   0.25847   0.00000  Uiso   1.00
H361   H     0.27150   0.84919   0.11768   0.00000  Uiso   1.00
H362   H     0.49676   0.68047   0.04202   0.00000  Uiso   1.00
H363   H     0.49674   0.81949   0.29127   0.00000  Uiso   1.00
H364   H     0.25158   0.56948   0.04133   0.00000  Uiso   1.00
H365   H     0.25151   0.93051   0.29199   0.00000  Uiso   1.00
H366   H     0.24660   0.93047   0.04202   0.00000  Uiso   1.00
H367   H     0.24666   0.56949   0.29127   0.00000  Uiso   1.00
H368   H     0.37935   0.75669   0.07404   0.00000  Uiso   1.00
N369   N     0.00000   0.75000   0.28573   0.00000  Uiso   1.00
N370   N     0.00000   0.75000   0.04760   0.00000  Uiso   1.00
N371   N     0.25000   0.50000   0.28573   0.00000  Uiso   1.00
N372   N     0.25000   0.50000   0.04760   0.00000  Uiso   1.00
O373   O     0.04581   0.70419   0.20487   0.00000  Uiso   1.00
O374   O     0.20420   0.54581   0.12846   0.00000  Uiso   1.00
O375   O     0.20420   0.54581   0.20487   0.00000  Uiso   1.00
O376   O     0.29581   0.95419   0.12846   0.00000  Uiso   1.00
O377   O     0.20420   0.95419   0.12846   0.00000  Uiso   1.00
O378   O     0.29581   0.54581   0.20487   0.00000  Uiso   1.00
O379   O     0.29581   0.54581   0.12846   0.00000  Uiso   1.00
O380   O     0.20420   0.95419   0.20487   0.00000  Uiso   1.00
O381   O     0.41136   0.68067   0.04660   0.00000  Uiso   1.00
O382   O     0.33394   0.67682   0.05876   0.00000  Uiso   1.00
O383   O     0.37630   0.73747   0.10109   0.00000  Uiso   1.00
O384   O     0.45420   0.79581   0.12846   0.00000  Uiso   1.00
O385   O     0.07767   0.83163   0.28508   0.00000  Uiso   1.00
O386   O     0.08599   0.91188   0.27964   0.00000  Uiso   1.00
O387   O     0.02167   0.87679   0.23738   0.00000  Uiso   1.00
O388   O     0.08087   0.83319   0.04523   0.00000  Uiso   1.00
O389   O     0.15886   0.83590   0.05204   0.00000  Uiso   1.00
O390   O     0.11935   0.77041   0.09034   0.00000  Uiso   1.00
O391   O     0.42497   0.65986   0.28669   0.00000  Uiso   1.00
O392   O     0.41981   0.58038   0.27348   0.00000  Uiso   1.00
O393   O     0.48154   0.62281   0.23354   0.00000  Uiso   1.00
O394   O     0.08072   0.66654   0.28814   0.00000  Uiso   1.00
O395   O     0.45420   0.79581   0.20487   0.00000  Uiso   1.00
O396   O     0.15871   0.66407   0.28144   0.00000  Uiso   1.00
O397   O     0.11912   0.72956   0.24326   0.00000  Uiso   1.00
O398   O     0.42450   0.83911   0.04685   0.00000  Uiso   1.00
O399   O     0.42000   0.91872   0.05862   0.00000  Uiso   1.00
O400   O     0.48167   0.87658   0.09861   0.00000  Uiso   1.00
O401   O     0.41142   0.81957   0.28673   0.00000  Uiso   1.00
O402   O     0.33400   0.82330   0.27457   0.00000  Uiso   1.00
O403   O     0.37640   0.76263   0.23235   0.00000  Uiso   1.00
O404   O     0.07828   0.66930   0.04847   0.00000  Uiso   1.00
O405   O     0.08618   0.58906   0.05273   0.00000  Uiso   1.00
O406   O     0.04581   0.70419   0.12846   0.00000  Uiso   1.00
O407   O     0.02190   0.62378   0.09489   0.00000  Uiso   1.00
O408   O     0.16067   0.93137   0.04665   0.00000  Uiso   1.00
O409   O     0.08332   0.92754   0.05948   0.00000  Uiso   1.00
O410   O     0.12610   0.98787   0.10183   0.00000  Uiso   1.00
O411   O     0.32743   0.58206   0.28514   0.00000  Uiso   1.00
O412   O     0.33557   0.66230   0.27931   0.00000  Uiso   1.00
O413   O     0.27140   0.62683   0.23713   0.00000  Uiso   1.00
O414   O     0.33136   0.58231   0.04530   0.00000  Uiso   1.00
O415   O     0.40931   0.58520   0.05241   0.00000  Uiso   1.00
O416   O     0.36974   0.51994   0.09108   0.00000  Uiso   1.00
O417   O     0.45420   0.70419   0.12846   0.00000  Uiso   1.00
O418   O     0.17524   0.90936   0.28677   0.00000  Uiso   1.00
O419   O     0.17026   0.82995   0.27305   0.00000  Uiso   1.00
O420   O     0.23180   0.87280   0.23326   0.00000  Uiso   1.00
O421   O     0.33138   0.91768   0.28800   0.00000  Uiso   1.00
O422   O     0.40934   0.91494   0.28090   0.00000  Uiso   1.00
O423   O     0.36968   0.98015   0.24227   0.00000  Uiso   1.00
O424   O     0.17543   0.59081   0.04658   0.00000  Uiso   1.00
O425   O     0.17072   0.67022   0.06042   0.00000  Uiso   1.00
O426   O     0.23206   0.62709   0.10022   0.00000  Uiso   1.00
O427   O     0.16091   0.56875   0.28662   0.00000  Uiso   1.00
O428   O     0.04581   0.79581   0.20487   0.00000  Uiso   1.00
O429   O     0.08353   0.57243   0.27406   0.00000  Uiso   1.00
O430   O     0.12624   0.51215   0.23162   0.00000  Uiso   1.00
O431   O     0.32779   0.91857   0.04835   0.00000  Uiso   1.00
O432   O     0.33524   0.83832   0.05329   0.00000  Uiso   1.00
O433   O     0.27135   0.87382   0.09544   0.00000  Uiso   1.00
O434   O     0.04581   0.79581   0.12846   0.00000  Uiso   1.00
O435   O     0.45420   0.70419   0.20487   0.00000  Uiso   1.00
O436   O     0.29581   0.95419   0.20487   0.00000  Uiso   1.00
S437   S     0.37641   0.68553   0.08104   0.00000  Uiso   1.00
S438   S     0.32262   0.62128   0.25430   0.00000  Uiso   1.00
S439   S     0.36830   0.57380   0.07652   0.00000  Uiso   1.00
S440   S     0.18081   0.87399   0.25196   0.00000  Uiso   1.00
S441   S     0.36832   0.92628   0.25679   0.00000  Uiso   1.00
S442   S     0.18109   0.62611   0.08146   0.00000  Uiso   1.00
S443   S     0.12613   0.56398   0.25196   0.00000  Uiso   1.00
S444   S     0.32273   0.87913   0.07885   0.00000  Uiso   1.00
S445   S     0.07290   0.87102   0.25445   0.00000  Uiso   1.00
S446   S     0.11791   0.82437   0.07623   0.00000  Uiso   1.00
S447   S     0.43052   0.62426   0.25213   0.00000  Uiso   1.00
S448   S     0.11778   0.67555   0.25721   0.00000  Uiso   1.00
S449   S     0.43041   0.87519   0.08083   0.00000  Uiso   1.00
S450   S     0.37647   0.81461   0.25230   0.00000  Uiso   1.00
S451   S     0.07331   0.62956   0.07859   0.00000  Uiso   1.00
S452   S     0.12598   0.93606   0.08143   0.00000  Uiso   1.00
Zn453  Zn    0.00000   0.75000   0.21771   0.00000  Uiso   1.00
Zn454  Zn    0.00000   0.75000   0.11563   0.00000  Uiso   1.00
Zn455  Zn    0.25000   0.50000   0.21771   0.00000  Uiso   1.00
Zn456  Zn    0.25000   0.50000   0.11563   0.00000  Uiso   1.00
C457   C     0.56002   0.68981   0.16685   0.00000  Uiso   1.00
C458   C     0.50031   0.71142   0.30968   0.00000  Uiso   1.00
C459   C     0.99884   0.71141   0.02408   0.00000  Uiso   1.00
C460   C     0.99883   0.78858   0.30924   0.00000  Uiso   1.00
C461   C     0.75035   0.53859   0.02365   0.00000  Uiso   1.00
C462   C     0.75031   0.96141   0.30968   0.00000  Uiso   1.00
C463   C     0.74876   0.96141   0.02408   0.00000  Uiso   1.00
C464   C     0.74880   0.53858   0.30925   0.00000  Uiso   1.00
C465   C     0.88478   0.64704   0.12593   0.00000  Uiso   1.00
C466   C     0.60628   0.86349   0.20674   0.00000  Uiso   1.00
C467   C     0.61232   0.85777   0.12507   0.00000  Uiso   1.00
C468   C     0.93996   0.81000   0.16666   0.00000  Uiso   1.00
C469   C     0.89519   0.63473   0.20642   0.00000  Uiso   1.00
C470   C     0.61232   0.64225   0.20827   0.00000  Uiso   1.00
C471   C     0.89522   0.86527   0.12683   0.00000  Uiso   1.00
C472   C     0.88483   0.85304   0.20736   0.00000  Uiso   1.00
C473   C     0.60650   0.63675   0.12655   0.00000  Uiso   1.00
C474   C     0.63462   0.89728   0.12601   0.00000  Uiso   1.00
C475   C     0.85613   0.61362   0.20670   0.00000  Uiso   1.00
C476   C     0.86247   0.60753   0.12509   0.00000  Uiso   1.00
C477   C     0.64533   0.88461   0.20640   0.00000  Uiso   1.00
C478   C     0.86256   0.89257   0.20818   0.00000  Uiso   1.00
C479   C     0.93997   0.68999   0.16667   0.00000  Uiso   1.00
C480   C     0.64551   0.61554   0.12695   0.00000  Uiso   1.00
C481   C     0.63461   0.60273   0.20731   0.00000  Uiso   1.00
C482   C     0.85623   0.88652   0.12656   0.00000  Uiso   1.00
C483   C     0.59289   0.84385   0.16599   0.00000  Uiso   1.00
C484   C     0.90663   0.65716   0.16638   0.00000  Uiso   1.00
C485   C     0.90663   0.84286   0.16690   0.00000  Uiso   1.00
C486   C     0.59299   0.65626   0.16732   0.00000  Uiso   1.00
C487   C     0.84288   0.59383   0.16600   0.00000  Uiso   1.00
C488   C     0.65662   0.90719   0.16641   0.00000  Uiso   1.00
C489   C     0.65667   0.59286   0.16693   0.00000  Uiso   1.00
C490   C     0.55999   0.81023   0.16648   0.00000  Uiso   1.00
C491   C     0.84299   0.90629   0.16729   0.00000  Uiso   1.00
C492   C     0.81002   0.93982   0.16684   0.00000  Uiso   1.00
C493   C     0.68998   0.56001   0.16666   0.00000  Uiso   1.00
C494   C     0.68997   0.94000   0.16668   0.00000  Uiso   1.00
C495   C     0.80998   0.56022   0.16648   0.00000  Uiso   1.00
C496   C     0.50032   0.78859   0.02364   0.00000  Uiso   1.00
H497   H     0.50145   0.81952   0.04129   0.00000  Uiso   1.00
H498   H     0.50758   0.89472   0.26103   0.00000  Uiso   1.00
H499   H     0.61622   0.75449   0.06136   0.00000  Uiso   1.00
H500   H     0.99764   0.60642   0.25715   0.00000  Uiso   1.00
H501   H     0.61548   0.74539   0.27223   0.00000  Uiso   1.00
H502   H     0.98239   0.89982   0.12204   0.00000  Uiso   1.00
H503   H     0.88016   0.74348   0.25935   0.00000  Uiso   1.00
H504   H     0.52216   0.59921   0.11719   0.00000  Uiso   1.00
H505   H     0.62931   0.50725   0.07492   0.00000  Uiso   1.00
H506   H     0.75717   0.64458   0.26083   0.00000  Uiso   1.00
H507   H     0.86679   0.50380   0.06221   0.00000  Uiso   1.00
H508   H     0.50142   0.68052   0.29199   0.00000  Uiso   1.00
H509   H     0.74802   0.85649   0.25683   0.00000  Uiso   1.00
H510   H     0.86607   0.99628   0.27107   0.00000  Uiso   1.00
H511   H     0.74837   0.64334   0.07667   0.00000  Uiso   1.00
H512   H     0.63007   0.99282   0.25847   0.00000  Uiso   1.00
H513   H     0.77150   0.84919   0.11768   0.00000  Uiso   1.00
H514   H     0.99676   0.68047   0.04202   0.00000  Uiso   1.00
H515   H     0.99674   0.81949   0.29127   0.00000  Uiso   1.00
H516   H     0.75158   0.56948   0.04133   0.00000  Uiso   1.00
H517   H     0.75151   0.93051   0.29199   0.00000  Uiso   1.00
H518   H     0.74660   0.93047   0.04202   0.00000  Uiso   1.00
H519   H     0.74666   0.56949   0.29127   0.00000  Uiso   1.00
H520   H     0.87935   0.75669   0.07404   0.00000  Uiso   1.00
N521   N     0.50000   0.75000   0.28573   0.00000  Uiso   1.00
N522   N     0.50000   0.75000   0.04760   0.00000  Uiso   1.00
N523   N     0.75000   0.50000   0.28573   0.00000  Uiso   1.00
N524   N     0.75000   0.50000   0.04760   0.00000  Uiso   1.00
O525   O     0.54581   0.70419   0.20487   0.00000  Uiso   1.00
O526   O     0.70420   0.54581   0.12846   0.00000  Uiso   1.00
O527   O     0.70420   0.54581   0.20487   0.00000  Uiso   1.00
O528   O     0.79581   0.95419   0.12846   0.00000  Uiso   1.00
O529   O     0.70420   0.95419   0.12846   0.00000  Uiso   1.00
O530   O     0.79581   0.54581   0.20487   0.00000  Uiso   1.00
O531   O     0.79581   0.54581   0.12846   0.00000  Uiso   1.00
O532   O     0.70420   0.95419   0.20487   0.00000  Uiso   1.00
O533   O     0.91136   0.68067   0.04660   0.00000  Uiso   1.00
O534   O     0.83394   0.67682   0.05876   0.00000  Uiso   1.00
O535   O     0.87630   0.73747   0.10109   0.00000  Uiso   1.00
O536   O     0.95420   0.79581   0.12846   0.00000  Uiso   1.00
O537   O     0.57767   0.83163   0.28508   0.00000  Uiso   1.00
O538   O     0.58599   0.91188   0.27964   0.00000  Uiso   1.00
O539   O     0.52167   0.87679   0.23738   0.00000  Uiso   1.00
O540   O     0.58087   0.83319   0.04523   0.00000  Uiso   1.00
O541   O     0.65886   0.83590   0.05204   0.00000  Uiso   1.00
O542   O     0.61935   0.77041   0.09034   0.00000  Uiso   1.00
O543   O     0.92497   0.65986   0.28669   0.00000  Uiso   1.00
O544   O     0.91981   0.58038   0.27348   0.00000  Uiso   1.00
O545   O     0.98154   0.62281   0.23354   0.00000  Uiso   1.00
O546   O     0.58072   0.66654   0.28814   0.00000  Uiso   1.00
O547   O     0.95420   0.79581   0.20487   0.00000  Uiso   1.00
O548   O     0.65871   0.66407   0.28144   0.00000  Uiso   1.00
O549   O     0.61912   0.72956   0.24326   0.00000  Uiso   1.00
O550   O     0.92450   0.83911   0.04685   0.00000  Uiso   1.00
O551   O     0.92000   0.91872   0.05862   0.00000  Uiso   1.00
O552   O     0.98167   0.87658   0.09861   0.00000  Uiso   1.00
O553   O     0.91142   0.81957   0.28673   0.00000  Uiso   1.00
O554   O     0.83400   0.82330   0.27457   0.00000  Uiso   1.00
O555   O     0.87640   0.76263   0.23235   0.00000  Uiso   1.00
O556   O     0.57828   0.66930   0.04847   0.00000  Uiso   1.00
O557   O     0.58618   0.58906   0.05273   0.00000  Uiso   1.00
O558   O     0.54581   0.70419   0.12846   0.00000  Uiso   1.00
O559   O     0.52190   0.62378   0.09489   0.00000  Uiso   1.00
O560   O     0.66067   0.93137   0.04665   0.00000  Uiso   1.00
O561   O     0.58332   0.92754   0.05948   0.00000  Uiso   1.00
O562   O     0.62610   0.98787   0.10183   0.00000  Uiso   1.00
O563   O     0.82743   0.58206   0.28514   0.00000  Uiso   1.00
O564   O     0.83557   0.66230   0.27931   0.00000  Uiso   1.00
O565   O     0.77140   0.62683   0.23713   0.00000  Uiso   1.00
O566   O     0.83136   0.58231   0.04530   0.00000  Uiso   1.00
O567   O     0.90931   0.58520   0.05241   0.00000  Uiso   1.00
O568   O     0.86974   0.51994   0.09108   0.00000  Uiso   1.00
O569   O     0.95420   0.70419   0.12846   0.00000  Uiso   1.00
O570   O     0.67524   0.90936   0.28677   0.00000  Uiso   1.00
O571   O     0.67026   0.82995   0.27305   0.00000  Uiso   1.00
O572   O     0.73180   0.87280   0.23326   0.00000  Uiso   1.00
O573   O     0.83138   0.91768   0.28800   0.00000  Uiso   1.00
O574   O     0.90934   0.91494   0.28090   0.00000  Uiso   1.00
O575   O     0.86968   0.98015   0.24227   0.00000  Uiso   1.00
O576   O     0.67543   0.59081   0.04658   0.00000  Uiso   1.00
O577   O     0.67072   0.67022   0.06042   0.00000  Uiso   1.00
O578   O     0.73206   0.62709   0.10022   0.00000  Uiso   1.00
O579   O     0.66091   0.56875   0.28662   0.00000  Uiso   1.00
O580   O     0.54581   0.79581   0.20487   0.00000  Uiso   1.00
O581   O     0.58353   0.57243   0.27406   0.00000  Uiso   1.00
O582   O     0.62624   0.51215   0.23162   0.00000  Uiso   1.00
O583   O     0.82779   0.91857   0.04835   0.00000  Uiso   1.00
O584   O     0.83524   0.83832   0.05329   0.00000  Uiso   1.00
O585   O     0.77135   0.87382   0.09544   0.00000  Uiso   1.00
O586   O     0.54581   0.79581   0.12846   0.00000  Uiso   1.00
O587   O     0.95420   0.70419   0.20487   0.00000  Uiso   1.00
O588   O     0.79581   0.95419   0.20487   0.00000  Uiso   1.00
S589   S     0.87641   0.68553   0.08104   0.00000  Uiso   1.00
S590   S     0.82262   0.62128   0.25430   0.00000  Uiso   1.00
S591   S     0.86830   0.57380   0.07652   0.00000  Uiso   1.00
S592   S     0.68081   0.87399   0.25196   0.00000  Uiso   1.00
S593   S     0.86832   0.92628   0.25679   0.00000  Uiso   1.00
S594   S     0.68109   0.62611   0.08146   0.00000  Uiso   1.00
S595   S     0.62613   0.56398   0.25196   0.00000  Uiso   1.00
S596   S     0.82273   0.87913   0.07885   0.00000  Uiso   1.00
S597   S     0.57290   0.87102   0.25445   0.00000  Uiso   1.00
S598   S     0.61791   0.82437   0.07623   0.00000  Uiso   1.00
S599   S     0.93052   0.62426   0.25213   0.00000  Uiso   1.00
S600   S     0.61778   0.67555   0.25721   0.00000  Uiso   1.00
S601   S     0.93041   0.87519   0.08083   0.00000  Uiso   1.00
S602   S     0.87647   0.81461   0.25230   0.00000  Uiso   1.00
S603   S     0.57331   0.62956   0.07859   0.00000  Uiso   1.00
S604   S     0.62598   0.93606   0.08143   0.00000  Uiso   1.00
Zn605  Zn    0.50000   0.75000   0.21771   0.00000  Uiso   1.00
Zn606  Zn    0.50000   0.75000   0.11563   0.00000  Uiso   1.00
Zn607  Zn    0.75000   0.50000   0.21771   0.00000  Uiso   1.00
Zn608  Zn    0.75000   0.50000   0.11563   0.00000  Uiso   1.00
C609   C     0.06002   0.18981   0.50018   0.00000  Uiso   1.00
C610   C     0.00031   0.21142   0.64301   0.00000  Uiso   1.00
C611   C     0.49884   0.21141   0.35741   0.00000  Uiso   1.00
C612   C     0.49883   0.28858   0.64258   0.00000  Uiso   1.00
C613   C     0.25035   0.03859   0.35698   0.00000  Uiso   1.00
C614   C     0.25031   0.46141   0.64301   0.00000  Uiso   1.00
C615   C     0.24876   0.46141   0.35741   0.00000  Uiso   1.00
C616   C     0.24880   0.03858   0.64258   0.00000  Uiso   1.00
C617   C     0.38478   0.14704   0.45926   0.00000  Uiso   1.00
C618   C     0.10628   0.36349   0.54007   0.00000  Uiso   1.00
C619   C     0.11232   0.35777   0.45840   0.00000  Uiso   1.00
C620   C     0.43996   0.31000   0.49999   0.00000  Uiso   1.00
C621   C     0.39519   0.13473   0.53976   0.00000  Uiso   1.00
C622   C     0.11232   0.14225   0.54160   0.00000  Uiso   1.00
C623   C     0.39522   0.36527   0.46017   0.00000  Uiso   1.00
C624   C     0.38483   0.35304   0.54069   0.00000  Uiso   1.00
C625   C     0.10650   0.13675   0.45988   0.00000  Uiso   1.00
C626   C     0.13462   0.39728   0.45934   0.00000  Uiso   1.00
C627   C     0.35613   0.11362   0.54004   0.00000  Uiso   1.00
C628   C     0.36247   0.10753   0.45843   0.00000  Uiso   1.00
C629   C     0.14533   0.38461   0.53973   0.00000  Uiso   1.00
C630   C     0.36256   0.39257   0.54152   0.00000  Uiso   1.00
C631   C     0.43997   0.18999   0.50000   0.00000  Uiso   1.00
C632   C     0.14551   0.11554   0.46028   0.00000  Uiso   1.00
C633   C     0.13461   0.10273   0.54064   0.00000  Uiso   1.00
C634   C     0.35623   0.38652   0.45989   0.00000  Uiso   1.00
C635   C     0.09289   0.34385   0.49933   0.00000  Uiso   1.00
C636   C     0.40663   0.15716   0.49971   0.00000  Uiso   1.00
C637   C     0.40663   0.34286   0.50024   0.00000  Uiso   1.00
C638   C     0.09299   0.15626   0.50066   0.00000  Uiso   1.00
C639   C     0.34288   0.09383   0.49933   0.00000  Uiso   1.00
C640   C     0.15662   0.40719   0.49974   0.00000  Uiso   1.00
C641   C     0.15667   0.09286   0.50026   0.00000  Uiso   1.00
C642   C     0.05999   0.31023   0.49982   0.00000  Uiso   1.00
C643   C     0.34299   0.40629   0.50062   0.00000  Uiso   1.00
C644   C     0.31002   0.43982   0.50017   0.00000  Uiso   1.00
C645   C     0.18998   0.06001   0.49999   0.00000  Uiso   1.00
C646   C     0.18997   0.44000   0.50001   0.00000  Uiso   1.00
C647   C     0.30998   0.06022   0.49982   0.00000  Uiso   1.00
C648   C     0.00032   0.28859   0.35697   0.00000  Uiso   1.00
H649   H     0.00145   0.31952   0.37463   0.00000  Uiso   1.00
H650   H     0.00758   0.39472   0.59437   0.00000  Uiso   1.00
H651   H     0.11622   0.25449   0.39469   0.00000  Uiso   1.00
H652   H     0.49764   0.10642   0.59049   0.00000  Uiso   1.00
H653   H     0.11548   0.24539   0.60557   0.00000  Uiso   1.00
H654   H     0.48239   0.39982   0.45538   0.00000  Uiso   1.00
H655   H     0.38016   0.24348   0.59268   0.00000  Uiso   1.00
H656   H     0.02216   0.09921   0.45052   0.00000  Uiso   1.00
H657   H     0.12931   0.00725   0.40825   0.00000  Uiso   1.00
H658   H     0.25717   0.14458   0.59416   0.00000  Uiso   1.00
H659   H     0.36679   0.00380   0.39554   0.00000  Uiso   1.00
H660   H     0.00142   0.18052   0.62532   0.00000  Uiso   1.00
H661   H     0.24802   0.35649   0.59016   0.00000  Uiso   1.00
H662   H     0.36607   0.49628   0.60440   0.00000  Uiso   1.00
H663   H     0.24837   0.14334   0.41000   0.00000  Uiso   1.00
H664   H     0.13007   0.49282   0.59181   0.00000  Uiso   1.00
H665   H     0.27150   0.34919   0.45101   0.00000  Uiso   1.00
H666   H     0.49676   0.18047   0.37535   0.00000  Uiso   1.00
H667   H     0.49674   0.31949   0.62460   0.00000  Uiso   1.00
H668   H     0.25158   0.06948   0.37466   0.00000  Uiso   1.00
H669   H     0.25151   0.43051   0.62532   0.00000  Uiso   1.00
H670   H     0.24660   0.43047   0.37536   0.00000  Uiso   1.00
H671   H     0.24666   0.06949   0.62461   0.00000  Uiso   1.00
H672   H     0.37935   0.25669   0.40738   0.00000  Uiso   1.00
N673   N     0.00000   0.25000   0.61907   0.00000  Uiso   1.00
N674   N     0.00000   0.25000   0.38093   0.00000  Uiso   1.00
N675   N     0.25000   0.00000   0.61907   0.00000  Uiso   1.00
N676   N     0.25000   0.00000   0.38093   0.00000  Uiso   1.00
O677   O     0.04581   0.20419   0.53821   0.00000  Uiso   1.00
O678   O     0.20420   0.04581   0.46179   0.00000  Uiso   1.00
O679   O     0.20420   0.04581   0.53821   0.00000  Uiso   1.00
O680   O     0.29581   0.45419   0.46179   0.00000  Uiso   1.00
O681   O     0.20420   0.45419   0.46179   0.00000  Uiso   1.00
O682   O     0.29581   0.04581   0.53821   0.00000  Uiso   1.00
O683   O     0.29581   0.04581   0.46179   0.00000  Uiso   1.00
O684   O     0.20420   0.45419   0.53821   0.00000  Uiso   1.00
O685   O     0.41136   0.18067   0.37993   0.00000  Uiso   1.00
O686   O     0.33394   0.17682   0.39209   0.00000  Uiso   1.00
O687   O     0.37630   0.23747   0.43442   0.00000  Uiso   1.00
O688   O     0.45420   0.29581   0.46179   0.00000  Uiso   1.00
O689   O     0.07767   0.33163   0.61842   0.00000  Uiso   1.00
O690   O     0.08599   0.41188   0.61297   0.00000  Uiso   1.00
O691   O     0.02167   0.37679   0.57071   0.00000  Uiso   1.00
O692   O     0.08087   0.33319   0.37857   0.00000  Uiso   1.00
O693   O     0.15886   0.33590   0.38537   0.00000  Uiso   1.00
O694   O     0.11935   0.27041   0.42368   0.00000  Uiso   1.00
O695   O     0.42497   0.15986   0.62003   0.00000  Uiso   1.00
O696   O     0.41981   0.08038   0.60681   0.00000  Uiso   1.00
O697   O     0.48154   0.12281   0.56688   0.00000  Uiso   1.00
O698   O     0.08072   0.16654   0.62147   0.00000  Uiso   1.00
O699   O     0.45420   0.29581   0.53821   0.00000  Uiso   1.00
O700   O     0.15871   0.16407   0.61477   0.00000  Uiso   1.00
O701   O     0.11912   0.22956   0.57660   0.00000  Uiso   1.00
O702   O     0.42450   0.33911   0.38019   0.00000  Uiso   1.00
O703   O     0.42000   0.41872   0.39196   0.00000  Uiso   1.00
O704   O     0.48167   0.37658   0.43194   0.00000  Uiso   1.00
O705   O     0.41142   0.31957   0.62006   0.00000  Uiso   1.00
O706   O     0.33400   0.32330   0.60790   0.00000  Uiso   1.00
O707   O     0.37640   0.26263   0.56568   0.00000  Uiso   1.00
O708   O     0.07828   0.16930   0.38180   0.00000  Uiso   1.00
O709   O     0.08618   0.08906   0.38606   0.00000  Uiso   1.00
O710   O     0.04581   0.20419   0.46179   0.00000  Uiso   1.00
O711   O     0.02190   0.12378   0.42822   0.00000  Uiso   1.00
O712   O     0.16067   0.43137   0.37999   0.00000  Uiso   1.00
O713   O     0.08332   0.42754   0.39281   0.00000  Uiso   1.00
O714   O     0.12610   0.48787   0.43516   0.00000  Uiso   1.00
O715   O     0.32743   0.08206   0.61847   0.00000  Uiso   1.00
O716   O     0.33557   0.16230   0.61264   0.00000  Uiso   1.00
O717   O     0.27140   0.12683   0.57046   0.00000  Uiso   1.00
O718   O     0.33136   0.08231   0.37863   0.00000  Uiso   1.00
O719   O     0.40931   0.08520   0.38575   0.00000  Uiso   1.00
O720   O     0.36974   0.01994   0.42441   0.00000  Uiso   1.00
O721   O     0.45420   0.20419   0.46179   0.00000  Uiso   1.00
O722   O     0.17524   0.40936   0.62010   0.00000  Uiso   1.00
O723   O     0.17026   0.32995   0.60639   0.00000  Uiso   1.00
O724   O     0.23180   0.37280   0.56659   0.00000  Uiso   1.00
O725   O     0.33138   0.41768   0.62133   0.00000  Uiso   1.00
O726   O     0.40934   0.41494   0.61423   0.00000  Uiso   1.00
O727   O     0.36968   0.48015   0.57560   0.00000  Uiso   1.00
O728   O     0.17543   0.09081   0.37991   0.00000  Uiso   1.00
O729   O     0.17072   0.17022   0.39375   0.00000  Uiso   1.00
O730   O     0.23206   0.12709   0.43355   0.00000  Uiso   1.00
O731   O     0.16091   0.06875   0.61995   0.00000  Uiso   1.00
O732   O     0.04581   0.29581   0.53821   0.00000  Uiso   1.00
O733   O     0.08353   0.07243   0.60739   0.00000  Uiso   1.00
O734   O     0.12624   0.01215   0.56495   0.00000  Uiso   1.00
O735   O     0.32779   0.41857   0.38168   0.00000  Uiso   1.00
O736   O     0.33524   0.33832   0.38663   0.00000  Uiso   1.00
O737   O     0.27135   0.37382   0.42877   0.00000  Uiso   1.00
O738   O     0.04581   0.29581   0.46179   0.00000  Uiso   1.00
O739   O     0.45420   0.20419   0.53821   0.00000  Uiso   1.00
O740   O     0.29581   0.45419   0.53821   0.00000  Uiso   1.00
S741   S     0.37641   0.18553   0.41437   0.00000  Uiso   1.00
S742   S     0.32262   0.12128   0.58764   0.00000  Uiso   1.00
S743   S     0.36830   0.07380   0.40986   0.00000  Uiso   1.00
S744   S     0.18081   0.37399   0.58529   0.00000  Uiso   1.00
S745   S     0.36832   0.42628   0.59012   0.00000  Uiso   1.00
S746   S     0.18109   0.12611   0.41479   0.00000  Uiso   1.00
S747   S     0.12613   0.06398   0.58529   0.00000  Uiso   1.00
S748   S     0.32273   0.37913   0.41219   0.00000  Uiso   1.00
S749   S     0.07290   0.37102   0.58779   0.00000  Uiso   1.00
S750   S     0.11791   0.32437   0.40957   0.00000  Uiso   1.00
S751   S     0.43052   0.12426   0.58546   0.00000  Uiso   1.00
S752   S     0.11778   0.17555   0.59055   0.00000  Uiso   1.00
S753   S     0.43041   0.37519   0.41416   0.00000  Uiso   1.00
S754   S     0.37647   0.31461   0.58564   0.00000  Uiso   1.00
S755   S     0.07331   0.12956   0.41192   0.00000  Uiso   1.00
S756   S     0.12598   0.43606   0.41476   0.00000  Uiso   1.00
Zn757  Zn    0.00000   0.25000   0.55104   0.00000  Uiso   1.00
Zn758  Zn    0.00000   0.25000   0.44896   0.00000  Uiso   1.00
Zn759  Zn    0.25000   0.00000   0.55104   0.00000  Uiso   1.00
Zn760  Zn    0.25000   0.00000   0.44896   0.00000  Uiso   1.00
C761   C     0.56002   0.18981   0.50018   0.00000  Uiso   1.00
C762   C     0.50031   0.21142   0.64301   0.00000  Uiso   1.00
C763   C     0.99884   0.21141   0.35741   0.00000  Uiso   1.00
C764   C     0.99883   0.28858   0.64258   0.00000  Uiso   1.00
C765   C     0.75035   0.03859   0.35698   0.00000  Uiso   1.00
C766   C     0.75031   0.46141   0.64301   0.00000  Uiso   1.00
C767   C     0.74876   0.46141   0.35741   0.00000  Uiso   1.00
C768   C     0.74880   0.03858   0.64258   0.00000  Uiso   1.00
C769   C     0.88478   0.14704   0.45926   0.00000  Uiso   1.00
C770   C     0.60628   0.36349   0.54007   0.00000  Uiso   1.00
C771   C     0.61232   0.35777   0.45840   0.00000  Uiso   1.00
C772   C     0.93996   0.31000   0.49999   0.00000  Uiso   1.00
C773   C     0.89519   0.13473   0.53976   0.00000  Uiso   1.00
C774   C     0.61232   0.14225   0.54160   0.00000  Uiso   1.00
C775   C     0.89522   0.36527   0.46017   0.00000  Uiso   1.00
C776   C     0.88483   0.35304   0.54069   0.00000  Uiso   1.00
C777   C     0.60650   0.13675   0.45988   0.00000  Uiso   1.00
C778   C     0.63462   0.39728   0.45934   0.00000  Uiso   1.00
C779   C     0.85613   0.11362   0.54004   0.00000  Uiso   1.00
C780   C     0.86247   0.10753   0.45843   0.00000  Uiso   1.00
C781   C     0.64533   0.38461   0.53973   0.00000  Uiso   1.00
C782   C     0.86256   0.39257   0.54152   0.00000  Uiso   1.00
C783   C     0.93997   0.18999   0.50000   0.00000  Uiso   1.00
C784   C     0.64551   0.11554   0.46028   0.00000  Uiso   1.00
C785   C     0.63461   0.10273   0.54064   0.00000  Uiso   1.00
C786   C     0.85623   0.38652   0.45989   0.00000  Uiso   1.00
C787   C     0.59289   0.34385   0.49933   0.00000  Uiso   1.00
C788   C     0.90663   0.15716   0.49971   0.00000  Uiso   1.00
C789   C     0.90663   0.34286   0.50024   0.00000  Uiso   1.00
C790   C     0.59299   0.15626   0.50066   0.00000  Uiso   1.00
C791   C     0.84288   0.09383   0.49933   0.00000  Uiso   1.00
C792   C     0.65662   0.40719   0.49974   0.00000  Uiso   1.00
C793   C     0.65667   0.09286   0.50026   0.00000  Uiso   1.00
C794   C     0.55999   0.31023   0.49982   0.00000  Uiso   1.00
C795   C     0.84299   0.40629   0.50062   0.00000  Uiso   1.00
C796   C     0.81002   0.43982   0.50017   0.00000  Uiso   1.00
C797   C     0.68998   0.06001   0.49999   0.00000  Uiso   1.00
C798   C     0.68997   0.44000   0.50001   0.00000  Uiso   1.00
C799   C     0.80998   0.06022   0.49982   0.00000  Uiso   1.00
C800   C     0.50032   0.28859   0.35697   0.00000  Uiso   1.00
H801   H     0.50145   0.31952   0.37463   0.00000  Uiso   1.00
H802   H     0.50758   0.39472   0.59437   0.00000  Uiso   1.00
H803   H     0.61622   0.25449   0.39469   0.00000  Uiso   1.00
H804   H     0.99764   0.10642   0.59049   0.00000  Uiso   1.00
H805   H     0.61548   0.24539   0.60557   0.00000  Uiso   1.00
H806   H     0.98239   0.39982   0.45538   0.00000  Uiso   1.00
H807   H     0.88016   0.24348   0.59268   0.00000  Uiso   1.00
H808   H     0.52216   0.09921   0.45052   0.00000  Uiso   1.00
H809   H     0.62931   0.00725   0.40825   0.00000  Uiso   1.00
H810   H     0.75717   0.14458   0.59416   0.00000  Uiso   1.00
H811   H     0.86679   0.00380   0.39554   0.00000  Uiso   1.00
H812   H     0.50142   0.18052   0.62532   0.00000  Uiso   1.00
H813   H     0.74802   0.35649   0.59016   0.00000  Uiso   1.00
H814   H     0.86607   0.49628   0.60440   0.00000  Uiso   1.00
H815   H     0.74837   0.14334   0.41000   0.00000  Uiso   1.00
H816   H     0.63007   0.49282   0.59181   0.00000  Uiso   1.00
H817   H     0.77150   0.34919   0.45101   0.00000  Uiso   1.00
H818   H     0.99676   0.18047   0.37535   0.00000  Uiso   1.00
H819   H     0.99674   0.31949   0.62460   0.00000  Uiso   1.00
H820   H     0.75158   0.06948   0.37466   0.00000  Uiso   1.00
H821   H     0.75151   0.43051   0.62532   0.00000  Uiso   1.00
H822   H     0.74660   0.43047   0.37536   0.00000  Uiso   1.00
H823   H     0.74666   0.06949   0.62461   0.00000  Uiso   1.00
H824   H     0.87935   0.25669   0.40738   0.00000  Uiso   1.00
N825   N     0.50000   0.25000   0.61907   0.00000  Uiso   1.00
N826   N     0.50000   0.25000   0.38093   0.00000  Uiso   1.00
N827   N     0.75000   0.00000   0.61907   0.00000  Uiso   1.00
N828   N     0.75000   0.00000   0.38093   0.00000  Uiso   1.00
O829   O     0.54581   0.20419   0.53821   0.00000  Uiso   1.00
O830   O     0.70420   0.04581   0.46179   0.00000  Uiso   1.00
O831   O     0.70420   0.04581   0.53821   0.00000  Uiso   1.00
O832   O     0.79581   0.45419   0.46179   0.00000  Uiso   1.00
O833   O     0.70420   0.45419   0.46179   0.00000  Uiso   1.00
O834   O     0.79581   0.04581   0.53821   0.00000  Uiso   1.00
O835   O     0.79581   0.04581   0.46179   0.00000  Uiso   1.00
O836   O     0.70420   0.45419   0.53821   0.00000  Uiso   1.00
O837   O     0.91136   0.18067   0.37993   0.00000  Uiso   1.00
O838   O     0.83394   0.17682   0.39209   0.00000  Uiso   1.00
O839   O     0.87630   0.23747   0.43442   0.00000  Uiso   1.00
O840   O     0.95420   0.29581   0.46179   0.00000  Uiso   1.00
O841   O     0.57767   0.33163   0.61842   0.00000  Uiso   1.00
O842   O     0.58599   0.41188   0.61297   0.00000  Uiso   1.00
O843   O     0.52167   0.37679   0.57071   0.00000  Uiso   1.00
O844   O     0.58087   0.33319   0.37857   0.00000  Uiso   1.00
O845   O     0.65886   0.33590   0.38537   0.00000  Uiso   1.00
O846   O     0.61935   0.27041   0.42368   0.00000  Uiso   1.00
O847   O     0.92497   0.15986   0.62003   0.00000  Uiso   1.00
O848   O     0.91981   0.08038   0.60681   0.00000  Uiso   1.00
O849   O     0.98154   0.12281   0.56688   0.00000  Uiso   1.00
O850   O     0.58072   0.16654   0.62147   0.00000  Uiso   1.00
O851   O     0.95420   0.29581   0.53821   0.00000  Uiso   1.00
O852   O     0.65871   0.16407   0.61477   0.00000  Uiso   1.00
O853   O     0.61912   0.22956   0.57660   0.00000  Uiso   1.00
O854   O     0.92450   0.33911   0.38019   0.00000  Uiso   1.00
O855   O     0.92000   0.41872   0.39196   0.00000  Uiso   1.00
O856   O     0.98167   0.37658   0.43194   0.00000  Uiso   1.00
O857   O     0.91142   0.31957   0.62006   0.00000  Uiso   1.00
O858   O     0.83400   0.32330   0.60790   0.00000  Uiso   1.00
O859   O     0.87640   0.26263   0.56568   0.00000  Uiso   1.00
O860   O     0.57828   0.16930   0.38180   0.00000  Uiso   1.00
O861   O     0.58618   0.08906   0.38606   0.00000  Uiso   1.00
O862   O     0.54581   0.20419   0.46179   0.00000  Uiso   1.00
O863   O     0.52190   0.12378   0.42822   0.00000  Uiso   1.00
O864   O     0.66067   0.43137   0.37999   0.00000  Uiso   1.00
O865   O     0.58332   0.42754   0.39281   0.00000  Uiso   1.00
O866   O     0.62610   0.48787   0.43516   0.00000  Uiso   1.00
O867   O     0.82743   0.08206   0.61847   0.00000  Uiso   1.00
O868   O     0.83557   0.16230   0.61264   0.00000  Uiso   1.00
O869   O     0.77140   0.12683   0.57046   0.00000  Uiso   1.00
O870   O     0.83136   0.08231   0.37863   0.00000  Uiso   1.00
O871   O     0.90931   0.08520   0.38575   0.00000  Uiso   1.00
O872   O     0.86974   0.01994   0.42441   0.00000  Uiso   1.00
O873   O     0.95420   0.20419   0.46179   0.00000  Uiso   1.00
O874   O     0.67524   0.40936   0.62010   0.00000  Uiso   1.00
O875   O     0.67026   0.32995   0.60639   0.00000  Uiso   1.00
O876   O     0.73180   0.37280   0.56659   0.00000  Uiso   1.00
O877   O     0.83138   0.41768   0.62133   0.00000  Uiso   1.00
O878   O     0.90934   0.41494   0.61423   0.00000  Uiso   1.00
O879   O     0.86968   0.48015   0.57560   0.00000  Uiso   1.00
O880   O     0.67543   0.09081   0.37991   0.00000  Uiso   1.00
O881   O     0.67072   0.17022   0.39375   0.00000  Uiso   1.00
O882   O     0.73206   0.12709   0.43355   0.00000  Uiso   1.00
O883   O     0.66091   0.06875   0.61995   0.00000  Uiso   1.00
O884   O     0.54581   0.29581   0.53821   0.00000  Uiso   1.00
O885   O     0.58353   0.07243   0.60739   0.00000  Uiso   1.00
O886   O     0.62624   0.01215   0.56495   0.00000  Uiso   1.00
O887   O     0.82779   0.41857   0.38168   0.00000  Uiso   1.00
O888   O     0.83524   0.33832   0.38663   0.00000  Uiso   1.00
O889   O     0.77135   0.37382   0.42877   0.00000  Uiso   1.00
O890   O     0.54581   0.29581   0.46179   0.00000  Uiso   1.00
O891   O     0.95420   0.20419   0.53821   0.00000  Uiso   1.00
O892   O     0.79581   0.45419   0.53821   0.00000  Uiso   1.00
S893   S     0.87641   0.18553   0.41437   0.00000  Uiso   1.00
S894   S     0.82262   0.12128   0.58764   0.00000  Uiso   1.00
S895   S     0.86830   0.07380   0.40986   0.00000  Uiso   1.00
S896   S     0.68081   0.37399   0.58529   0.00000  Uiso   1.00
S897   S     0.86832   0.42628   0.59012   0.00000  Uiso   1.00
S898   S     0.68109   0.12611   0.41479   0.00000  Uiso   1.00
S899   S     0.62613   0.06398   0.58529   0.00000  Uiso   1.00
S900   S     0.82273   0.37913   0.41219   0.00000  Uiso   1.00
S901   S     0.57290   0.37102   0.58779   0.00000  Uiso   1.00
S902   S     0.61791   0.32437   0.40957   0.00000  Uiso   1.00
S903   S     0.93052   0.12426   0.58546   0.00000  Uiso   1.00
S904   S     0.61778   0.17555   0.59055   0.00000  Uiso   1.00
S905   S     0.93041   0.37519   0.41416   0.00000  Uiso   1.00
S906   S     0.87647   0.31461   0.58564   0.00000  Uiso   1.00
S907   S     0.57331   0.12956   0.41192   0.00000  Uiso   1.00
S908   S     0.62598   0.43606   0.41476   0.00000  Uiso   1.00
Zn909  Zn    0.50000   0.25000   0.55104   0.00000  Uiso   1.00
Zn910  Zn    0.50000   0.25000   0.44896   0.00000  Uiso   1.00
Zn911  Zn    0.75000   0.00000   0.55104   0.00000  Uiso   1.00
Zn912  Zn    0.75000   0.00000   0.44896   0.00000  Uiso   1.00
C913   C     0.06002   0.68981   0.50018   0.00000  Uiso   1.00
C914   C     0.00031   0.71142   0.64301   0.00000  Uiso   1.00
C915   C     0.49884   0.71141   0.35741   0.00000  Uiso   1.00
C916   C     0.49883   0.78858   0.64258   0.00000  Uiso   1.00
C917   C     0.25035   0.53859   0.35698   0.00000  Uiso   1.00
C918   C     0.25031   0.96141   0.64301   0.00000  Uiso   1.00
C919   C     0.24876   0.96141   0.35741   0.00000  Uiso   1.00
C920   C     0.24880   0.53858   0.64258   0.00000  Uiso   1.00
C921   C     0.38478   0.64704   0.45926   0.00000  Uiso   1.00
C922   C     0.10628   0.86349   0.54007   0.00000  Uiso   1.00
C923   C     0.11232   0.85777   0.45840   0.00000  Uiso   1.00
C924   C     0.43996   0.81000   0.49999   0.00000  Uiso   1.00
C925   C     0.39519   0.63473   0.53976   0.00000  Uiso   1.00
C926   C     0.11232   0.64225   0.54160   0.00000  Uiso   1.00
C927   C     0.39522   0.86527   0.46017   0.00000  Uiso   1.00
C928   C     0.38483   0.85304   0.54069   0.00000  Uiso   1.00
C929   C     0.10650   0.63675   0.45988   0.00000  Uiso   1.00
C930   C     0.13462   0.89728   0.45934   0.00000  Uiso   1.00
C931   C     0.35613   0.61362   0.54004   0.00000  Uiso   1.00
C932   C     0.36247   0.60753   0.45843   0.00000  Uiso   1.00
C933   C     0.14533   0.88461   0.53973   0.00000  Uiso   1.00
C934   C     0.36256   0.89257   0.54152   0.00000  Uiso   1.00
C935   C     0.43997   0.68999   0.50000   0.00000  Uiso   1.00
C936   C     0.14551   0.61554   0.46028   0.00000  Uiso   1.00
C937   C     0.13461   0.60273   0.54064   0.00000  Uiso   1.00
C938   C     0.35623   0.88652   0.45989   0.00000  Uiso   1.00
C939   C     0.09289   0.84385   0.49933   0.00000  Uiso   1.00
C940   C     0.40663   0.65716   0.49971   0.00000  Uiso   1.00
C941   C     0.40663   0.84286   0.50024   0.00000  Uiso   1.00
C942   C     0.09299   0.65626   0.50066   0.00000  Uiso   1.00
C943   C     0.34288   0.59383   0.49933   0.00000  Uiso   1.00
C944   C     0.15662   0.90719   0.49974   0.00000  Uiso   1.00
C945   C     0.15667   0.59286   0.50026   0.00000  Uiso   1.00
C946   C     0.05999   0.81023   0.49982   0.00000  Uiso   1.00
C947   C     0.34299   0.90629   0.50062   0.00000  Uiso   1.00
C948   C     0.31002   0.93982   0.50017   0.00000  Uiso   1.00
C949   C     0.18998   0.56001   0.49999   0.00000  Uiso   1.00
C950   C     0.18997   0.94000   0.50001   0.00000  Uiso   1.00
C951   C     0.30998   0.56022   0.49982   0.00000  Uiso   1.00
C952   C     0.00032   0.78859   0.35697   0.00000  Uiso   1.00
H953   H     0.00145   0.81952   0.37463   0.00000  Uiso   1.00
H954   H     0.00758   0.89472   0.59437   0.00000  Uiso   1.00
H955   H     0.11622   0.75449   0.39469   0.00000  Uiso   1.00
H956   H     0.49764   0.60642   0.59049   0.00000  Uiso   1.00
H957   H     0.11548   0.74539   0.60557   0.00000  Uiso   1.00
H958   H     0.48239   0.89982   0.45538   0.00000  Uiso   1.00
H959   H     0.38016   0.74348   0.59268   0.00000  Uiso   1.00
H960   H     0.02216   0.59921   0.45052   0.00000  Uiso   1.00
H961   H     0.12931   0.50725   0.40825   0.00000  Uiso   1.00
H962   H     0.25717   0.64458   0.59416   0.00000  Uiso   1.00
H963   H     0.36679   0.50380   0.39554   0.00000  Uiso   1.00
H964   H     0.00142   0.68052   0.62532   0.00000  Uiso   1.00
H965   H     0.24802   0.85649   0.59016   0.00000  Uiso   1.00
H966   H     0.36607   0.99628   0.60440   0.00000  Uiso   1.00
H967   H     0.24837   0.64334   0.41000   0.00000  Uiso   1.00
H968   H     0.13007   0.99282   0.59181   0.00000  Uiso   1.00
H969   H     0.27150   0.84919   0.45101   0.00000  Uiso   1.00
H970   H     0.49676   0.68047   0.37535   0.00000  Uiso   1.00
H971   H     0.49674   0.81949   0.62460   0.00000  Uiso   1.00
H972   H     0.25158   0.56948   0.37466   0.00000  Uiso   1.00
H973   H     0.25151   0.93051   0.62532   0.00000  Uiso   1.00
H974   H     0.24660   0.93047   0.37536   0.00000  Uiso   1.00
H975   H     0.24666   0.56949   0.62461   0.00000  Uiso   1.00
H976   H     0.37935   0.75669   0.40738   0.00000  Uiso   1.00
N977   N     0.00000   0.75000   0.61907   0.00000  Uiso   1.00
N978   N     0.00000   0.75000   0.38093   0.00000  Uiso   1.00
N979   N     0.25000   0.50000   0.61907   0.00000  Uiso   1.00
N980   N     0.25000   0.50000   0.38093   0.00000  Uiso   1.00
O981   O     0.04581   0.70419   0.53821   0.00000  Uiso   1.00
O982   O     0.20420   0.54581   0.46179   0.00000  Uiso   1.00
O983   O     0.20420   0.54581   0.53821   0.00000  Uiso   1.00
O984   O     0.29581   0.95419   0.46179   0.00000  Uiso   1.00
O985   O     0.20420   0.95419   0.46179   0.00000  Uiso   1.00
O986   O     0.29581   0.54581   0.53821   0.00000  Uiso   1.00
O987   O     0.29581   0.54581   0.46179   0.00000  Uiso   1.00
O988   O     0.20420   0.95419   0.53821   0.00000  Uiso   1.00
O989   O     0.41136   0.68067   0.37993   0.00000  Uiso   1.00
O990   O     0.33394   0.67682   0.39209   0.00000  Uiso   1.00
O991   O     0.37630   0.73747   0.43442   0.00000  Uiso   1.00
O992   O     0.45420   0.79581   0.46179   0.00000  Uiso   1.00
O993   O     0.07767   0.83163   0.61842   0.00000  Uiso   1.00
O994   O     0.08599   0.91188   0.61297   0.00000  Uiso   1.00
O995   O     0.02167   0.87679   0.57071   0.00000  Uiso   1.00
O996   O     0.08087   0.83319   0.37857   0.00000  Uiso   1.00
O997   O     0.15886   0.83590   0.38537   0.00000  Uiso   1.00
O998   O     0.11935   0.77041   0.42368   0.00000  Uiso   1.00
O999   O     0.42497   0.65986   0.62003   0.00000  Uiso   1.00
O1000  O     0.41981   0.58038   0.60681   0.00000  Uiso   1.00
O1001  O     0.48154   0.62281   0.56688   0.00000  Uiso   1.00
O1002  O     0.08072   0.66654   0.62147   0.00000  Uiso   1.00
O1003  O     0.45420   0.79581   0.53821   0.00000  Uiso   1.00
O1004  O     0.15871   0.66407   0.61477   0.00000  Uiso   1.00
O1005  O     0.11912   0.72956   0.57660   0.00000  Uiso   1.00
O1006  O     0.42450   0.83911   0.38019   0.00000  Uiso   1.00
O1007  O     0.42000   0.91872   0.39196   0.00000  Uiso   1.00
O1008  O     0.48167   0.87658   0.43194   0.00000  Uiso   1.00
O1009  O     0.41142   0.81957   0.62006   0.00000  Uiso   1.00
O1010  O     0.33400   0.82330   0.60790   0.00000  Uiso   1.00
O1011  O     0.37640   0.76263   0.56568   0.00000  Uiso   1.00
O1012  O     0.07828   0.66930   0.38180   0.00000  Uiso   1.00
O1013  O     0.08618   0.58906   0.38606   0.00000  Uiso   1.00
O1014  O     0.04581   0.70419   0.46179   0.00000  Uiso   1.00
O1015  O     0.02190   0.62378   0.42822   0.00000  Uiso   1.00
O1016  O     0.16067   0.93137   0.37999   0.00000  Uiso   1.00
O1017  O     0.08332   0.92754   0.39281   0.00000  Uiso   1.00
O1018  O     0.12610   0.98787   0.43516   0.00000  Uiso   1.00
O1019  O     0.32743   0.58206   0.61847   0.00000  Uiso   1.00
O1020  O     0.33557   0.66230   0.61264   0.00000  Uiso   1.00
O1021  O     0.27140   0.62683   0.57046   0.00000  Uiso   1.00
O1022  O     0.33136   0.58231   0.37863   0.00000  Uiso   1.00
O1023  O     0.40931   0.58520   0.38575   0.00000  Uiso   1.00
O1024  O     0.36974   0.51994   0.42441   0.00000  Uiso   1.00
O1025  O     0.45420   0.70419   0.46179   0.00000  Uiso   1.00
O1026  O     0.17524   0.90936   0.62010   0.00000  Uiso   1.00
O1027  O     0.17026   0.82995   0.60639   0.00000  Uiso   1.00
O1028  O     0.23180   0.87280   0.56659   0.00000  Uiso   1.00
O1029  O     0.33138   0.91768   0.62133   0.00000  Uiso   1.00
O1030  O     0.40934   0.91494   0.61423   0.00000  Uiso   1.00
O1031  O     0.36968   0.98015   0.57560   0.00000  Uiso   1.00
O1032  O     0.17543   0.59081   0.37991   0.00000  Uiso   1.00
O1033  O     0.17072   0.67022   0.39375   0.00000  Uiso   1.00
O1034  O     0.23206   0.62709   0.43355   0.00000  Uiso   1.00
O1035  O     0.16091   0.56875   0.61995   0.00000  Uiso   1.00
O1036  O     0.04581   0.79581   0.53821   0.00000  Uiso   1.00
O1037  O     0.08353   0.57243   0.60739   0.00000  Uiso   1.00
O1038  O     0.12624   0.51215   0.56495   0.00000  Uiso   1.00
O1039  O     0.32779   0.91857   0.38168   0.00000  Uiso   1.00
O1040  O     0.33524   0.83832   0.38663   0.00000  Uiso   1.00
O1041  O     0.27135   0.87382   0.42877   0.00000  Uiso   1.00
O1042  O     0.04581   0.79581   0.46179   0.00000  Uiso   1.00
O1043  O     0.45420   0.70419   0.53821   0.00000  Uiso   1.00
O1044  O     0.29581   0.95419   0.53821   0.00000  Uiso   1.00
S1045  S     0.37641   0.68553   0.41437   0.00000  Uiso   1.00
S1046  S     0.32262   0.62128   0.58764   0.00000  Uiso   1.00
S1047  S     0.36830   0.57380   0.40986   0.00000  Uiso   1.00
S1048  S     0.18081   0.87399   0.58529   0.00000  Uiso   1.00
S1049  S     0.36832   0.92628   0.59012   0.00000  Uiso   1.00
S1050  S     0.18109   0.62611   0.41479   0.00000  Uiso   1.00
S1051  S     0.12613   0.56398   0.58529   0.00000  Uiso   1.00
S1052  S     0.32273   0.87913   0.41219   0.00000  Uiso   1.00
S1053  S     0.07290   0.87102   0.58779   0.00000  Uiso   1.00
S1054  S     0.11791   0.82437   0.40957   0.00000  Uiso   1.00
S1055  S     0.43052   0.62426   0.58546   0.00000  Uiso   1.00
S1056  S     0.11778   0.67555   0.59055   0.00000  Uiso   1.00
S1057  S     0.43041   0.87519   0.41416   0.00000  Uiso   1.00
S1058  S     0.37647   0.81461   0.58564   0.00000  Uiso   1.00
S1059  S     0.07331   0.62956   0.41192   0.00000  Uiso   1.00
S1060  S     0.12598   0.93606   0.41476   0.00000  Uiso   1.00
Zn1061 Zn    0.00000   0.75000   0.55104   0.00000  Uiso   1.00
Zn1062 Zn    0.00000   0.75000   0.44896   0.00000  Uiso   1.00
Zn1063 Zn    0.25000   0.50000   0.55104   0.00000  Uiso   1.00
Zn1064 Zn    0.25000   0.50000   0.44896   0.00000  Uiso   1.00
C1065  C     0.56002   0.68981   0.50018   0.00000  Uiso   1.00
C1066  C     0.50031   0.71142   0.64301   0.00000  Uiso   1.00
C1067  C     0.99884   0.71141   0.35741   0.00000  Uiso   1.00
C1068  C     0.99883   0.78858   0.64258   0.00000  Uiso   1.00
C1069  C     0.75035   0.53859   0.35698   0.00000  Uiso   1.00
C1070  C     0.75031   0.96141   0.64301   0.00000  Uiso   1.00
C1071  C     0.74876   0.96141   0.35741   0.00000  Uiso   1.00
C1072  C     0.74880   0.53858   0.64258   0.00000  Uiso   1.00
C1073  C     0.88478   0.64704   0.45926   0.00000  Uiso   1.00
C1074  C     0.60628   0.86349   0.54007   0.00000  Uiso   1.00
C1075  C     0.61232   0.85777   0.45840   0.00000  Uiso   1.00
C1076  C     0.93996   0.81000   0.49999   0.00000  Uiso   1.00
C1077  C     0.89519   0.63473   0.53976   0.00000  Uiso   1.00
C1078  C     0.61232   0.64225   0.54160   0.00000  Uiso   1.00
C1079  C     0.89522   0.86527   0.46017   0.00000  Uiso   1.00
C1080  C     0.88483   0.85304   0.54069   0.00000  Uiso   1.00
C1081  C     0.60650   0.63675   0.45988   0.00000  Uiso   1.00
C1082  C     0.63462   0.89728   0.45934   0.00000  Uiso   1.00
C1083  C     0.85613   0.61362   0.54004   0.00000  Uiso   1.00
C1084  C     0.86247   0.60753   0.45843   0.00000  Uiso   1.00
C1085  C     0.64533   0.88461   0.53973   0.00000  Uiso   1.00
C1086  C     0.86256   0.89257   0.54152   0.00000  Uiso   1.00
C1087  C     0.93997   0.68999   0.50000   0.00000  Uiso   1.00
C1088  C     0.64551   0.61554   0.46028   0.00000  Uiso   1.00
C1089  C     0.63461   0.60273   0.54064   0.00000  Uiso   1.00
C1090  C     0.85623   0.88652   0.45989   0.00000  Uiso   1.00
C1091  C     0.59289   0.84385   0.49933   0.00000  Uiso   1.00
C1092  C     0.90663   0.65716   0.49971   0.00000  Uiso   1.00
C1093  C     0.90663   0.84286   0.50024   0.00000  Uiso   1.00
C1094  C     0.59299   0.65626   0.50066   0.00000  Uiso   1.00
C1095  C     0.84288   0.59383   0.49933   0.00000  Uiso   1.00
C1096  C     0.65662   0.90719   0.49974   0.00000  Uiso   1.00
C1097  C     0.65667   0.59286   0.50026   0.00000  Uiso   1.00
C1098  C     0.55999   0.81023   0.49982   0.00000  Uiso   1.00
C1099  C     0.84299   0.90629   0.50062   0.00000  Uiso   1.00
C1100  C     0.81002   0.93982   0.50017   0.00000  Uiso   1.00
C1101  C     0.68998   0.56001   0.49999   0.00000  Uiso   1.00
C1102  C     0.68997   0.94000   0.50001   0.00000  Uiso   1.00
C1103  C     0.80998   0.56022   0.49982   0.00000  Uiso   1.00
C1104  C     0.50032   0.78859   0.35697   0.00000  Uiso   1.00
H1105  H     0.50145   0.81952   0.37463   0.00000  Uiso   1.00
H1106  H     0.50758   0.89472   0.59437   0.00000  Uiso   1.00
H1107  H     0.61622   0.75449   0.39469   0.00000  Uiso   1.00
H1108  H     0.99764   0.60642   0.59049   0.00000  Uiso   1.00
H1109  H     0.61548   0.74539   0.60557   0.00000  Uiso   1.00
H1110  H     0.98239   0.89982   0.45538   0.00000  Uiso   1.00
H1111  H     0.88016   0.74348   0.59268   0.00000  Uiso   1.00
H1112  H     0.52216   0.59921   0.45052   0.00000  Uiso   1.00
H1113  H     0.62931   0.50725   0.40825   0.00000  Uiso   1.00
H1114  H     0.75717   0.64458   0.59416   0.00000  Uiso   1.00
H1115  H     0.86679   0.50380   0.39554   0.00000  Uiso   1.00
H1116  H     0.50142   0.68052   0.62532   0.00000  Uiso   1.00
H1117  H     0.74802   0.85649   0.59016   0.00000  Uiso   1.00
H1118  H     0.86607   0.99628   0.60440   0.00000  Uiso   1.00
H1119  H     0.74837   0.64334   0.41000   0.00000  Uiso   1.00
H1120  H     0.63007   0.99282   0.59181   0.00000  Uiso   1.00
H1121  H     0.77150   0.84919   0.45101   0.00000  Uiso   1.00
H1122  H     0.99676   0.68047   0.37535   0.00000  Uiso   1.00
H1123  H     0.99674   0.81949   0.62460   0.00000  Uiso   1.00
H1124  H     0.75158   0.56948   0.37466   0.00000  Uiso   1.00
H1125  H     0.75151   0.93051   0.62532   0.00000  Uiso   1.00
H1126  H     0.74660   0.93047   0.37536   0.00000  Uiso   1.00
H1127  H     0.74666   0.56949   0.62461   0.00000  Uiso   1.00
H1128  H     0.87935   0.75669   0.40738   0.00000  Uiso   1.00
N1129  N     0.50000   0.75000   0.61907   0.00000  Uiso   1.00
N1130  N     0.50000   0.75000   0.38093   0.00000  Uiso   1.00
N1131  N     0.75000   0.50000   0.61907   0.00000  Uiso   1.00
N1132  N     0.75000   0.50000   0.38093   0.00000  Uiso   1.00
O1133  O     0.54581   0.70419   0.53821   0.00000  Uiso   1.00
O1134  O     0.70420   0.54581   0.46179   0.00000  Uiso   1.00
O1135  O     0.70420   0.54581   0.53821   0.00000  Uiso   1.00
O1136  O     0.79581   0.95419   0.46179   0.00000  Uiso   1.00
O1137  O     0.70420   0.95419   0.46179   0.00000  Uiso   1.00
O1138  O     0.79581   0.54581   0.53821   0.00000  Uiso   1.00
O1139  O     0.79581   0.54581   0.46179   0.00000  Uiso   1.00
O1140  O     0.70420   0.95419   0.53821   0.00000  Uiso   1.00
O1141  O     0.91136   0.68067   0.37993   0.00000  Uiso   1.00
O1142  O     0.83394   0.67682   0.39209   0.00000  Uiso   1.00
O1143  O     0.87630   0.73747   0.43442   0.00000  Uiso   1.00
O1144  O     0.95420   0.79581   0.46179   0.00000  Uiso   1.00
O1145  O     0.57767   0.83163   0.61842   0.00000  Uiso   1.00
O1146  O     0.58599   0.91188   0.61297   0.00000  Uiso   1.00
O1147  O     0.52167   0.87679   0.57071   0.00000  Uiso   1.00
O1148  O     0.58087   0.83319   0.37857   0.00000  Uiso   1.00
O1149  O     0.65886   0.83590   0.38537   0.00000  Uiso   1.00
O1150  O     0.61935   0.77041   0.42368   0.00000  Uiso   1.00
O1151  O     0.92497   0.65986   0.62003   0.00000  Uiso   1.00
O1152  O     0.91981   0.58038   0.60681   0.00000  Uiso   1.00
O1153  O     0.98154   0.62281   0.56688   0.00000  Uiso   1.00
O1154  O     0.58072   0.66654   0.62147   0.00000  Uiso   1.00
O1155  O     0.95420   0.79581   0.53821   0.00000  Uiso   1.00
O1156  O     0.65871   0.66407   0.61477   0.00000  Uiso   1.00
O1157  O     0.61912   0.72956   0.57660   0.00000  Uiso   1.00
O1158  O     0.92450   0.83911   0.38019   0.00000  Uiso   1.00
O1159  O     0.92000   0.91872   0.39196   0.00000  Uiso   1.00
O1160  O     0.98167   0.87658   0.43194   0.00000  Uiso   1.00
O1161  O     0.91142   0.81957   0.62006   0.00000  Uiso   1.00
O1162  O     0.83400   0.82330   0.60790   0.00000  Uiso   1.00
O1163  O     0.87640   0.76263   0.56568   0.00000  Uiso   1.00
O1164  O     0.57828   0.66930   0.38180   0.00000  Uiso   1.00
O1165  O     0.58618   0.58906   0.38606   0.00000  Uiso   1.00
O1166  O     0.54581   0.70419   0.46179   0.00000  Uiso   1.00
O1167  O     0.52190   0.62378   0.42822   0.00000  Uiso   1.00
O1168  O     0.66067   0.93137   0.37999   0.00000  Uiso   1.00
O1169  O     0.58332   0.92754   0.39281   0.00000  Uiso   1.00
O1170  O     0.62610   0.98787   0.43516   0.00000  Uiso   1.00
O1171  O     0.82743   0.58206   0.61847   0.00000  Uiso   1.00
O1172  O     0.83557   0.66230   0.61264   0.00000  Uiso   1.00
O1173  O     0.77140   0.62683   0.57046   0.00000  Uiso   1.00
O1174  O     0.83136   0.58231   0.37863   0.00000  Uiso   1.00
O1175  O     0.90931   0.58520   0.38575   0.00000  Uiso   1.00
O1176  O     0.86974   0.51994   0.42441   0.00000  Uiso   1.00
O1177  O     0.95420   0.70419   0.46179   0.00000  Uiso   1.00
O1178  O     0.67524   0.90936   0.62010   0.00000  Uiso   1.00
O1179  O     0.67026   0.82995   0.60639   0.00000  Uiso   1.00
O1180  O     0.73180   0.87280   0.56659   0.00000  Uiso   1.00
O1181  O     0.83138   0.91768   0.62133   0.00000  Uiso   1.00
O1182  O     0.90934   0.91494   0.61423   0.00000  Uiso   1.00
O1183  O     0.86968   0.98015   0.57560   0.00000  Uiso   1.00
O1184  O     0.67543   0.59081   0.37991   0.00000  Uiso   1.00
O1185  O     0.67072   0.67022   0.39375   0.00000  Uiso   1.00
O1186  O     0.73206   0.62709   0.43355   0.00000  Uiso   1.00
O1187  O     0.66091   0.56875   0.61995   0.00000  Uiso   1.00
O1188  O     0.54581   0.79581   0.53821   0.00000  Uiso   1.00
O1189  O     0.58353   0.57243   0.60739   0.00000  Uiso   1.00
O1190  O     0.62624   0.51215   0.56495   0.00000  Uiso   1.00
O1191  O     0.82779   0.91857   0.38168   0.00000  Uiso   1.00
O1192  O     0.83524   0.83832   0.38663   0.00000  Uiso   1.00
O1193  O     0.77135   0.87382   0.42877   0.00000  Uiso   1.00
O1194  O     0.54581   0.79581   0.46179   0.00000  Uiso   1.00
O1195  O     0.95420   0.70419   0.53821   0.00000  Uiso   1.00
O1196  O     0.79581   0.95419   0.53821   0.00000  Uiso   1.00
S1197  S     0.87641   0.68553   0.41437   0.00000  Uiso   1.00
S1198  S     0.82262   0.62128   0.58764   0.00000  Uiso   1.00
S1199  S     0.86830   0.57380   0.40986   0.00000  Uiso   1.00
S1200  S     0.68081   0.87399   0.58529   0.00000  Uiso   1.00
S1201  S     0.86832   0.92628   0.59012   0.00000  Uiso   1.00
S1202  S     0.68109   0.62611   0.41479   0.00000  Uiso   1.00
S1203  S     0.62613   0.56398   0.58529   0.00000  Uiso   1.00
S1204  S     0.82273   0.87913   0.41219   0.00000  Uiso   1.00
S1205  S     0.57290   0.87102   0.58779   0.00000  Uiso   1.00
S1206  S     0.61791   0.82437   0.40957   0.00000  Uiso   1.00
S1207  S     0.93052   0.62426   0.58546   0.00000  Uiso   1.00
S1208  S     0.61778   0.67555   0.59055   0.00000  Uiso   1.00
S1209  S     0.93041   0.87519   0.41416   0.00000  Uiso   1.00
S1210  S     0.87647   0.81461   0.58564   0.00000  Uiso   1.00
S1211  S     0.57331   0.62956   0.41192   0.00000  Uiso   1.00
S1212  S     0.62598   0.93606   0.41476   0.00000  Uiso   1.00
Zn1213 Zn    0.50000   0.75000   0.55104   0.00000  Uiso   1.00
Zn1214 Zn    0.50000   0.75000   0.44896   0.00000  Uiso   1.00
Zn1215 Zn    0.75000   0.50000   0.55104   0.00000  Uiso   1.00
Zn1216 Zn    0.75000   0.50000   0.44896   0.00000  Uiso   1.00
C1217  C     0.06002   0.18981   0.83352   0.00000  Uiso   1.00
C1218  C     0.00031   0.21142   0.97635   0.00000  Uiso   1.00
C1219  C     0.49884   0.21141   0.69074   0.00000  Uiso   1.00
C1220  C     0.49883   0.28858   0.97591   0.00000  Uiso   1.00
C1221  C     0.25035   0.03859   0.69031   0.00000  Uiso   1.00
C1222  C     0.25031   0.46141   0.97635   0.00000  Uiso   1.00
C1223  C     0.24876   0.46141   0.69075   0.00000  Uiso   1.00
C1224  C     0.24880   0.03858   0.97591   0.00000  Uiso   1.00
C1225  C     0.38478   0.14704   0.79259   0.00000  Uiso   1.00
C1226  C     0.10628   0.36349   0.87340   0.00000  Uiso   1.00
C1227  C     0.11232   0.35777   0.79174   0.00000  Uiso   1.00
C1228  C     0.43996   0.31000   0.83332   0.00000  Uiso   1.00
C1229  C     0.39519   0.13473   0.87309   0.00000  Uiso   1.00
C1230  C     0.11232   0.14225   0.87494   0.00000  Uiso   1.00
C1231  C     0.39522   0.36527   0.79350   0.00000  Uiso   1.00
C1232  C     0.38483   0.35304   0.87403   0.00000  Uiso   1.00
C1233  C     0.10650   0.13675   0.79322   0.00000  Uiso   1.00
C1234  C     0.13462   0.39728   0.79268   0.00000  Uiso   1.00
C1235  C     0.35613   0.11362   0.87337   0.00000  Uiso   1.00
C1236  C     0.36247   0.10753   0.79176   0.00000  Uiso   1.00
C1237  C     0.14533   0.38461   0.87307   0.00000  Uiso   1.00
C1238  C     0.36256   0.39257   0.87485   0.00000  Uiso   1.00
C1239  C     0.43997   0.18999   0.83334   0.00000  Uiso   1.00
C1240  C     0.14551   0.11554   0.79361   0.00000  Uiso   1.00
C1241  C     0.13461   0.10273   0.87397   0.00000  Uiso   1.00
C1242  C     0.35623   0.38652   0.79322   0.00000  Uiso   1.00
C1243  C     0.09289   0.34385   0.83266   0.00000  Uiso   1.00
C1244  C     0.40663   0.15716   0.83305   0.00000  Uiso   1.00
C1245  C     0.40663   0.34286   0.83357   0.00000  Uiso   1.00
C1246  C     0.09299   0.15626   0.83399   0.00000  Uiso   1.00
C1247  C     0.34288   0.09383   0.83267   0.00000  Uiso   1.00
C1248  C     0.15662   0.40719   0.83307   0.00000  Uiso   1.00
C1249  C     0.15667   0.09286   0.83359   0.00000  Uiso   1.00
C1250  C     0.05999   0.31023   0.83315   0.00000  Uiso   1.00
C1251  C     0.34299   0.40629   0.83395   0.00000  Uiso   1.00
C1252  C     0.31002   0.43982   0.83351   0.00000  Uiso   1.00
C1253  C     0.18998   0.06001   0.83333   0.00000  Uiso   1.00
C1254  C     0.18997   0.44000   0.83334   0.00000  Uiso   1.00
C1255  C     0.30998   0.06022   0.83315   0.00000  Uiso   1.00
C1256  C     0.00032   0.28859   0.69031   0.00000  Uiso   1.00
H1257  H     0.00145   0.31952   0.70796   0.00000  Uiso   1.00
H1258  H     0.00758   0.39472   0.92770   0.00000  Uiso   1.00
H1259  H     0.11622   0.25449   0.72802   0.00000  Uiso   1.00
H1260  H     0.49764   0.10642   0.92382   0.00000  Uiso   1.00
H1261  H     0.11548   0.24539   0.93890   0.00000  Uiso   1.00
H1262  H     0.48239   0.39982   0.78871   0.00000  Uiso   1.00
H1263  H     0.38016   0.24348   0.92601   0.00000  Uiso   1.00
H1264  H     0.02216   0.09921   0.78385   0.00000  Uiso   1.00
H1265  H     0.12931   0.00725   0.74158   0.00000  Uiso   1.00
H1266  H     0.25717   0.14458   0.92749   0.00000  Uiso   1.00
H1267  H     0.36679   0.00380   0.72888   0.00000  Uiso   1.00
H1268  H     0.00142   0.18052   0.95865   0.00000  Uiso   1.00
H1269  H     0.24802   0.35649   0.92350   0.00000  Uiso   1.00
H1270  H     0.36607   0.49628   0.93774   0.00000  Uiso   1.00
H1271  H     0.24837   0.14334   0.74334   0.00000  Uiso   1.00
H1272  H     0.13007   0.49282   0.92514   0.00000  Uiso   1.00
H1273  H     0.27150   0.34919   0.78435   0.00000  Uiso   1.00
H1274  H     0.49676   0.18047   0.70868   0.00000  Uiso   1.00
H1275  H     0.49674   0.31949   0.95793   0.00000  Uiso   1.00
H1276  H     0.25158   0.06948   0.70799   0.00000  Uiso   1.00
H1277  H     0.25151   0.43051   0.95866   0.00000  Uiso   1.00
H1278  H     0.24660   0.43047   0.70869   0.00000  Uiso   1.00
H1279  H     0.24666   0.06949   0.95794   0.00000  Uiso   1.00
H1280  H     0.37935   0.25669   0.74071   0.00000  Uiso   1.00
N1281  N     0.00000   0.25000   0.95240   0.00000  Uiso   1.00
N1282  N     0.00000   0.25000   0.71427   0.00000  Uiso   1.00
N1283  N     0.25000   0.00000   0.95240   0.00000  Uiso   1.00
N1284  N     0.25000   0.00000   0.71427   0.00000  Uiso   1.00
O1285  O     0.04581   0.20419   0.87154   0.00000  Uiso   1.00
O1286  O     0.20420   0.04581   0.79513   0.00000  Uiso   1.00
O1287  O     0.20420   0.04581   0.87154   0.00000  Uiso   1.00
O1288  O     0.29581   0.45419   0.79513   0.00000  Uiso   1.00
O1289  O     0.20420   0.45419   0.79513   0.00000  Uiso   1.00
O1290  O     0.29581   0.04581   0.87154   0.00000  Uiso   1.00
O1291  O     0.29581   0.04581   0.79513   0.00000  Uiso   1.00
O1292  O     0.20420   0.45419   0.87154   0.00000  Uiso   1.00
O1293  O     0.41136   0.18067   0.71327   0.00000  Uiso   1.00
O1294  O     0.33394   0.17682   0.72543   0.00000  Uiso   1.00
O1295  O     0.37630   0.23747   0.76776   0.00000  Uiso   1.00
O1296  O     0.45420   0.29581   0.79513   0.00000  Uiso   1.00
O1297  O     0.07767   0.33163   0.95175   0.00000  Uiso   1.00
O1298  O     0.08599   0.41188   0.94631   0.00000  Uiso   1.00
O1299  O     0.02167   0.37679   0.90405   0.00000  Uiso   1.00
O1300  O     0.08087   0.33319   0.71190   0.00000  Uiso   1.00
O1301  O     0.15886   0.33590   0.71870   0.00000  Uiso   1.00
O1302  O     0.11935   0.27041   0.75701   0.00000  Uiso   1.00
O1303  O     0.42497   0.15986   0.95336   0.00000  Uiso   1.00
O1304  O     0.41981   0.08038   0.94014   0.00000  Uiso   1.00
O1305  O     0.48154   0.12281   0.90021   0.00000  Uiso   1.00
O1306  O     0.08072   0.16654   0.95481   0.00000  Uiso   1.00
O1307  O     0.45420   0.29581   0.87154   0.00000  Uiso   1.00
O1308  O     0.15871   0.16407   0.94811   0.00000  Uiso   1.00
O1309  O     0.11912   0.22956   0.90993   0.00000  Uiso   1.00
O1310  O     0.42450   0.33911   0.71352   0.00000  Uiso   1.00
O1311  O     0.42000   0.41872   0.72529   0.00000  Uiso   1.00
O1312  O     0.48167   0.37658   0.76527   0.00000  Uiso   1.00
O1313  O     0.41142   0.31957   0.95340   0.00000  Uiso   1.00
O1314  O     0.33400   0.32330   0.94123   0.00000  Uiso   1.00
O1315  O     0.37640   0.26263   0.89901   0.00000  Uiso   1.00
O1316  O     0.07828   0.16930   0.71513   0.00000  Uiso   1.00
O1317  O     0.08618   0.08906   0.71939   0.00000  Uiso   1.00
O1318  O     0.04581   0.20419   0.79513   0.00000  Uiso   1.00
O1319  O     0.02190   0.12378   0.76156   0.00000  Uiso   1.00
O1320  O     0.16067   0.43137   0.71332   0.00000  Uiso   1.00
O1321  O     0.08332   0.42754   0.72614   0.00000  Uiso   1.00
O1322  O     0.12610   0.48787   0.76849   0.00000  Uiso   1.00
O1323  O     0.32743   0.08206   0.95181   0.00000  Uiso   1.00
O1324  O     0.33557   0.16230   0.94597   0.00000  Uiso   1.00
O1325  O     0.27140   0.12683   0.90379   0.00000  Uiso   1.00
O1326  O     0.33136   0.08231   0.71197   0.00000  Uiso   1.00
O1327  O     0.40931   0.08520   0.71908   0.00000  Uiso   1.00
O1328  O     0.36974   0.01994   0.75775   0.00000  Uiso   1.00
O1329  O     0.45420   0.20419   0.79513   0.00000  Uiso   1.00
O1330  O     0.17524   0.40936   0.95344   0.00000  Uiso   1.00
O1331  O     0.17026   0.32995   0.93972   0.00000  Uiso   1.00
O1332  O     0.23180   0.37280   0.89992   0.00000  Uiso   1.00
O1333  O     0.33138   0.41768   0.95467   0.00000  Uiso   1.00
O1334  O     0.40934   0.41494   0.94757   0.00000  Uiso   1.00
O1335  O     0.36968   0.48015   0.90894   0.00000  Uiso   1.00
O1336  O     0.17543   0.09081   0.71324   0.00000  Uiso   1.00
O1337  O     0.17072   0.17022   0.72708   0.00000  Uiso   1.00
O1338  O     0.23206   0.12709   0.76689   0.00000  Uiso   1.00
O1339  O     0.16091   0.06875   0.95329   0.00000  Uiso   1.00
O1340  O     0.04581   0.29581   0.87154   0.00000  Uiso   1.00
O1341  O     0.08353   0.07243   0.94073   0.00000  Uiso   1.00
O1342  O     0.12624   0.01215   0.89828   0.00000  Uiso   1.00
O1343  O     0.32779   0.41857   0.71502   0.00000  Uiso   1.00
O1344  O     0.33524   0.33832   0.71996   0.00000  Uiso   1.00
O1345  O     0.27135   0.37382   0.76211   0.00000  Uiso   1.00
O1346  O     0.04581   0.29581   0.79513   0.00000  Uiso   1.00
O1347  O     0.45420   0.20419   0.87154   0.00000  Uiso   1.00
O1348  O     0.29581   0.45419   0.87154   0.00000  Uiso   1.00
S1349  S     0.37641   0.18553   0.74770   0.00000  Uiso   1.00
S1350  S     0.32262   0.12128   0.92097   0.00000  Uiso   1.00
S1351  S     0.36830   0.07380   0.74319   0.00000  Uiso   1.00
S1352  S     0.18081   0.37399   0.91862   0.00000  Uiso   1.00
S1353  S     0.36832   0.42628   0.92345   0.00000  Uiso   1.00
S1354  S     0.18109   0.12611   0.74812   0.00000  Uiso   1.00
S1355  S     0.12613   0.06398   0.91863   0.00000  Uiso   1.00
S1356  S     0.32273   0.37913   0.74552   0.00000  Uiso   1.00
S1357  S     0.07290   0.37102   0.92112   0.00000  Uiso   1.00
S1358  S     0.11791   0.32437   0.74290   0.00000  Uiso   1.00
S1359  S     0.43052   0.12426   0.91880   0.00000  Uiso   1.00
S1360  S     0.11778   0.17555   0.92388   0.00000  Uiso   1.00
S1361  S     0.43041   0.37519   0.74749   0.00000  Uiso   1.00
S1362  S     0.37647   0.31461   0.91897   0.00000  Uiso   1.00
S1363  S     0.07331   0.12956   0.74525   0.00000  Uiso   1.00
S1364  S     0.12598   0.43606   0.74810   0.00000  Uiso   1.00
Zn1365 Zn    0.00000   0.25000   0.88437   0.00000  Uiso   1.00
Zn1366 Zn    0.00000   0.25000   0.78229   0.00000  Uiso   1.00
Zn1367 Zn    0.25000   0.00000   0.88437   0.00000  Uiso   1.00
Zn1368 Zn    0.25000   0.00000   0.78229   0.00000  Uiso   1.00
C1369  C     0.56002   0.18981   0.83352   0.00000  Uiso   1.00
C1370  C     0.50031   0.21142   0.97635   0.00000  Uiso   1.00
C1371  C     0.99884   0.21141   0.69074   0.00000  Uiso   1.00
C1372  C     0.99883   0.28858   0.97591   0.00000  Uiso   1.00
C1373  C     0.75035   0.03859   0.69031   0.00000  Uiso   1.00
C1374  C     0.75031   0.46141   0.97635   0.00000  Uiso   1.00
C1375  C     0.74876   0.46141   0.69075   0.00000  Uiso   1.00
C1376  C     0.74880   0.03858   0.97591   0.00000  Uiso   1.00
C1377  C     0.88478   0.14704   0.79259   0.00000  Uiso   1.00
C1378  C     0.60628   0.36349   0.87340   0.00000  Uiso   1.00
C1379  C     0.61232   0.35777   0.79174   0.00000  Uiso   1.00
C1380  C     0.93996   0.31000   0.83332   0.00000  Uiso   1.00
C1381  C     0.89519   0.13473   0.87309   0.00000  Uiso   1.00
C1382  C     0.61232   0.14225   0.87494   0.00000  Uiso   1.00
C1383  C     0.89522   0.36527   0.79350   0.00000  Uiso   1.00
C1384  C     0.88483   0.35304   0.87403   0.00000  Uiso   1.00
C1385  C     0.60650   0.13675   0.79322   0.00000  Uiso   1.00
C1386  C     0.63462   0.39728   0.79268   0.00000  Uiso   1.00
C1387  C     0.85613   0.11362   0.87337   0.00000  Uiso   1.00
C1388  C     0.86247   0.10753   0.79176   0.00000  Uiso   1.00
C1389  C     0.64533   0.38461   0.87307   0.00000  Uiso   1.00
C1390  C     0.86256   0.39257   0.87485   0.00000  Uiso   1.00
C1391  C     0.93997   0.18999   0.83334   0.00000  Uiso   1.00
C1392  C     0.64551   0.11554   0.79361   0.00000  Uiso   1.00
C1393  C     0.63461   0.10273   0.87397   0.00000  Uiso   1.00
C1394  C     0.85623   0.38652   0.79322   0.00000  Uiso   1.00
C1395  C     0.59289   0.34385   0.83266   0.00000  Uiso   1.00
C1396  C     0.90663   0.15716   0.83305   0.00000  Uiso   1.00
C1397  C     0.90663   0.34286   0.83357   0.00000  Uiso   1.00
C1398  C     0.59299   0.15626   0.83399   0.00000  Uiso   1.00
C1399  C     0.84288   0.09383   0.83267   0.00000  Uiso   1.00
C1400  C     0.65662   0.40719   0.83307   0.00000  Uiso   1.00
C1401  C     0.65667   0.09286   0.83359   0.00000  Uiso   1.00
C1402  C     0.55999   0.31023   0.83315   0.00000  Uiso   1.00
C1403  C     0.84299   0.40629   0.83395   0.00000  Uiso   1.00
C1404  C     0.81002   0.43982   0.83351   0.00000  Uiso   1.00
C1405  C     0.68998   0.06001   0.83333   0.00000  Uiso   1.00
C1406  C     0.68997   0.44000   0.83334   0.00000  Uiso   1.00
C1407  C     0.80998   0.06022   0.83315   0.00000  Uiso   1.00
C1408  C     0.50032   0.28859   0.69031   0.00000  Uiso   1.00
H1409  H     0.50145   0.31952   0.70796   0.00000  Uiso   1.00
H1410  H     0.50758   0.39472   0.92770   0.00000  Uiso   1.00
H1411  H     0.61622   0.25449   0.72802   0.00000  Uiso   1.00
H1412  H     0.99764   0.10642   0.92382   0.00000  Uiso   1.00
H1413  H     0.61548   0.24539   0.93890   0.00000  Uiso   1.00
H1414  H     0.98239   0.39982   0.78871   0.00000  Uiso   1.00
H1415  H     0.88016   0.24348   0.92601   0.00000  Uiso   1.00
H1416  H     0.52216   0.09921   0.78385   0.00000  Uiso   1.00
H1417  H     0.62931   0.00725   0.74158   0.00000  Uiso   1.00
H1418  H     0.75717   0.14458   0.92749   0.00000  Uiso   1.00
H1419  H     0.86679   0.00380   0.72888   0.00000  Uiso   1.00
H1420  H     0.50142   0.18052   0.95865   0.00000  Uiso   1.00
H1421  H     0.74802   0.35649   0.92350   0.00000  Uiso   1.00
H1422  H     0.86607   0.49628   0.93774   0.00000  Uiso   1.00
H1423  H     0.74837   0.14334   0.74334   0.00000  Uiso   1.00
H1424  H     0.63007   0.49282   0.92514   0.00000  Uiso   1.00
H1425  H     0.77150   0.34919   0.78435   0.00000  Uiso   1.00
H1426  H     0.99676   0.18047   0.70868   0.00000  Uiso   1.00
H1427  H     0.99674   0.31949   0.95793   0.00000  Uiso   1.00
H1428  H     0.75158   0.06948   0.70799   0.00000  Uiso   1.00
H1429  H     0.75151   0.43051   0.95866   0.00000  Uiso   1.00
H1430  H     0.74660   0.43047   0.70869   0.00000  Uiso   1.00
H1431  H     0.74666   0.06949   0.95794   0.00000  Uiso   1.00
H1432  H     0.87935   0.25669   0.74071   0.00000  Uiso   1.00
N1433  N     0.50000   0.25000   0.95240   0.00000  Uiso   1.00
N1434  N     0.50000   0.25000   0.71427   0.00000  Uiso   1.00
N1435  N     0.75000   0.00000   0.95240   0.00000  Uiso   1.00
N1436  N     0.75000   0.00000   0.71427   0.00000  Uiso   1.00
O1437  O     0.54581   0.20419   0.87154   0.00000  Uiso   1.00
O1438  O     0.70420   0.04581   0.79513   0.00000  Uiso   1.00
O1439  O     0.70420   0.04581   0.87154   0.00000  Uiso   1.00
O1440  O     0.79581   0.45419   0.79513   0.00000  Uiso   1.00
O1441  O     0.70420   0.45419   0.79513   0.00000  Uiso   1.00
O1442  O     0.79581   0.04581   0.87154   0.00000  Uiso   1.00
O1443  O     0.79581   0.04581   0.79513   0.00000  Uiso   1.00
O1444  O     0.70420   0.45419   0.87154   0.00000  Uiso   1.00
O1445  O     0.91136   0.18067   0.71327   0.00000  Uiso   1.00
O1446  O     0.83394   0.17682   0.72543   0.00000  Uiso   1.00
O1447  O     0.87630   0.23747   0.76776   0.00000  Uiso   1.00
O1448  O     0.95420   0.29581   0.79513   0.00000  Uiso   1.00
O1449  O     0.57767   0.33163   0.95175   0.00000  Uiso   1.00
O1450  O     0.58599   0.41188   0.94631   0.00000  Uiso   1.00
O1451  O     0.52167   0.37679   0.90405   0.00000  Uiso   1.00
O1452  O     0.58087   0.33319   0.71190   0.00000  Uiso   1.00
O1453  O     0.65886   0.33590   0.71870   0.00000  Uiso   1.00
O1454  O     0.61935   0.27041   0.75701   0.00000  Uiso   1.00
O1455  O     0.92497   0.15986   0.95336   0.00000  Uiso   1.00
O1456  O     0.91981   0.08038   0.94014   0.00000  Uiso   1.00
O1457  O     0.98154   0.12281   0.90021   0.00000  Uiso   1.00
O1458  O     0.58072   0.16654   0.95481   0.00000  Uiso   1.00
O1459  O     0.95420   0.29581   0.87154   0.00000  Uiso   1.00
O1460  O     0.65871   0.16407   0.94811   0.00000  Uiso   1.00
O1461  O     0.61912   0.22956   0.90993   0.00000  Uiso   1.00
O1462  O     0.92450   0.33911   0.71352   0.00000  Uiso   1.00
O1463  O     0.92000   0.41872   0.72529   0.00000  Uiso   1.00
O1464  O     0.98167   0.37658   0.76527   0.00000  Uiso   1.00
O1465  O     0.91142   0.31957   0.95340   0.00000  Uiso   1.00
O1466  O     0.83400   0.32330   0.94123   0.00000  Uiso   1.00
O1467  O     0.87640   0.26263   0.89901   0.00000  Uiso   1.00
O1468  O     0.57828   0.16930   0.71513   0.00000  Uiso   1.00
O1469  O     0.58618   0.08906   0.71939   0.00000  Uiso   1.00
O1470  O     0.54581   0.20419   0.79513   0.00000  Uiso   1.00
O1471  O     0.52190   0.12378   0.76156   0.00000  Uiso   1.00
O1472  O     0.66067   0.43137   0.71332   0.00000  Uiso   1.00
O1473  O     0.58332   0.42754   0.72614   0.00000  Uiso   1.00
O1474  O     0.62610   0.48787   0.76849   0.00000  Uiso   1.00
O1475  O     0.82743   0.08206   0.95181   0.00000  Uiso   1.00
O1476  O     0.83557   0.16230   0.94597   0.00000  Uiso   1.00
O1477  O     0.77140   0.12683   0.90379   0.00000  Uiso   1.00
O1478  O     0.83136   0.08231   0.71197   0.00000  Uiso   1.00
O1479  O     0.90931   0.08520   0.71908   0.00000  Uiso   1.00
O1480  O     0.86974   0.01994   0.75775   0.00000  Uiso   1.00
O1481  O     0.95420   0.20419   0.79513   0.00000  Uiso   1.00
O1482  O     0.67524   0.40936   0.95344   0.00000  Uiso   1.00
O1483  O     0.67026   0.32995   0.93972   0.00000  Uiso   1.00
O1484  O     0.73180   0.37280   0.89992   0.00000  Uiso   1.00
O1485  O     0.83138   0.41768   0.95467   0.00000  Uiso   1.00
O1486  O     0.90934   0.41494   0.94757   0.00000  Uiso   1.00
O1487  O     0.86968   0.48015   0.90894   0.00000  Uiso   1.00
O1488  O     0.67543   0.09081   0.71324   0.00000  Uiso   1.00
O1489  O     0.67072   0.17022   0.72708   0.00000  Uiso   1.00
O1490  O     0.73206   0.12709   0.76689   0.00000  Uiso   1.00
O1491  O     0.66091   0.06875   0.95329   0.00000  Uiso   1.00
O1492  O     0.54581   0.29581   0.87154   0.00000  Uiso   1.00
O1493  O     0.58353   0.07243   0.94073   0.00000  Uiso   1.00
O1494  O     0.62624   0.01215   0.89828   0.00000  Uiso   1.00
O1495  O     0.82779   0.41857   0.71502   0.00000  Uiso   1.00
O1496  O     0.83524   0.33832   0.71996   0.00000  Uiso   1.00
O1497  O     0.77135   0.37382   0.76211   0.00000  Uiso   1.00
O1498  O     0.54581   0.29581   0.79513   0.00000  Uiso   1.00
O1499  O     0.95420   0.20419   0.87154   0.00000  Uiso   1.00
O1500  O     0.79581   0.45419   0.87154   0.00000  Uiso   1.00
S1501  S     0.87641   0.18553   0.74770   0.00000  Uiso   1.00
S1502  S     0.82262   0.12128   0.92097   0.00000  Uiso   1.00
S1503  S     0.86830   0.07380   0.74319   0.00000  Uiso   1.00
S1504  S     0.68081   0.37399   0.91862   0.00000  Uiso   1.00
S1505  S     0.86832   0.42628   0.92345   0.00000  Uiso   1.00
S1506  S     0.68109   0.12611   0.74812   0.00000  Uiso   1.00
S1507  S     0.62613   0.06398   0.91863   0.00000  Uiso   1.00
S1508  S     0.82273   0.37913   0.74552   0.00000  Uiso   1.00
S1509  S     0.57290   0.37102   0.92112   0.00000  Uiso   1.00
S1510  S     0.61791   0.32437   0.74290   0.00000  Uiso   1.00
S1511  S     0.93052   0.12426   0.91880   0.00000  Uiso   1.00
S1512  S     0.61778   0.17555   0.92388   0.00000  Uiso   1.00
S1513  S     0.93041   0.37519   0.74749   0.00000  Uiso   1.00
S1514  S     0.87647   0.31461   0.91897   0.00000  Uiso   1.00
S1515  S     0.57331   0.12956   0.74525   0.00000  Uiso   1.00
S1516  S     0.62598   0.43606   0.74810   0.00000  Uiso   1.00
Zn1517 Zn    0.50000   0.25000   0.88437   0.00000  Uiso   1.00
Zn1518 Zn    0.50000   0.25000   0.78229   0.00000  Uiso   1.00
Zn1519 Zn    0.75000   0.00000   0.88437   0.00000  Uiso   1.00
Zn1520 Zn    0.75000   0.00000   0.78229   0.00000  Uiso   1.00
C1521  C     0.06002   0.68981   0.83352   0.00000  Uiso   1.00
C1522  C     0.00031   0.71142   0.97635   0.00000  Uiso   1.00
C1523  C     0.49884   0.71141   0.69074   0.00000  Uiso   1.00
C1524  C     0.49883   0.78858   0.97591   0.00000  Uiso   1.00
C1525  C     0.25035   0.53859   0.69031   0.00000  Uiso   1.00
C1526  C     0.25031   0.96141   0.97635   0.00000  Uiso   1.00
C1527  C     0.24876   0.96141   0.69075   0.00000  Uiso   1.00
C1528  C     0.24880   0.53858   0.97591   0.00000  Uiso   1.00
C1529  C     0.38478   0.64704   0.79259   0.00000  Uiso   1.00
C1530  C     0.10628   0.86349   0.87340   0.00000  Uiso   1.00
C1531  C     0.11232   0.85777   0.79174   0.00000  Uiso   1.00
C1532  C     0.43996   0.81000   0.83332   0.00000  Uiso   1.00
C1533  C     0.39519   0.63473   0.87309   0.00000  Uiso   1.00
C1534  C     0.11232   0.64225   0.87494   0.00000  Uiso   1.00
C1535  C     0.39522   0.86527   0.79350   0.00000  Uiso   1.00
C1536  C     0.38483   0.85304   0.87403   0.00000  Uiso   1.00
C1537  C     0.10650   0.63675   0.79322   0.00000  Uiso   1.00
C1538  C     0.13462   0.89728   0.79268   0.00000  Uiso   1.00
C1539  C     0.35613   0.61362   0.87337   0.00000  Uiso   1.00
C1540  C     0.36247   0.60753   0.79176   0.00000  Uiso   1.00
C1541  C     0.14533   0.88461   0.87307   0.00000  Uiso   1.00
C1542  C     0.36256   0.89257   0.87485   0.00000  Uiso   1.00
C1543  C     0.43997   0.68999   0.83334   0.00000  Uiso   1.00
C1544  C     0.14551   0.61554   0.79361   0.00000  Uiso   1.00
C1545  C     0.13461   0.60273   0.87397   0.00000  Uiso   1.00
C1546  C     0.35623   0.88652   0.79322   0.00000  Uiso   1.00
C1547  C     0.09289   0.84385   0.83266   0.00000  Uiso   1.00
C1548  C     0.40663   0.65716   0.83305   0.00000  Uiso   1.00
C1549  C     0.40663   0.84286   0.83357   0.00000  Uiso   1.00
C1550  C     0.09299   0.65626   0.83399   0.00000  Uiso   1.00
C1551  C     0.34288   0.59383   0.83267   0.00000  Uiso   1.00
C1552  C     0.15662   0.90719   0.83307   0.00000  Uiso   1.00
C1553  C     0.15667   0.59286   0.83359   0.00000  Uiso   1.00
C1554  C     0.05999   0.81023   0.83315   0.00000  Uiso   1.00
C1555  C     0.34299   0.90629   0.83395   0.00000  Uiso   1.00
C1556  C     0.31002   0.93982   0.83351   0.00000  Uiso   1.00
C1557  C     0.18998   0.56001   0.83333   0.00000  Uiso   1.00
C1558  C     0.18997   0.94000   0.83334   0.00000  Uiso   1.00
C1559  C     0.30998   0.56022   0.83315   0.00000  Uiso   1.00
C1560  C     0.00032   0.78859   0.69031   0.00000  Uiso   1.00
H1561  H     0.00145   0.81952   0.70796   0.00000  Uiso   1.00
H1562  H     0.00758   0.89472   0.92770   0.00000  Uiso   1.00
H1563  H     0.11622   0.75449   0.72802   0.00000  Uiso   1.00
H1564  H     0.49764   0.60642   0.92382   0.00000  Uiso   1.00
H1565  H     0.11548   0.74539   0.93890   0.00000  Uiso   1.00
H1566  H     0.48239   0.89982   0.78871   0.00000  Uiso   1.00
H1567  H     0.38016   0.74348   0.92601   0.00000  Uiso   1.00
H1568  H     0.02216   0.59921   0.78385   0.00000  Uiso   1.00
H1569  H     0.12931   0.50725   0.74158   0.00000  Uiso   1.00
H1570  H     0.25717   0.64458   0.92749   0.00000  Uiso   1.00
H1571  H     0.36679   0.50380   0.72888   0.00000  Uiso   1.00
H1572  H     0.00142   0.68052   0.95865   0.00000  Uiso   1.00
H1573  H     0.24802   0.85649   0.92350   0.00000  Uiso   1.00
H1574  H     0.36607   0.99628   0.93774   0.00000  Uiso   1.00
H1575  H     0.24837   0.64334   0.74334   0.00000  Uiso   1.00
H1576  H     0.13007   0.99282   0.92514   0.00000  Uiso   1.00
H1577  H     0.27150   0.84919   0.78435   0.00000  Uiso   1.00
H1578  H     0.49676   0.68047   0.70868   0.00000  Uiso   1.00
H1579  H     0.49674   0.81949   0.95793   0.00000  Uiso   1.00
H1580  H     0.25158   0.56948   0.70799   0.00000  Uiso   1.00
H1581  H     0.25151   0.93051   0.95866   0.00000  Uiso   1.00
H1582  H     0.24660   0.93047   0.70869   0.00000  Uiso   1.00
H1583  H     0.24666   0.56949   0.95794   0.00000  Uiso   1.00
H1584  H     0.37935   0.75669   0.74071   0.00000  Uiso   1.00
N1585  N     0.00000   0.75000   0.95240   0.00000  Uiso   1.00
N1586  N     0.00000   0.75000   0.71427   0.00000  Uiso   1.00
N1587  N     0.25000   0.50000   0.95240   0.00000  Uiso   1.00
N1588  N     0.25000   0.50000   0.71427   0.00000  Uiso   1.00
O1589  O     0.04581   0.70419   0.87154   0.00000  Uiso   1.00
O1590  O     0.20420   0.54581   0.79513   0.00000  Uiso   1.00
O1591  O     0.20420   0.54581   0.87154   0.00000  Uiso   1.00
O1592  O     0.29581   0.95419   0.79513   0.00000  Uiso   1.00
O1593  O     0.20420   0.95419   0.79513   0.00000  Uiso   1.00
O1594  O     0.29581   0.54581   0.87154   0.00000  Uiso   1.00
O1595  O     0.29581   0.54581   0.79513   0.00000  Uiso   1.00
O1596  O     0.20420   0.95419   0.87154   0.00000  Uiso   1.00
O1597  O     0.41136   0.68067   0.71327   0.00000  Uiso   1.00
O1598  O     0.33394   0.67682   0.72543   0.00000  Uiso   1.00
O1599  O     0.37630   0.73747   0.76776   0.00000  Uiso   1.00
O1600  O     0.45420   0.79581   0.79513   0.00000  Uiso   1.00
O1601  O     0.07767   0.83163   0.95175   0.00000  Uiso   1.00
O1602  O     0.08599   0.91188   0.94631   0.00000  Uiso   1.00
O1603  O     0.02167   0.87679   0.90405   0.00000  Uiso   1.00
O1604  O     0.08087   0.83319   0.71190   0.00000  Uiso   1.00
O1605  O     0.15886   0.83590   0.71870   0.00000  Uiso   1.00
O1606  O     0.11935   0.77041   0.75701   0.00000  Uiso   1.00
O1607  O     0.42497   0.65986   0.95336   0.00000  Uiso   1.00
O1608  O     0.41981   0.58038   0.94014   0.00000  Uiso   1.00
O1609  O     0.48154   0.62281   0.90021   0.00000  Uiso   1.00
O1610  O     0.08072   0.66654   0.95481   0.00000  Uiso   1.00
O1611  O     0.45420   0.79581   0.87154   0.00000  Uiso   1.00
O1612  O     0.15871   0.66407   0.94811   0.00000  Uiso   1.00
O1613  O     0.11912   0.72956   0.90993   0.00000  Uiso   1.00
O1614  O     0.42450   0.83911   0.71352   0.00000  Uiso   1.00
O1615  O     0.42000   0.91872   0.72529   0.00000  Uiso   1.00
O1616  O     0.48167   0.87658   0.76527   0.00000  Uiso   1.00
O1617  O     0.41142   0.81957   0.95340   0.00000  Uiso   1.00
O1618  O     0.33400   0.82330   0.94123   0.00000  Uiso   1.00
O1619  O     0.37640   0.76263   0.89901   0.00000  Uiso   1.00
O1620  O     0.07828   0.66930   0.71513   0.00000  Uiso   1.00
O1621  O     0.08618   0.58906   0.71939   0.00000  Uiso   1.00
O1622  O     0.04581   0.70419   0.79513   0.00000  Uiso   1.00
O1623  O     0.02190   0.62378   0.76156   0.00000  Uiso   1.00
O1624  O     0.16067   0.93137   0.71332   0.00000  Uiso   1.00
O1625  O     0.08332   0.92754   0.72614   0.00000  Uiso   1.00
O1626  O     0.12610   0.98787   0.76849   0.00000  Uiso   1.00
O1627  O     0.32743   0.58206   0.95181   0.00000  Uiso   1.00
O1628  O     0.33557   0.66230   0.94597   0.00000  Uiso   1.00
O1629  O     0.27140   0.62683   0.90379   0.00000  Uiso   1.00
O1630  O     0.33136   0.58231   0.71197   0.00000  Uiso   1.00
O1631  O     0.40931   0.58520   0.71908   0.00000  Uiso   1.00
O1632  O     0.36974   0.51994   0.75775   0.00000  Uiso   1.00
O1633  O     0.45420   0.70419   0.79513   0.00000  Uiso   1.00
O1634  O     0.17524   0.90936   0.95344   0.00000  Uiso   1.00
O1635  O     0.17026   0.82995   0.93972   0.00000  Uiso   1.00
O1636  O     0.23180   0.87280   0.89992   0.00000  Uiso   1.00
O1637  O     0.33138   0.91768   0.95467   0.00000  Uiso   1.00
O1638  O     0.40934   0.91494   0.94757   0.00000  Uiso   1.00
O1639  O     0.36968   0.98015   0.90894   0.00000  Uiso   1.00
O1640  O     0.17543   0.59081   0.71324   0.00000  Uiso   1.00
O1641  O     0.17072   0.67022   0.72708   0.00000  Uiso   1.00
O1642  O     0.23206   0.62709   0.76689   0.00000  Uiso   1.00
O1643  O     0.16091   0.56875   0.95329   0.00000  Uiso   1.00
O1644  O     0.04581   0.79581   0.87154   0.00000  Uiso   1.00
O1645  O     0.08353   0.57243   0.94073   0.00000  Uiso   1.00
O1646  O     0.12624   0.51215   0.89828   0.00000  Uiso   1.00
O1647  O     0.32779   0.91857   0.71502   0.00000  Uiso   1.00
O1648  O     0.33524   0.83832   0.71996   0.00000  Uiso   1.00
O1649  O     0.27135   0.87382   0.76211   0.00000  Uiso   1.00
O1650  O     0.04581   0.79581   0.79513   0.00000  Uiso   1.00
O1651  O     0.45420   0.70419   0.87154   0.00000  Uiso   1.00
O1652  O     0.29581   0.95419   0.87154   0.00000  Uiso   1.00
S1653  S     0.37641   0.68553   0.74770   0.00000  Uiso   1.00
S1654  S     0.32262   0.62128   0.92097   0.00000  Uiso   1.00
S1655  S     0.36830   0.57380   0.74319   0.00000  Uiso   1.00
S1656  S     0.18081   0.87399   0.91862   0.00000  Uiso   1.00
S1657  S     0.36832   0.92628   0.92345   0.00000  Uiso   1.00
S1658  S     0.18109   0.62611   0.74812   0.00000  Uiso   1.00
S1659  S     0.12613   0.56398   0.91863   0.00000  Uiso   1.00
S1660  S     0.32273   0.87913   0.74552   0.00000  Uiso   1.00
S1661  S     0.07290   0.87102   0.92112   0.00000  Uiso   1.00
S1662  S     0.11791   0.82437   0.74290   0.00000  Uiso   1.00
S1663  S     0.43052   0.62426   0.91880   0.00000  Uiso   1.00
S1664  S     0.11778   0.67555   0.92388   0.00000  Uiso   1.00
S1665  S     0.43041   0.87519   0.74749   0.00000  Uiso   1.00
S1666  S     0.37647   0.81461   0.91897   0.00000  Uiso   1.00
S1667  S     0.07331   0.62956   0.74525   0.00000  Uiso   1.00
S1668  S     0.12598   0.93606   0.74810   0.00000  Uiso   1.00
Zn1669 Zn    0.00000   0.75000   0.88437   0.00000  Uiso   1.00
Zn1670 Zn    0.00000   0.75000   0.78229   0.00000  Uiso   1.00
Zn1671 Zn    0.25000   0.50000   0.88437   0.00000  Uiso   1.00
Zn1672 Zn    0.25000   0.50000   0.78229   0.00000  Uiso   1.00
C1673  C     0.56002   0.68981   0.83352   0.00000  Uiso   1.00
C1674  C     0.50031   0.71142   0.97635   0.00000  Uiso   1.00
C1675  C     0.99884   0.71141   0.69074   0.00000  Uiso   1.00
C1676  C     0.99883   0.78858   0.97591   0.00000  Uiso   1.00
C1677  C     0.75035   0.53859   0.69031   0.00000  Uiso   1.00
C1678  C     0.75031   0.96141   0.97635   0.00000  Uiso   1.00
C1679  C     0.74876   0.96141   0.69075   0.00000  Uiso   1.00
C1680  C     0.74880   0.53858   0.97591   0.00000  Uiso   1.00
C1681  C     0.88478   0.64704   0.79259   0.00000  Uiso   1.00
C1682  C     0.60628   0.86349   0.87340   0.00000  Uiso   1.00
C1683  C     0.61232   0.85777   0.79174   0.00000  Uiso   1.00
C1684  C     0.93996   0.81000   0.83332   0.00000  Uiso   1.00
C1685  C     0.89519   0.63473   0.87309   0.00000  Uiso   1.00
C1686  C     0.61232   0.64225   0.87494   0.00000  Uiso   1.00
C1687  C     0.89522   0.86527   0.79350   0.00000  Uiso   1.00
C1688  C     0.88483   0.85304   0.87403   0.00000  Uiso   1.00
C1689  C     0.60650   0.63675   0.79322   0.00000  Uiso   1.00
C1690  C     0.63462   0.89728   0.79268   0.00000  Uiso   1.00
C1691  C     0.85613   0.61362   0.87337   0.00000  Uiso   1.00
C1692  C     0.86247   0.60753   0.79176   0.00000  Uiso   1.00
C1693  C     0.64533   0.88461   0.87307   0.00000  Uiso   1.00
C1694  C     0.86256   0.89257   0.87485   0.00000  Uiso   1.00
C1695  C     0.93997   0.68999   0.83334   0.00000  Uiso   1.00
C1696  C     0.64551   0.61554   0.79361   0.00000  Uiso   1.00
C1697  C     0.63461   0.60273   0.87397   0.00000  Uiso   1.00
C1698  C     0.85623   0.88652   0.79322   0.00000  Uiso   1.00
C1699  C     0.59289   0.84385   0.83266   0.00000  Uiso   1.00
C1700  C     0.90663   0.65716   0.83305   0.00000  Uiso   1.00
C1701  C     0.90663   0.84286   0.83357   0.00000  Uiso   1.00
C1702  C     0.59299   0.65626   0.83399   0.00000  Uiso   1.00
C1703  C     0.84288   0.59383   0.83267   0.00000  Uiso   1.00
C1704  C     0.65662   0.90719   0.83307   0.00000  Uiso   1.00
C1705  C     0.65667   0.59286   0.83359   0.00000  Uiso   1.00
C1706  C     0.55999   0.81023   0.83315   0.00000  Uiso   1.00
C1707  C     0.84299   0.90629   0.83395   0.00000  Uiso   1.00
C1708  C     0.81002   0.93982   0.83351   0.00000  Uiso   1.00
C1709  C     0.68998   0.56001   0.83333   0.00000  Uiso   1.00
C1710  C     0.68997   0.94000   0.83334   0.00000  Uiso   1.00
C1711  C     0.80998   0.56022   0.83315   0.00000  Uiso   1.00
C1712  C     0.50032   0.78859   0.69031   0.00000  Uiso   1.00
H1713  H     0.50145   0.81952   0.70796   0.00000  Uiso   1.00
H1714  H     0.50758   0.89472   0.92770   0.00000  Uiso   1.00
H1715  H     0.61622   0.75449   0.72802   0.00000  Uiso   1.00
H1716  H     0.99764   0.60642   0.92382   0.00000  Uiso   1.00
H1717  H     0.61548   0.74539   0.93890   0.00000  Uiso   1.00
H1718  H     0.98239   0.89982   0.78871   0.00000  Uiso   1.00
H1719  H     0.88016   0.74348   0.92601   0.00000  Uiso   1.00
H1720  H     0.52216   0.59921   0.78385   0.00000  Uiso   1.00
H1721  H     0.62931   0.50725   0.74158   0.00000  Uiso   1.00
H1722  H     0.75717   0.64458   0.92749   0.00000  Uiso   1.00
H1723  H     0.86679   0.50380   0.72888   0.00000  Uiso   1.00
H1724  H     0.50142   0.68052   0.95865   0.00000  Uiso   1.00
H1725  H     0.74802   0.85649   0.92350   0.00000  Uiso   1.00
H1726  H     0.86607   0.99628   0.93774   0.00000  Uiso   1.00
H1727  H     0.74837   0.64334   0.74334   0.00000  Uiso   1.00
H1728  H     0.63007   0.99282   0.92514   0.00000  Uiso   1.00
H1729  H     0.77150   0.84919   0.78435   0.00000  Uiso   1.00
H1730  H     0.99676   0.68047   0.70868   0.00000  Uiso   1.00
H1731  H     0.99674   0.81949   0.95793   0.00000  Uiso   1.00
H1732  H     0.75158   0.56948   0.70799   0.00000  Uiso   1.00
H1733  H     0.75151   0.93051   0.95866   0.00000  Uiso   1.00
H1734  H     0.74660   0.93047   0.70869   0.00000  Uiso   1.00
H1735  H     0.74666   0.56949   0.95794   0.00000  Uiso   1.00
H1736  H     0.87935   0.75669   0.74071   0.00000  Uiso   1.00
N1737  N     0.50000   0.75000   0.95240   0.00000  Uiso   1.00
N1738  N     0.50000   0.75000   0.71427   0.00000  Uiso   1.00
N1739  N     0.75000   0.50000   0.95240   0.00000  Uiso   1.00
N1740  N     0.75000   0.50000   0.71427   0.00000  Uiso   1.00
O1741  O     0.54581   0.70419   0.87154   0.00000  Uiso   1.00
O1742  O     0.70420   0.54581   0.79513   0.00000  Uiso   1.00
O1743  O     0.70420   0.54581   0.87154   0.00000  Uiso   1.00
O1744  O     0.79581   0.95419   0.79513   0.00000  Uiso   1.00
O1745  O     0.70420   0.95419   0.79513   0.00000  Uiso   1.00
O1746  O     0.79581   0.54581   0.87154   0.00000  Uiso   1.00
O1747  O     0.79581   0.54581   0.79513   0.00000  Uiso   1.00
O1748  O     0.70420   0.95419   0.87154   0.00000  Uiso   1.00
O1749  O     0.91136   0.68067   0.71327   0.00000  Uiso   1.00
O1750  O     0.83394   0.67682   0.72543   0.00000  Uiso   1.00
O1751  O     0.87630   0.73747   0.76776   0.00000  Uiso   1.00
O1752  O     0.95420   0.79581   0.79513   0.00000  Uiso   1.00
O1753  O     0.57767   0.83163   0.95175   0.00000  Uiso   1.00
O1754  O     0.58599   0.91188   0.94631   0.00000  Uiso   1.00
O1755  O     0.52167   0.87679   0.90405   0.00000  Uiso   1.00
O1756  O     0.58087   0.83319   0.71190   0.00000  Uiso   1.00
O1757  O     0.65886   0.83590   0.71870   0.00000  Uiso   1.00
O1758  O     0.61935   0.77041   0.75701   0.00000  Uiso   1.00
O1759  O     0.92497   0.65986   0.95336   0.00000  Uiso   1.00
O1760  O     0.91981   0.58038   0.94014   0.00000  Uiso   1.00
O1761  O     0.98154   0.62281   0.90021   0.00000  Uiso   1.00
O1762  O     0.58072   0.66654   0.95481   0.00000  Uiso   1.00
O1763  O     0.95420   0.79581   0.87154   0.00000  Uiso   1.00
O1764  O     0.65871   0.66407   0.94811   0.00000  Uiso   1.00
O1765  O     0.61912   0.72956   0.90993   0.00000  Uiso   1.00
O1766  O     0.92450   0.83911   0.71352   0.00000  Uiso   1.00
O1767  O     0.92000   0.91872   0.72529   0.00000  Uiso   1.00
O1768  O     0.98167   0.87658   0.76527   0.00000  Uiso   1.00
O1769  O     0.91142   0.81957   0.95340   0.00000  Uiso   1.00
O1770  O     0.83400   0.82330   0.94123   0.00000  Uiso   1.00
O1771  O     0.87640   0.76263   0.89901   0.00000  Uiso   1.00
O1772  O     0.57828   0.66930   0.71513   0.00000  Uiso   1.00
O1773  O     0.58618   0.58906   0.71939   0.00000  Uiso   1.00
O1774  O     0.54581   0.70419   0.79513   0.00000  Uiso   1.00
O1775  O     0.52190   0.62378   0.76156   0.00000  Uiso   1.00
O1776  O     0.66067   0.93137   0.71332   0.00000  Uiso   1.00
O1777  O     0.58332   0.92754   0.72614   0.00000  Uiso   1.00
O1778  O     0.62610   0.98787   0.76849   0.00000  Uiso   1.00
O1779  O     0.82743   0.58206   0.95181   0.00000  Uiso   1.00
O1780  O     0.83557   0.66230   0.94597   0.00000  Uiso   1.00
O1781  O     0.77140   0.62683   0.90379   0.00000  Uiso   1.00
O1782  O     0.83136   0.58231   0.71197   0.00000  Uiso   1.00
O1783  O     0.90931   0.58520   0.71908   0.00000  Uiso   1.00
O1784  O     0.86974   0.51994   0.75775   0.00000  Uiso   1.00
O1785  O     0.95420   0.70419   0.79513   0.00000  Uiso   1.00
O1786  O     0.67524   0.90936   0.95344   0.00000  Uiso   1.00
O1787  O     0.67026   0.82995   0.93972   0.00000  Uiso   1.00
O1788  O     0.73180   0.87280   0.89992   0.00000  Uiso   1.00
O1789  O     0.83138   0.91768   0.95467   0.00000  Uiso   1.00
O1790  O     0.90934   0.91494   0.94757   0.00000  Uiso   1.00
O1791  O     0.86968   0.98015   0.90894   0.00000  Uiso   1.00
O1792  O     0.67543   0.59081   0.71324   0.00000  Uiso   1.00
O1793  O     0.67072   0.67022   0.72708   0.00000  Uiso   1.00
O1794  O     0.73206   0.62709   0.76689   0.00000  Uiso   1.00
O1795  O     0.66091   0.56875   0.95329   0.00000  Uiso   1.00
O1796  O     0.54581   0.79581   0.87154   0.00000  Uiso   1.00
O1797  O     0.58353   0.57243   0.94073   0.00000  Uiso   1.00
O1798  O     0.62624   0.51215   0.89828   0.00000  Uiso   1.00
O1799  O     0.82779   0.91857   0.71502   0.00000  Uiso   1.00
O1800  O     0.83524   0.83832   0.71996   0.00000  Uiso   1.00
O1801  O     0.77135   0.87382   0.76211   0.00000  Uiso   1.00
O1802  O     0.54581   0.79581   0.79513   0.00000  Uiso   1.00
O1803  O     0.95420   0.70419   0.87154   0.00000  Uiso   1.00
O1804  O     0.79581   0.95419   0.87154   0.00000  Uiso   1.00
S1805  S     0.87641   0.68553   0.74770   0.00000  Uiso   1.00
S1806  S     0.82262   0.62128   0.92097   0.00000  Uiso   1.00
S1807  S     0.86830   0.57380   0.74319   0.00000  Uiso   1.00
S1808  S     0.68081   0.87399   0.91862   0.00000  Uiso   1.00
S1809  S     0.86832   0.92628   0.92345   0.00000  Uiso   1.00
S1810  S     0.68109   0.62611   0.74812   0.00000  Uiso   1.00
S1811  S     0.62613   0.56398   0.91863   0.00000  Uiso   1.00
S1812  S     0.82273   0.87913   0.74552   0.00000  Uiso   1.00
S1813  S     0.57290   0.87102   0.92112   0.00000  Uiso   1.00
S1814  S     0.61791   0.82437   0.74290   0.00000  Uiso   1.00
S1815  S     0.93052   0.62426   0.91880   0.00000  Uiso   1.00
S1816  S     0.61778   0.67555   0.92388   0.00000  Uiso   1.00
S1817  S     0.93041   0.87519   0.74749   0.00000  Uiso   1.00
S1818  S     0.87647   0.81461   0.91897   0.00000  Uiso   1.00
S1819  S     0.57331   0.62956   0.74525   0.00000  Uiso   1.00
S1820  S     0.62598   0.93606   0.74810   0.00000  Uiso   1.00
Zn1821 Zn    0.50000   0.75000   0.88437   0.00000  Uiso   1.00
Zn1822 Zn    0.50000   0.75000   0.78229   0.00000  Uiso   1.00
Zn1823 Zn    0.75000   0.50000   0.88437   0.00000  Uiso   1.00
Zn1824 Zn    0.75000   0.50000   0.78229   0.00000  Uiso   1.00
loop_
_geom_bond_atom_site_label_1
_geom_bond_atom_site_label_2
_geom_bond_distance
_geom_bond_site_symmetry_2
_ccdc_geom_bond_type
C1     O69     1.287   .     A
C1     C30     1.445   .     S
C1     O102    1.292   .     A
C2     N65     1.361   .     A
C2     H52     1.074   .     S
C2     C763    1.412   1_455 S
C3     H58     1.075   .     S
C3     C1370   1.412   1_554 S
C3     N218    1.363   .     S
C4     H59     1.074   .     S
C4     C800    1.412   .     S
C4     N217    1.363   .     S
C5     H60     1.074   .     S
C5     C1224   1.412   1_554 S
C5     N68     1.362   .     S
C6     H61     1.075   .     S
C6     N371    1.362   .     A
C6     C615    1.412   .     S
C7     N372    1.363   .     A
C7     H62     1.075   .     S
C7     C1222   1.412   1_554 S
C8     H63     1.075   .     S
C8     C613    1.412   .     S
C8     N67     1.363   .     S
C9     C20     1.383   .     A
C9     C28     1.412   .     A
C9     S133    1.779   .     S
C10    C27     1.410   .     A
C10    C21     1.375   .     A
C10    S141    1.769   .     S
C11    C18     1.383   .     A
C11    C27     1.415   .     A
C11    S142    1.776   .     S
C12    C29     1.438   .     S
C12    O91     1.286   .     A
C12    O80     1.290   .     A
C13    C28     1.407   .     A
C13    C19     1.375   .     A
C13    S143    1.771   .     S
C14    C30     1.415   .     A
C14    S144    1.777   .     S
C14    C25     1.383   .     A
C15    C29     1.407   .     A
C15    S145    1.772   .     S
C15    C26     1.375   .     A
C16    S146    1.779   .     S
C16    C22     1.383   .     A
C16    C29     1.412   .     A
C17    S147    1.770   .     S
C17    C30     1.410   .     A
C17    C24     1.375   .     A
C18    C32     1.411   .     A
C18    S148    1.780   .     S
C19    S134    1.769   .     S
C19    C31     1.410   .     A
C20    S135    1.776   .     S
C20    C31     1.415   .     A
C21    S136    1.771   .     S
C21    C32     1.407   .     A
C22    S137    1.776   .     S
C22    C35     1.415   .     A
C23    O113    1.285   .     A
C23    O131    1.290   .     A
C23    C28     1.438   .     S
C24    S138    1.771   .     S
C24    C33     1.407   .     A
C25    S139    1.780   .     S
C25    C33     1.412   .     A
C26    S140    1.771   .     S
C26    C35     1.410   .     A
C27    C34     1.445   .     S
C31    C39     1.444   .     S
C32    C38     1.437   .     S
C33    C37     1.437   .     S
C34    O124    1.292   .     A
C34    O130    1.287   .     A
C35    C36     1.444   .     S
C36    O132    1.287   .     A
C36    O72     1.291   .     A
C37    O70     1.290   .     A
C37    O71     1.285   .     A
C38    O76     1.290   .     A
C38    O73     1.285   .     A
C39    O74     1.291   .     A
C39    O75     1.287   .     A
C40    N66     1.362   .     A
C40    H41     1.075   .     S
C40    C1372   1.412   1_454 S
H42    O83     0.991   .     S
H43    O86     0.991   .     S
H44    O89     0.990   .     S
H45    O93     0.991   .     S
H46    O96     0.991   .     S
H47    O99     0.990   .     S
H48    O103    0.991   .     S
H49    O410    0.990   1_545 S
H50    O109    0.991   .     S
H51    O112    0.991   .     S
H53    O116    0.990   .     S
H54    O119    0.991   .     S
H55    O122    0.990   .     S
H56    O430    0.990   .     S
H57    O129    0.991   .     S
H64    O79     0.990   .     S
N65    Zn149   2.012   .     S
N65    C156    1.363   1_455 S
N66    C155    1.363   1_455 S
N66    Zn150   2.012   .     S
N67    Zn151   2.012   .     S
N67    C310    1.362   1_545 A
N68    Zn152   2.012   .     S
N68    C311    1.363   1_545 A
O69    Zn149   2.027   .     S
O70    Zn152   2.027   .     S
O71    Zn151   2.024   .     S
O72    Zn456   2.024   .     S
O73    Zn456   2.024   .     S
O74    Zn151   2.024   .     S
O75    Zn152   2.027   .     S
O76    Zn455   2.027   .     S
O77    S133    1.499   .     D
O78    S133    1.503   .     D
O79    S133    1.683   .     S
O80    Zn302   2.027   .     S
O81    S141    1.499   .     D
O82    S141    1.504   .     D
O83    S141    1.684   .     S
O84    S142    1.497   .     D
O85    S142    1.503   .     D
O86    S142    1.683   .     S
O87    S143    1.499   .     D
O88    S143    1.504   .     D
O89    S143    1.684   .     S
O90    S144    1.498   .     D
O91    Zn301   2.024   .     S
O92    S144    1.503   .     D
O93    S144    1.683   .     S
O94    S145    1.499   .     D
O95    S145    1.503   .     D
O96    S145    1.683   .     S
O97    S146    1.499   .     D
O98    S146    1.503   .     D
O99    S146    1.683   .     S
O100   S147    1.500   .     D
O101   S147    1.503   .     D
O102   Zn150   2.024   .     S
O103   S147    1.683   .     S
O104   S148    1.500   .     D
O105   S148    1.503   .     D
O106   S148    1.683   .     S
O106   H353    0.990   .     S
O107   S134    1.499   .     D
O108   S134    1.504   .     D
O109   S134    1.684   .     S
O110   S135    1.498   .     D
O111   S135    1.503   .     D
O112   S135    1.683   .     S
O113   Zn302   2.024   .     S
O114   S136    1.500   .     D
O115   S136    1.504   .     D
O116   S136    1.684   .     S
O117   S137    1.498   .     D
O118   S137    1.503   .     D
O119   S137    1.683   .     S
O120   S138    1.500   .     D
O121   S138    1.504   .     D
O122   S138    1.684   .     S
O123   S139    1.500   .     D
O124   Zn149   2.024   .     S
O125   S139    1.503   .     D
O126   S139    1.683   .     S
O126   H360    0.990   1_545 S
O127   S140    1.499   .     D
O128   S140    1.503   .     D
O129   S140    1.683   .     S
O130   Zn150   2.027   .     S
O131   Zn301   2.027   .     S
O132   Zn455   2.027   .     S
Zn149  O283    2.027   1_455 S
Zn149  O243    2.024   1_455 S
Zn150  O232    2.027   1_455 S
Zn150  O265    2.024   1_455 S
Zn151  O380    2.027   1_545 S
Zn151  O436    2.027   1_545 S
Zn152  O376    2.024   1_545 S
Zn152  O377    2.024   1_545 S
C153   O221    1.287   .     A
C153   C182    1.445   .     S
C153   O254    1.292   .     A
C154   N217    1.361   .     A
C154   H204    1.074   .     S
C154   C611    1.412   .     S
C155   H210    1.075   .     S
C155   C1218   1.412   1_654 S
C155   N66     1.363   1_655 S
C156   H211    1.074   .     S
C156   C648    1.412   1_655 S
C156   N65     1.363   1_655 S
C157   H212    1.074   .     S
C157   C1376   1.412   1_554 S
C157   N220    1.362   .     S
C158   H213    1.075   .     S
C158   N523    1.362   .     A
C158   C767    1.412   .     S
C159   N524    1.363   .     A
C159   H214    1.075   .     S
C159   C1374   1.412   1_554 S
C160   H215    1.075   .     S
C160   C765    1.412   .     S
C160   N219    1.363   .     S
C161   C172    1.383   .     A
C161   C180    1.412   .     A
C161   S285    1.779   .     S
C162   C179    1.410   .     A
C162   C173    1.375   .     A
C162   S293    1.769   .     S
C163   C170    1.383   .     A
C163   C179    1.415   .     A
C163   S294    1.776   .     S
C164   C181    1.438   .     S
C164   O243    1.286   .     A
C164   O232    1.290   .     A
C165   C180    1.407   .     A
C165   C171    1.375   .     A
C165   S295    1.771   .     S
C166   C182    1.415   .     A
C166   S296    1.777   .     S
C166   C177    1.383   .     A
C167   C181    1.407   .     A
C167   S297    1.772   .     S
C167   C178    1.375   .     A
C168   S298    1.779   .     S
C168   C174    1.383   .     A
C168   C181    1.412   .     A
C169   S299    1.770   .     S
C169   C182    1.410   .     A
C169   C176    1.375   .     A
C170   C184    1.411   .     A
C170   S300    1.780   .     S
C171   S286    1.769   .     S
C171   C183    1.410   .     A
C172   S287    1.776   .     S
C172   C183    1.415   .     A
C173   S288    1.771   .     S
C173   C184    1.407   .     A
C174   S289    1.776   .     S
C174   C187    1.415   .     A
C175   O265    1.285   .     A
C175   O283    1.290   .     A
C175   C180    1.438   .     S
C176   S290    1.771   .     S
C176   C185    1.407   .     A
C177   S291    1.780   .     S
C177   C185    1.412   .     A
C178   S292    1.771   .     S
C178   C187    1.410   .     A
C179   C186    1.445   .     S
C183   C191    1.444   .     S
C184   C190    1.437   .     S
C185   C189    1.437   .     S
C186   O276    1.292   .     A
C186   O282    1.287   .     A
C187   C188    1.444   .     S
C188   O284    1.287   .     A
C188   O224    1.291   .     A
C189   O222    1.290   .     A
C189   O223    1.285   .     A
C190   O228    1.290   .     A
C190   O225    1.285   .     A
C191   O226    1.291   .     A
C191   O227    1.287   .     A
C192   N218    1.362   .     A
C192   H193    1.075   .     S
C192   C1220   1.412   1_554 S
H194   O235    0.991   .     S
H195   O238    0.991   .     S
H196   O241    0.990   .     S
H197   O245    0.991   .     S
H198   O248    0.991   .     S
H199   O251    0.990   .     S
H200   O255    0.991   .     S
H201   O562    0.990   1_545 S
H202   O261    0.991   .     S
H203   O264    0.991   .     S
H205   O268    0.990   .     S
H206   O271    0.991   .     S
H207   O274    0.990   .     S
H208   O582    0.990   .     S
H209   O281    0.991   .     S
H216   O231    0.990   .     S
N217   Zn301   2.012   .     S
N218   Zn302   2.012   .     S
N219   Zn303   2.012   .     S
N219   C462    1.362   1_545 A
N220   Zn304   2.012   .     S
N220   C463    1.363   1_545 A
O221   Zn301   2.027   .     S
O222   Zn304   2.027   .     S
O223   Zn303   2.024   .     S
O224   Zn608   2.024   .     S
O225   Zn608   2.024   .     S
O226   Zn303   2.024   .     S
O227   Zn304   2.027   .     S
O228   Zn607   2.027   .     S
O229   S285    1.499   .     D
O230   S285    1.503   .     D
O231   S285    1.683   .     S
O232   Zn150   2.027   1_655 S
O233   S293    1.499   .     D
O234   S293    1.504   .     D
O235   S293    1.684   .     S
O236   S294    1.497   .     D
O237   S294    1.503   .     D
O238   S294    1.683   .     S
O239   S295    1.499   .     D
O240   S295    1.504   .     D
O241   S295    1.684   .     S
O242   S296    1.498   .     D
O243   Zn149   2.024   1_655 S
O244   S296    1.503   .     D
O245   S296    1.683   .     S
O246   S297    1.499   .     D
O247   S297    1.503   .     D
O248   S297    1.683   .     S
O249   S298    1.499   .     D
O250   S298    1.503   .     D
O251   S298    1.683   .     S
O252   S299    1.500   .     D
O253   S299    1.503   .     D
O254   Zn302   2.024   .     S
O255   S299    1.683   .     S
O256   S300    1.500   .     D
O257   S300    1.503   .     D
O258   S300    1.683   .     S
O258   H505    0.990   .     S
O259   S286    1.499   .     D
O260   S286    1.504   .     D
O261   S286    1.684   .     S
O262   S287    1.498   .     D
O263   S287    1.503   .     D
O264   S287    1.683   .     S
O265   Zn150   2.024   1_655 S
O266   S288    1.500   .     D
O267   S288    1.504   .     D
O268   S288    1.684   .     S
O269   S289    1.498   .     D
O270   S289    1.503   .     D
O271   S289    1.683   .     S
O272   S290    1.500   .     D
O273   S290    1.504   .     D
O274   S290    1.684   .     S
O275   S291    1.500   .     D
O276   Zn301   2.024   .     S
O277   S291    1.503   .     D
O278   S291    1.683   .     S
O278   H512    0.990   1_545 S
O279   S292    1.499   .     D
O280   S292    1.503   .     D
O281   S292    1.683   .     S
O282   Zn302   2.027   .     S
O283   Zn149   2.027   1_655 S
O284   Zn607   2.027   .     S
Zn303  O532    2.027   1_545 S
Zn303  O588    2.027   1_545 S
Zn304  O528    2.024   1_545 S
Zn304  O529    2.024   1_545 S
C305   O373    1.287   .     A
C305   C334    1.445   .     S
C305   O406    1.292   .     A
C306   N369    1.361   .     A
C306   H356    1.074   .     S
C306   C1067   1.412   1_455 S
C307   H362    1.075   .     S
C307   C1674   1.412   1_554 S
C307   N522    1.363   .     S
C308   H363    1.074   .     S
C308   C1104   1.412   .     S
C308   N521    1.363   .     S
C309   H364    1.074   .     S
C309   C1528   1.412   1_554 S
C309   N372    1.362   .     S
C310   H365    1.075   .     S
C310   N67     1.362   1_565 A
C310   C919    1.412   .     S
C311   N68     1.363   1_565 A
C311   H366    1.075   .     S
C311   C1526   1.412   1_554 S
C312   H367    1.075   .     S
C312   C917    1.412   .     S
C312   N371    1.363   .     S
C313   C324    1.383   .     A
C313   C332    1.412   .     A
C313   S437    1.779   .     S
C314   C331    1.410   .     A
C314   C325    1.375   .     A
C314   S445    1.769   .     S
C315   C322    1.383   .     A
C315   C331    1.415   .     A
C315   S446    1.776   .     S
C316   C333    1.438   .     S
C316   O395    1.286   .     A
C316   O384    1.290   .     A
C317   C332    1.407   .     A
C317   C323    1.375   .     A
C317   S447    1.771   .     S
C318   C334    1.415   .     A
C318   S448    1.777   .     S
C318   C329    1.383   .     A
C319   C333    1.407   .     A
C319   S449    1.772   .     S
C319   C330    1.375   .     A
C320   S450    1.779   .     S
C320   C326    1.383   .     A
C320   C333    1.412   .     A
C321   S451    1.770   .     S
C321   C334    1.410   .     A
C321   C328    1.375   .     A
C322   C336    1.411   .     A
C322   S452    1.780   .     S
C323   S438    1.769   .     S
C323   C335    1.410   .     A
C324   S439    1.776   .     S
C324   C335    1.415   .     A
C325   S440    1.771   .     S
C325   C336    1.407   .     A
C326   S441    1.776   .     S
C326   C339    1.415   .     A
C327   O417    1.285   .     A
C327   O435    1.290   .     A
C327   C332    1.438   .     S
C328   S442    1.771   .     S
C328   C337    1.407   .     A
C329   S443    1.780   .     S
C329   C337    1.412   .     A
C330   S444    1.771   .     S
C330   C339    1.410   .     A
C331   C338    1.445   .     S
C335   C343    1.444   .     S
C336   C342    1.437   .     S
C337   C341    1.437   .     S
C338   O428    1.292   .     A
C338   O434    1.287   .     A
C339   C340    1.444   .     S
C340   O436    1.287   .     A
C340   O376    1.291   .     A
C341   O374    1.290   .     A
C341   O375    1.285   .     A
C342   O380    1.290   .     A
C342   O377    1.285   .     A
C343   O378    1.291   .     A
C343   O379    1.287   .     A
C344   N370    1.362   .     A
C344   H345    1.075   .     S
C344   C1676   1.412   1_454 S
H346   O387    0.991   .     S
H347   O390    0.991   .     S
H348   O393    0.990   .     S
H349   O397    0.991   .     S
H350   O400    0.991   .     S
H351   O403    0.990   .     S
H352   O407    0.991   .     S
H354   O413    0.991   .     S
H355   O416    0.991   .     S
H357   O420    0.990   .     S
H358   O423    0.991   .     S
H359   O426    0.990   .     S
H360   O126    0.990   1_565 S
H361   O433    0.991   .     S
H368   O383    0.990   .     S
N369   Zn453   2.012   .     S
N369   C460    1.363   1_455 S
N370   C459    1.363   1_455 S
N370   Zn454   2.012   .     S
N371   Zn455   2.012   .     S
N372   Zn456   2.012   .     S
O373   Zn453   2.027   .     S
O374   Zn456   2.027   .     S
O375   Zn455   2.024   .     S
O376   Zn152   2.024   1_565 S
O377   Zn152   2.024   1_565 S
O378   Zn455   2.024   .     S
O379   Zn456   2.027   .     S
O380   Zn151   2.027   1_565 S
O381   S437    1.499   .     D
O382   S437    1.503   .     D
O383   S437    1.683   .     S
O384   Zn606   2.027   .     S
O385   S445    1.499   .     D
O386   S445    1.504   .     D
O387   S445    1.684   .     S
O388   S446    1.497   .     D
O389   S446    1.503   .     D
O390   S446    1.683   .     S
O391   S447    1.499   .     D
O392   S447    1.504   .     D
O393   S447    1.684   .     S
O394   S448    1.498   .     D
O395   Zn605   2.024   .     S
O396   S448    1.503   .     D
O397   S448    1.683   .     S
O398   S449    1.499   .     D
O399   S449    1.503   .     D
O400   S449    1.683   .     S
O401   S450    1.499   .     D
O402   S450    1.503   .     D
O403   S450    1.683   .     S
O404   S451    1.500   .     D
O405   S451    1.503   .     D
O406   Zn454   2.024   .     S
O407   S451    1.683   .     S
O408   S452    1.500   .     D
O409   S452    1.503   .     D
O410   S452    1.683   .     S
O410   H49     0.990   1_565 S
O411   S438    1.499   .     D
O412   S438    1.504   .     D
O413   S438    1.684   .     S
O414   S439    1.498   .     D
O415   S439    1.503   .     D
O416   S439    1.683   .     S
O417   Zn606   2.024   .     S
O418   S440    1.500   .     D
O419   S440    1.504   .     D
O420   S440    1.684   .     S
O421   S441    1.498   .     D
O422   S441    1.503   .     D
O423   S441    1.683   .     S
O424   S442    1.500   .     D
O425   S442    1.504   .     D
O426   S442    1.684   .     S
O427   S443    1.500   .     D
O428   Zn453   2.024   .     S
O429   S443    1.503   .     D
O430   S443    1.683   .     S
O431   S444    1.499   .     D
O432   S444    1.503   .     D
O433   S444    1.683   .     S
O434   Zn454   2.027   .     S
O435   Zn605   2.027   .     S
O436   Zn151   2.027   1_565 S
Zn453  O587    2.027   1_455 S
Zn453  O547    2.024   1_455 S
Zn454  O536    2.027   1_455 S
Zn454  O569    2.024   1_455 S
C457   O525    1.287   .     A
C457   C486    1.445   .     S
C457   O558    1.292   .     A
C458   N521    1.361   .     A
C458   H508    1.074   .     S
C458   C915    1.412   .     S
C459   H514    1.075   .     S
C459   C1522   1.412   1_654 S
C459   N370    1.363   1_655 S
C460   H515    1.074   .     S
C460   C952    1.412   1_655 S
C460   N369    1.363   1_655 S
C461   H516    1.074   .     S
C461   C1680   1.412   1_554 S
C461   N524    1.362   .     S
C462   H517    1.075   .     S
C462   N219    1.362   1_565 A
C462   C1071   1.412   .     S
C463   N220    1.363   1_565 A
C463   H518    1.075   .     S
C463   C1678   1.412   1_554 S
C464   H519    1.075   .     S
C464   C1069   1.412   .     S
C464   N523    1.363   .     S
C465   C476    1.383   .     A
C465   C484    1.412   .     A
C465   S589    1.779   .     S
C466   C483    1.410   .     A
C466   C477    1.375   .     A
C466   S597    1.769   .     S
C467   C474    1.383   .     A
C467   C483    1.415   .     A
C467   S598    1.776   .     S
C468   C485    1.438   .     S
C468   O547    1.286   .     A
C468   O536    1.290   .     A
C469   C484    1.407   .     A
C469   C475    1.375   .     A
C469   S599    1.771   .     S
C470   C486    1.415   .     A
C470   S600    1.777   .     S
C470   C481    1.383   .     A
C471   C485    1.407   .     A
C471   S601    1.772   .     S
C471   C482    1.375   .     A
C472   S602    1.779   .     S
C472   C478    1.383   .     A
C472   C485    1.412   .     A
C473   S603    1.770   .     S
C473   C486    1.410   .     A
C473   C480    1.375   .     A
C474   C488    1.411   .     A
C474   S604    1.780   .     S
C475   S590    1.769   .     S
C475   C487    1.410   .     A
C476   S591    1.776   .     S
C476   C487    1.415   .     A
C477   S592    1.771   .     S
C477   C488    1.407   .     A
C478   S593    1.776   .     S
C478   C491    1.415   .     A
C479   O569    1.285   .     A
C479   O587    1.290   .     A
C479   C484    1.438   .     S
C480   S594    1.771   .     S
C480   C489    1.407   .     A
C481   S595    1.780   .     S
C481   C489    1.412   .     A
C482   S596    1.771   .     S
C482   C491    1.410   .     A
C483   C490    1.445   .     S
C487   C495    1.444   .     S
C488   C494    1.437   .     S
C489   C493    1.437   .     S
C490   O580    1.292   .     A
C490   O586    1.287   .     A
C491   C492    1.444   .     S
C492   O588    1.287   .     A
C492   O528    1.291   .     A
C493   O526    1.290   .     A
C493   O527    1.285   .     A
C494   O532    1.290   .     A
C494   O529    1.285   .     A
C495   O530    1.291   .     A
C495   O531    1.287   .     A
C496   N522    1.362   .     A
C496   H497    1.075   .     S
C496   C1524   1.412   1_554 S
H498   O539    0.991   .     S
H499   O542    0.991   .     S
H500   O545    0.990   .     S
H501   O549    0.991   .     S
H502   O552    0.991   .     S
H503   O555    0.990   .     S
H504   O559    0.991   .     S
H506   O565    0.991   .     S
H507   O568    0.991   .     S
H509   O572    0.990   .     S
H510   O575    0.991   .     S
H511   O578    0.990   .     S
H512   O278    0.990   1_565 S
H513   O585    0.991   .     S
H520   O535    0.990   .     S
N521   Zn605   2.012   .     S
N522   Zn606   2.012   .     S
N523   Zn607   2.012   .     S
N524   Zn608   2.012   .     S
O525   Zn605   2.027   .     S
O526   Zn608   2.027   .     S
O527   Zn607   2.024   .     S
O528   Zn304   2.024   1_565 S
O529   Zn304   2.024   1_565 S
O530   Zn607   2.024   .     S
O531   Zn608   2.027   .     S
O532   Zn303   2.027   1_565 S
O533   S589    1.499   .     D
O534   S589    1.503   .     D
O535   S589    1.683   .     S
O536   Zn454   2.027   1_655 S
O537   S597    1.499   .     D
O538   S597    1.504   .     D
O539   S597    1.684   .     S
O540   S598    1.497   .     D
O541   S598    1.503   .     D
O542   S598    1.683   .     S
O543   S599    1.499   .     D
O544   S599    1.504   .     D
O545   S599    1.684   .     S
O546   S600    1.498   .     D
O547   Zn453   2.024   1_655 S
O548   S600    1.503   .     D
O549   S600    1.683   .     S
O550   S601    1.499   .     D
O551   S601    1.503   .     D
O552   S601    1.683   .     S
O553   S602    1.499   .     D
O554   S602    1.503   .     D
O555   S602    1.683   .     S
O556   S603    1.500   .     D
O557   S603    1.503   .     D
O558   Zn606   2.024   .     S
O559   S603    1.683   .     S
O560   S604    1.500   .     D
O561   S604    1.503   .     D
O562   S604    1.683   .     S
O562   H201    0.990   1_565 S
O563   S590    1.499   .     D
O564   S590    1.504   .     D
O565   S590    1.684   .     S
O566   S591    1.498   .     D
O567   S591    1.503   .     D
O568   S591    1.683   .     S
O569   Zn454   2.024   1_655 S
O570   S592    1.500   .     D
O571   S592    1.504   .     D
O572   S592    1.684   .     S
O573   S593    1.498   .     D
O574   S593    1.503   .     D
O575   S593    1.683   .     S
O576   S594    1.500   .     D
O577   S594    1.504   .     D
O578   S594    1.684   .     S
O579   S595    1.500   .     D
O580   Zn605   2.024   .     S
O581   S595    1.503   .     D
O582   S595    1.683   .     S
O583   S596    1.499   .     D
O584   S596    1.503   .     D
O585   S596    1.683   .     S
O586   Zn606   2.027   .     S
O587   Zn453   2.027   1_655 S
O588   Zn303   2.027   1_565 S
C609   O677    1.287   .     A
C609   C638    1.445   .     S
C609   O710    1.292   .     A
C610   N673    1.361   .     A
C610   H660    1.074   .     S
C610   C1371   1.412   1_455 S
C611   H666    1.075   .     S
C611   N826    1.363   .     S
C612   H667    1.074   .     S
C612   C1408   1.412   .     S
C612   N825    1.363   .     S
C613   H668    1.074   .     S
C613   N676    1.362   .     S
C614   H669    1.075   .     S
C614   N979    1.362   .     A
C614   C1223   1.412   .     S
C615   N980    1.363   .     A
C615   H670    1.075   .     S
C616   H671    1.075   .     S
C616   C1221   1.412   .     S
C616   N675    1.363   .     S
C617   C628    1.383   .     A
C617   C636    1.412   .     A
C617   S741    1.779   .     S
C618   C635    1.410   .     A
C618   C629    1.375   .     A
C618   S749    1.769   .     S
C619   C626    1.383   .     A
C619   C635    1.415   .     A
C619   S750    1.776   .     S
C620   C637    1.438   .     S
C620   O699    1.286   .     A
C620   O688    1.290   .     A
C621   C636    1.407   .     A
C621   C627    1.375   .     A
C621   S751    1.771   .     S
C622   C638    1.415   .     A
C622   S752    1.777   .     S
C622   C633    1.383   .     A
C623   C637    1.407   .     A
C623   S753    1.772   .     S
C623   C634    1.375   .     A
C624   S754    1.779   .     S
C624   C630    1.383   .     A
C624   C637    1.412   .     A
C625   S755    1.770   .     S
C625   C638    1.410   .     A
C625   C632    1.375   .     A
C626   C640    1.411   .     A
C626   S756    1.780   .     S
C627   S742    1.769   .     S
C627   C639    1.410   .     A
C628   S743    1.776   .     S
C628   C639    1.415   .     A
C629   S744    1.771   .     S
C629   C640    1.407   .     A
C630   S745    1.776   .     S
C630   C643    1.415   .     A
C631   O721    1.285   .     A
C631   O739    1.290   .     A
C631   C636    1.438   .     S
C632   S746    1.771   .     S
C632   C641    1.407   .     A
C633   S747    1.780   .     S
C633   C641    1.412   .     A
C634   S748    1.771   .     S
C634   C643    1.410   .     A
C635   C642    1.445   .     S
C639   C647    1.444   .     S
C640   C646    1.437   .     S
C641   C645    1.437   .     S
C642   O732    1.292   .     A
C642   O738    1.287   .     A
C643   C644    1.444   .     S
C644   O740    1.287   .     A
C644   O680    1.291   .     A
C645   O678    1.290   .     A
C645   O679    1.285   .     A
C646   O684    1.290   .     A
C646   O681    1.285   .     A
C647   O682    1.291   .     A
C647   O683    1.287   .     A
C648   N674    1.362   .     A
C648   H649    1.075   .     S
C648   C156    1.412   1_455 S
H650   O691    0.991   .     S
H651   O694    0.991   .     S
H652   O697    0.990   .     S
H653   O701    0.991   .     S
H654   O704    0.991   .     S
H655   O707    0.990   .     S
H656   O711    0.991   .     S
H657   O1018   0.990   1_545 S
H658   O717    0.991   .     S
H659   O720    0.991   .     S
H661   O724    0.990   .     S
H662   O727    0.991   .     S
H663   O730    0.990   .     S
H664   O1038   0.990   .     S
H665   O737    0.991   .     S
H672   O687    0.990   .     S
N673   Zn757   2.012   .     S
N673   C764    1.363   1_455 S
N674   C763    1.363   1_455 S
N674   Zn758   2.012   .     S
N675   Zn759   2.012   .     S
N675   C918    1.362   1_545 A
N676   Zn760   2.012   .     S
N676   C919    1.363   1_545 A
O677   Zn757   2.027   .     S
O678   Zn760   2.027   .     S
O679   Zn759   2.024   .     S
O680   Zn1064  2.024   .     S
O681   Zn1064  2.024   .     S
O682   Zn759   2.024   .     S
O683   Zn760   2.027   .     S
O684   Zn1063  2.027   .     S
O685   S741    1.499   .     D
O686   S741    1.503   .     D
O687   S741    1.683   .     S
O688   Zn910   2.027   .     S
O689   S749    1.499   .     D
O690   S749    1.504   .     D
O691   S749    1.684   .     S
O692   S750    1.497   .     D
O693   S750    1.503   .     D
O694   S750    1.683   .     S
O695   S751    1.499   .     D
O696   S751    1.504   .     D
O697   S751    1.684   .     S
O698   S752    1.498   .     D
O699   Zn909   2.024   .     S
O700   S752    1.503   .     D
O701   S752    1.683   .     S
O702   S753    1.499   .     D
O703   S753    1.503   .     D
O704   S753    1.683   .     S
O705   S754    1.499   .     D
O706   S754    1.503   .     D
O707   S754    1.683   .     S
O708   S755    1.500   .     D
O709   S755    1.503   .     D
O710   Zn758   2.024   .     S
O711   S755    1.683   .     S
O712   S756    1.500   .     D
O713   S756    1.503   .     D
O714   S756    1.683   .     S
O714   H961    0.990   .     S
O715   S742    1.499   .     D
O716   S742    1.504   .     D
O717   S742    1.684   .     S
O718   S743    1.498   .     D
O719   S743    1.503   .     D
O720   S743    1.683   .     S
O721   Zn910   2.024   .     S
O722   S744    1.500   .     D
O723   S744    1.504   .     D
O724   S744    1.684   .     S
O725   S745    1.498   .     D
O726   S745    1.503   .     D
O727   S745    1.683   .     S
O728   S746    1.500   .     D
O729   S746    1.504   .     D
O730   S746    1.684   .     S
O731   S747    1.500   .     D
O732   Zn757   2.024   .     S
O733   S747    1.503   .     D
O734   S747    1.683   .     S
O734   H968    0.990   1_545 S
O735   S748    1.499   .     D
O736   S748    1.503   .     D
O737   S748    1.683   .     S
O738   Zn758   2.027   .     S
O739   Zn909   2.027   .     S
O740   Zn1063  2.027   .     S
Zn757  O891    2.027   1_455 S
Zn757  O851    2.024   1_455 S
Zn758  O840    2.027   1_455 S
Zn758  O873    2.024   1_455 S
Zn759  O988    2.027   1_545 S
Zn759  O1044   2.027   1_545 S
Zn760  O984    2.024   1_545 S
Zn760  O985    2.024   1_545 S
C761   O829    1.287   .     A
C761   C790    1.445   .     S
C761   O862    1.292   .     A
C762   N825    1.361   .     A
C762   H812    1.074   .     S
C762   C1219   1.412   .     S
C763   H818    1.075   .     S
C763   C2      1.412   1_655 S
C763   N674    1.363   1_655 S
C764   H819    1.074   .     S
C764   C1256   1.412   1_655 S
C764   N673    1.363   1_655 S
C765   H820    1.074   .     S
C765   N828    1.362   .     S
C766   H821    1.075   .     S
C766   N1131   1.362   .     A
C766   C1375   1.412   .     S
C767   N1132   1.363   .     A
C767   H822    1.075   .     S
C768   H823    1.075   .     S
C768   C1373   1.412   .     S
C768   N827    1.363   .     S
C769   C780    1.383   .     A
C769   C788    1.412   .     A
C769   S893    1.779   .     S
C770   C787    1.410   .     A
C770   C781    1.375   .     A
C770   S901    1.769   .     S
C771   C778    1.383   .     A
C771   C787    1.415   .     A
C771   S902    1.776   .     S
C772   C789    1.438   .     S
C772   O851    1.286   .     A
C772   O840    1.290   .     A
C773   C788    1.407   .     A
C773   C779    1.375   .     A
C773   S903    1.771   .     S
C774   C790    1.415   .     A
C774   S904    1.777   .     S
C774   C785    1.383   .     A
C775   C789    1.407   .     A
C775   S905    1.772   .     S
C775   C786    1.375   .     A
C776   S906    1.779   .     S
C776   C782    1.383   .     A
C776   C789    1.412   .     A
C777   S907    1.770   .     S
C777   C790    1.410   .     A
C777   C784    1.375   .     A
C778   C792    1.411   .     A
C778   S908    1.780   .     S
C779   S894    1.769   .     S
C779   C791    1.410   .     A
C780   S895    1.776   .     S
C780   C791    1.415   .     A
C781   S896    1.771   .     S
C781   C792    1.407   .     A
C782   S897    1.776   .     S
C782   C795    1.415   .     A
C783   O873    1.285   .     A
C783   O891    1.290   .     A
C783   C788    1.438   .     S
C784   S898    1.771   .     S
C784   C793    1.407   .     A
C785   S899    1.780   .     S
C785   C793    1.412   .     A
C786   S900    1.771   .     S
C786   C795    1.410   .     A
C787   C794    1.445   .     S
C791   C799    1.444   .     S
C792   C798    1.437   .     S
C793   C797    1.437   .     S
C794   O884    1.292   .     A
C794   O890    1.287   .     A
C795   C796    1.444   .     S
C796   O892    1.287   .     A
C796   O832    1.291   .     A
C797   O830    1.290   .     A
C797   O831    1.285   .     A
C798   O836    1.290   .     A
C798   O833    1.285   .     A
C799   O834    1.291   .     A
C799   O835    1.287   .     A
C800   N826    1.362   .     A
C800   H801    1.075   .     S
H802   O843    0.991   .     S
H803   O846    0.991   .     S
H804   O849    0.990   .     S
H805   O853    0.991   .     S
H806   O856    0.991   .     S
H807   O859    0.990   .     S
H808   O863    0.991   .     S
H809   O1170   0.990   1_545 S
H810   O869    0.991   .     S
H811   O872    0.991   .     S
H813   O876    0.990   .     S
H814   O879    0.991   .     S
H815   O882    0.990   .     S
H816   O1190   0.990   .     S
H817   O889    0.991   .     S
H824   O839    0.990   .     S
N825   Zn909   2.012   .     S
N826   Zn910   2.012   .     S
N827   Zn911   2.012   .     S
N827   C1070   1.362   1_545 A
N828   Zn912   2.012   .     S
N828   C1071   1.363   1_545 A
O829   Zn909   2.027   .     S
O830   Zn912   2.027   .     S
O831   Zn911   2.024   .     S
O832   Zn1216  2.024   .     S
O833   Zn1216  2.024   .     S
O834   Zn911   2.024   .     S
O835   Zn912   2.027   .     S
O836   Zn1215  2.027   .     S
O837   S893    1.499   .     D
O838   S893    1.503   .     D
O839   S893    1.683   .     S
O840   Zn758   2.027   1_655 S
O841   S901    1.499   .     D
O842   S901    1.504   .     D
O843   S901    1.684   .     S
O844   S902    1.497   .     D
O845   S902    1.503   .     D
O846   S902    1.683   .     S
O847   S903    1.499   .     D
O848   S903    1.504   .     D
O849   S903    1.684   .     S
O850   S904    1.498   .     D
O851   Zn757   2.024   1_655 S
O852   S904    1.503   .     D
O853   S904    1.683   .     S
O854   S905    1.499   .     D
O855   S905    1.503   .     D
O856   S905    1.683   .     S
O857   S906    1.499   .     D
O858   S906    1.503   .     D
O859   S906    1.683   .     S
O860   S907    1.500   .     D
O861   S907    1.503   .     D
O862   Zn910   2.024   .     S
O863   S907    1.683   .     S
O864   S908    1.500   .     D
O865   S908    1.503   .     D
O866   S908    1.683   .     S
O866   H1113   0.990   .     S
O867   S894    1.499   .     D
O868   S894    1.504   .     D
O869   S894    1.684   .     S
O870   S895    1.498   .     D
O871   S895    1.503   .     D
O872   S895    1.683   .     S
O873   Zn758   2.024   1_655 S
O874   S896    1.500   .     D
O875   S896    1.504   .     D
O876   S896    1.684   .     S
O877   S897    1.498   .     D
O878   S897    1.503   .     D
O879   S897    1.683   .     S
O880   S898    1.500   .     D
O881   S898    1.504   .     D
O882   S898    1.684   .     S
O883   S899    1.500   .     D
O884   Zn909   2.024   .     S
O885   S899    1.503   .     D
O886   S899    1.683   .     S
O886   H1120   0.990   1_545 S
O887   S900    1.499   .     D
O888   S900    1.503   .     D
O889   S900    1.683   .     S
O890   Zn910   2.027   .     S
O891   Zn757   2.027   1_655 S
O892   Zn1215  2.027   .     S
Zn911  O1140   2.027   1_545 S
Zn911  O1196   2.027   1_545 S
Zn912  O1136   2.024   1_545 S
Zn912  O1137   2.024   1_545 S
C913   O981    1.287   .     A
C913   C942    1.445   .     S
C913   O1014   1.292   .     A
C914   N977    1.361   .     A
C914   H964    1.074   .     S
C914   C1675   1.412   1_455 S
C915   H970    1.075   .     S
C915   N1130   1.363   .     S
C916   H971    1.074   .     S
C916   C1712   1.412   .     S
C916   N1129   1.363   .     S
C917   H972    1.074   .     S
C917   N980    1.362   .     S
C918   H973    1.075   .     S
C918   N675    1.362   1_565 A
C918   C1527   1.412   .     S
C919   N676    1.363   1_565 A
C919   H974    1.075   .     S
C920   H975    1.075   .     S
C920   C1525   1.412   .     S
C920   N979    1.363   .     S
C921   C932    1.383   .     A
C921   C940    1.412   .     A
C921   S1045   1.779   .     S
C922   C939    1.410   .     A
C922   C933    1.375   .     A
C922   S1053   1.769   .     S
C923   C930    1.383   .     A
C923   C939    1.415   .     A
C923   S1054   1.776   .     S
C924   C941    1.438   .     S
C924   O1003   1.286   .     A
C924   O992    1.290   .     A
C925   C940    1.407   .     A
C925   C931    1.375   .     A
C925   S1055   1.771   .     S
C926   C942    1.415   .     A
C926   S1056   1.777   .     S
C926   C937    1.383   .     A
C927   C941    1.407   .     A
C927   S1057   1.772   .     S
C927   C938    1.375   .     A
C928   S1058   1.779   .     S
C928   C934    1.383   .     A
C928   C941    1.412   .     A
C929   S1059   1.770   .     S
C929   C942    1.410   .     A
C929   C936    1.375   .     A
C930   C944    1.411   .     A
C930   S1060   1.780   .     S
C931   S1046   1.769   .     S
C931   C943    1.410   .     A
C932   S1047   1.776   .     S
C932   C943    1.415   .     A
C933   S1048   1.771   .     S
C933   C944    1.407   .     A
C934   S1049   1.776   .     S
C934   C947    1.415   .     A
C935   O1025   1.285   .     A
C935   O1043   1.290   .     A
C935   C940    1.438   .     S
C936   S1050   1.771   .     S
C936   C945    1.407   .     A
C937   S1051   1.780   .     S
C937   C945    1.412   .     A
C938   S1052   1.771   .     S
C938   C947    1.410   .     A
C939   C946    1.445   .     S
C943   C951    1.444   .     S
C944   C950    1.437   .     S
C945   C949    1.437   .     S
C946   O1036   1.292   .     A
C946   O1042   1.287   .     A
C947   C948    1.444   .     S
C948   O1044   1.287   .     A
C948   O984    1.291   .     A
C949   O982    1.290   .     A
C949   O983    1.285   .     A
C950   O988    1.290   .     A
C950   O985    1.285   .     A
C951   O986    1.291   .     A
C951   O987    1.287   .     A
C952   N978    1.362   .     A
C952   H953    1.075   .     S
C952   C460    1.412   1_455 S
H954   O995    0.991   .     S
H955   O998    0.991   .     S
H956   O1001   0.990   .     S
H957   O1005   0.991   .     S
H958   O1008   0.991   .     S
H959   O1011   0.990   .     S
H960   O1015   0.991   .     S
H962   O1021   0.991   .     S
H963   O1024   0.991   .     S
H965   O1028   0.990   .     S
H966   O1031   0.991   .     S
H967   O1034   0.990   .     S
H968   O734    0.990   1_565 S
H969   O1041   0.991   .     S
H976   O991    0.990   .     S
N977   Zn1061  2.012   .     S
N977   C1068   1.363   1_455 S
N978   C1067   1.363   1_455 S
N978   Zn1062  2.012   .     S
N979   Zn1063  2.012   .     S
N980   Zn1064  2.012   .     S
O981   Zn1061  2.027   .     S
O982   Zn1064  2.027   .     S
O983   Zn1063  2.024   .     S
O984   Zn760   2.024   1_565 S
O985   Zn760   2.024   1_565 S
O986   Zn1063  2.024   .     S
O987   Zn1064  2.027   .     S
O988   Zn759   2.027   1_565 S
O989   S1045   1.499   .     D
O990   S1045   1.503   .     D
O991   S1045   1.683   .     S
O992   Zn1214  2.027   .     S
O993   S1053   1.499   .     D
O994   S1053   1.504   .     D
O995   S1053   1.684   .     S
O996   S1054   1.497   .     D
O997   S1054   1.503   .     D
O998   S1054   1.683   .     S
O999   S1055   1.499   .     D
O1000  S1055   1.504   .     D
O1001  S1055   1.684   .     S
O1002  S1056   1.498   .     D
O1003  Zn1213  2.024   .     S
O1004  S1056   1.503   .     D
O1005  S1056   1.683   .     S
O1006  S1057   1.499   .     D
O1007  S1057   1.503   .     D
O1008  S1057   1.683   .     S
O1009  S1058   1.499   .     D
O1010  S1058   1.503   .     D
O1011  S1058   1.683   .     S
O1012  S1059   1.500   .     D
O1013  S1059   1.503   .     D
O1014  Zn1062  2.024   .     S
O1015  S1059   1.683   .     S
O1016  S1060   1.500   .     D
O1017  S1060   1.503   .     D
O1018  S1060   1.683   .     S
O1018  H657    0.990   1_565 S
O1019  S1046   1.499   .     D
O1020  S1046   1.504   .     D
O1021  S1046   1.684   .     S
O1022  S1047   1.498   .     D
O1023  S1047   1.503   .     D
O1024  S1047   1.683   .     S
O1025  Zn1214  2.024   .     S
O1026  S1048   1.500   .     D
O1027  S1048   1.504   .     D
O1028  S1048   1.684   .     S
O1029  S1049   1.498   .     D
O1030  S1049   1.503   .     D
O1031  S1049   1.683   .     S
O1032  S1050   1.500   .     D
O1033  S1050   1.504   .     D
O1034  S1050   1.684   .     S
O1035  S1051   1.500   .     D
O1036  Zn1061  2.024   .     S
O1037  S1051   1.503   .     D
O1038  S1051   1.683   .     S
O1039  S1052   1.499   .     D
O1040  S1052   1.503   .     D
O1041  S1052   1.683   .     S
O1042  Zn1062  2.027   .     S
O1043  Zn1213  2.027   .     S
O1044  Zn759   2.027   1_565 S
Zn1061 O1195   2.027   1_455 S
Zn1061 O1155   2.024   1_455 S
Zn1062 O1144   2.027   1_455 S
Zn1062 O1177   2.024   1_455 S
C1065  O1133   1.287   .     A
C1065  C1094   1.445   .     S
C1065  O1166   1.292   .     A
C1066  N1129   1.361   .     A
C1066  H1116   1.074   .     S
C1066  C1523   1.412   .     S
C1067  H1122   1.075   .     S
C1067  C306    1.412   1_655 S
C1067  N978    1.363   1_655 S
C1068  H1123   1.074   .     S
C1068  C1560   1.412   1_655 S
C1068  N977    1.363   1_655 S
C1069  H1124   1.074   .     S
C1069  N1132   1.362   .     S
C1070  H1125   1.075   .     S
C1070  N827    1.362   1_565 A
C1070  C1679   1.412   .     S
C1071  N828    1.363   1_565 A
C1071  H1126   1.075   .     S
C1072  H1127   1.075   .     S
C1072  C1677   1.412   .     S
C1072  N1131   1.363   .     S
C1073  C1084   1.383   .     A
C1073  C1092   1.412   .     A
C1073  S1197   1.779   .     S
C1074  C1091   1.410   .     A
C1074  C1085   1.375   .     A
C1074  S1205   1.769   .     S
C1075  C1082   1.383   .     A
C1075  C1091   1.415   .     A
C1075  S1206   1.776   .     S
C1076  C1093   1.438   .     S
C1076  O1155   1.286   .     A
C1076  O1144   1.290   .     A
C1077  C1092   1.407   .     A
C1077  C1083   1.375   .     A
C1077  S1207   1.771   .     S
C1078  C1094   1.415   .     A
C1078  S1208   1.777   .     S
C1078  C1089   1.383   .     A
C1079  C1093   1.407   .     A
C1079  S1209   1.772   .     S
C1079  C1090   1.375   .     A
C1080  S1210   1.779   .     S
C1080  C1086   1.383   .     A
C1080  C1093   1.412   .     A
C1081  S1211   1.770   .     S
C1081  C1094   1.410   .     A
C1081  C1088   1.375   .     A
C1082  C1096   1.411   .     A
C1082  S1212   1.780   .     S
C1083  S1198   1.769   .     S
C1083  C1095   1.410   .     A
C1084  S1199   1.776   .     S
C1084  C1095   1.415   .     A
C1085  S1200   1.771   .     S
C1085  C1096   1.407   .     A
C1086  S1201   1.776   .     S
C1086  C1099   1.415   .     A
C1087  O1177   1.285   .     A
C1087  O1195   1.290   .     A
C1087  C1092   1.438   .     S
C1088  S1202   1.771   .     S
C1088  C1097   1.407   .     A
C1089  S1203   1.780   .     S
C1089  C1097   1.412   .     A
C1090  S1204   1.771   .     S
C1090  C1099   1.410   .     A
C1091  C1098   1.445   .     S
C1095  C1103   1.444   .     S
C1096  C1102   1.437   .     S
C1097  C1101   1.437   .     S
C1098  O1188   1.292   .     A
C1098  O1194   1.287   .     A
C1099  C1100   1.444   .     S
C1100  O1196   1.287   .     A
C1100  O1136   1.291   .     A
C1101  O1134   1.290   .     A
C1101  O1135   1.285   .     A
C1102  O1140   1.290   .     A
C1102  O1137   1.285   .     A
C1103  O1138   1.291   .     A
C1103  O1139   1.287   .     A
C1104  N1130   1.362   .     A
C1104  H1105   1.075   .     S
H1106  O1147   0.991   .     S
H1107  O1150   0.991   .     S
H1108  O1153   0.990   .     S
H1109  O1157   0.991   .     S
H1110  O1160   0.991   .     S
H1111  O1163   0.990   .     S
H1112  O1167   0.991   .     S
H1114  O1173   0.991   .     S
H1115  O1176   0.991   .     S
H1117  O1180   0.990   .     S
H1118  O1183   0.991   .     S
H1119  O1186   0.990   .     S
H1120  O886    0.990   1_565 S
H1121  O1193   0.991   .     S
H1128  O1143   0.990   .     S
N1129  Zn1213  2.012   .     S
N1130  Zn1214  2.012   .     S
N1131  Zn1215  2.012   .     S
N1132  Zn1216  2.012   .     S
O1133  Zn1213  2.027   .     S
O1134  Zn1216  2.027   .     S
O1135  Zn1215  2.024   .     S
O1136  Zn912   2.024   1_565 S
O1137  Zn912   2.024   1_565 S
O1138  Zn1215  2.024   .     S
O1139  Zn1216  2.027   .     S
O1140  Zn911   2.027   1_565 S
O1141  S1197   1.499   .     D
O1142  S1197   1.503   .     D
O1143  S1197   1.683   .     S
O1144  Zn1062  2.027   1_655 S
O1145  S1205   1.499   .     D
O1146  S1205   1.504   .     D
O1147  S1205   1.684   .     S
O1148  S1206   1.497   .     D
O1149  S1206   1.503   .     D
O1150  S1206   1.683   .     S
O1151  S1207   1.499   .     D
O1152  S1207   1.504   .     D
O1153  S1207   1.684   .     S
O1154  S1208   1.498   .     D
O1155  Zn1061  2.024   1_655 S
O1156  S1208   1.503   .     D
O1157  S1208   1.683   .     S
O1158  S1209   1.499   .     D
O1159  S1209   1.503   .     D
O1160  S1209   1.683   .     S
O1161  S1210   1.499   .     D
O1162  S1210   1.503   .     D
O1163  S1210   1.683   .     S
O1164  S1211   1.500   .     D
O1165  S1211   1.503   .     D
O1166  Zn1214  2.024   .     S
O1167  S1211   1.683   .     S
O1168  S1212   1.500   .     D
O1169  S1212   1.503   .     D
O1170  S1212   1.683   .     S
O1170  H809    0.990   1_565 S
O1171  S1198   1.499   .     D
O1172  S1198   1.504   .     D
O1173  S1198   1.684   .     S
O1174  S1199   1.498   .     D
O1175  S1199   1.503   .     D
O1176  S1199   1.683   .     S
O1177  Zn1062  2.024   1_655 S
O1178  S1200   1.500   .     D
O1179  S1200   1.504   .     D
O1180  S1200   1.684   .     S
O1181  S1201   1.498   .     D
O1182  S1201   1.503   .     D
O1183  S1201   1.683   .     S
O1184  S1202   1.500   .     D
O1185  S1202   1.504   .     D
O1186  S1202   1.684   .     S
O1187  S1203   1.500   .     D
O1188  Zn1213  2.024   .     S
O1189  S1203   1.503   .     D
O1190  S1203   1.683   .     S
O1191  S1204   1.499   .     D
O1192  S1204   1.503   .     D
O1193  S1204   1.683   .     S
O1194  Zn1214  2.027   .     S
O1195  Zn1061  2.027   1_655 S
O1196  Zn911   2.027   1_565 S
C1217  O1285   1.287   .     A
C1217  C1246   1.445   .     S
C1217  O1318   1.292   .     A
C1218  N1281   1.361   .     A
C1218  H1268   1.074   .     S
C1218  C155    1.412   1_456 S
C1219  H1274   1.075   .     S
C1219  N1434   1.363   .     S
C1220  H1275   1.074   .     S
C1220  C192    1.412   1_556 S
C1220  N1433   1.363   .     S
C1221  H1276   1.074   .     S
C1221  N1284   1.362   .     S
C1222  H1277   1.075   .     S
C1222  N1587   1.362   .     A
C1222  C7      1.412   1_556 S
C1223  N1588   1.363   .     A
C1223  H1278   1.075   .     S
C1224  H1279   1.075   .     S
C1224  C5      1.412   1_556 S
C1224  N1283   1.363   .     S
C1225  C1236   1.383   .     A
C1225  C1244   1.412   .     A
C1225  S1349   1.779   .     S
C1226  C1243   1.410   .     A
C1226  C1237   1.375   .     A
C1226  S1357   1.769   .     S
C1227  C1234   1.383   .     A
C1227  C1243   1.415   .     A
C1227  S1358   1.776   .     S
C1228  C1245   1.438   .     S
C1228  O1307   1.286   .     A
C1228  O1296   1.290   .     A
C1229  C1244   1.407   .     A
C1229  C1235   1.375   .     A
C1229  S1359   1.771   .     S
C1230  C1246   1.415   .     A
C1230  S1360   1.777   .     S
C1230  C1241   1.383   .     A
C1231  C1245   1.407   .     A
C1231  S1361   1.772   .     S
C1231  C1242   1.375   .     A
C1232  S1362   1.779   .     S
C1232  C1238   1.383   .     A
C1232  C1245   1.412   .     A
C1233  S1363   1.770   .     S
C1233  C1246   1.410   .     A
C1233  C1240   1.375   .     A
C1234  C1248   1.411   .     A
C1234  S1364   1.780   .     S
C1235  S1350   1.769   .     S
C1235  C1247   1.410   .     A
C1236  S1351   1.776   .     S
C1236  C1247   1.415   .     A
C1237  S1352   1.771   .     S
C1237  C1248   1.407   .     A
C1238  S1353   1.776   .     S
C1238  C1251   1.415   .     A
C1239  O1329   1.285   .     A
C1239  O1347   1.290   .     A
C1239  C1244   1.438   .     S
C1240  S1354   1.771   .     S
C1240  C1249   1.407   .     A
C1241  S1355   1.780   .     S
C1241  C1249   1.412   .     A
C1242  S1356   1.771   .     S
C1242  C1251   1.410   .     A
C1243  C1250   1.445   .     S
C1247  C1255   1.444   .     S
C1248  C1254   1.437   .     S
C1249  C1253   1.437   .     S
C1250  O1340   1.292   .     A
C1250  O1346   1.287   .     A
C1251  C1252   1.444   .     S
C1252  O1348   1.287   .     A
C1252  O1288   1.291   .     A
C1253  O1286   1.290   .     A
C1253  O1287   1.285   .     A
C1254  O1292   1.290   .     A
C1254  O1289   1.285   .     A
C1255  O1290   1.291   .     A
C1255  O1291   1.287   .     A
C1256  N1282   1.362   .     A
C1256  H1257   1.075   .     S
C1256  C764    1.412   1_455 S
H1258  O1299   0.991   .     S
H1259  O1302   0.991   .     S
H1260  O1305   0.990   .     S
H1261  O1309   0.991   .     S
H1262  O1312   0.991   .     S
H1263  O1315   0.990   .     S
H1264  O1319   0.991   .     S
H1265  O1626   0.990   1_545 S
H1266  O1325   0.991   .     S
H1267  O1328   0.991   .     S
H1269  O1332   0.990   .     S
H1270  O1335   0.991   .     S
H1271  O1338   0.990   .     S
H1272  O1646   0.990   .     S
H1273  O1345   0.991   .     S
H1280  O1295   0.990   .     S
N1281  Zn1365  2.012   .     S
N1281  C1372   1.363   1_455 S
N1282  C1371   1.363   1_455 S
N1282  Zn1366  2.012   .     S
N1283  Zn1367  2.012   .     S
N1283  C1526   1.362   1_545 A
N1284  Zn1368  2.012   .     S
N1284  C1527   1.363   1_545 A
O1285  Zn1365  2.027   .     S
O1286  Zn1368  2.027   .     S
O1287  Zn1367  2.024   .     S
O1288  Zn1672  2.024   .     S
O1289  Zn1672  2.024   .     S
O1290  Zn1367  2.024   .     S
O1291  Zn1368  2.027   .     S
O1292  Zn1671  2.027   .     S
O1293  S1349   1.499   .     D
O1294  S1349   1.503   .     D
O1295  S1349   1.683   .     S
O1296  Zn1518  2.027   .     S
O1297  S1357   1.499   .     D
O1298  S1357   1.504   .     D
O1299  S1357   1.684   .     S
O1300  S1358   1.497   .     D
O1301  S1358   1.503   .     D
O1302  S1358   1.683   .     S
O1303  S1359   1.499   .     D
O1304  S1359   1.504   .     D
O1305  S1359   1.684   .     S
O1306  S1360   1.498   .     D
O1307  Zn1517  2.024   .     S
O1308  S1360   1.503   .     D
O1309  S1360   1.683   .     S
O1310  S1361   1.499   .     D
O1311  S1361   1.503   .     D
O1312  S1361   1.683   .     S
O1313  S1362   1.499   .     D
O1314  S1362   1.503   .     D
O1315  S1362   1.683   .     S
O1316  S1363   1.500   .     D
O1317  S1363   1.503   .     D
O1318  Zn1366  2.024   .     S
O1319  S1363   1.683   .     S
O1320  S1364   1.500   .     D
O1321  S1364   1.503   .     D
O1322  S1364   1.683   .     S
O1322  H1569   0.990   .     S
O1323  S1350   1.499   .     D
O1324  S1350   1.504   .     D
O1325  S1350   1.684   .     S
O1326  S1351   1.498   .     D
O1327  S1351   1.503   .     D
O1328  S1351   1.683   .     S
O1329  Zn1518  2.024   .     S
O1330  S1352   1.500   .     D
O1331  S1352   1.504   .     D
O1332  S1352   1.684   .     S
O1333  S1353   1.498   .     D
O1334  S1353   1.503   .     D
O1335  S1353   1.683   .     S
O1336  S1354   1.500   .     D
O1337  S1354   1.504   .     D
O1338  S1354   1.684   .     S
O1339  S1355   1.500   .     D
O1340  Zn1365  2.024   .     S
O1341  S1355   1.503   .     D
O1342  S1355   1.683   .     S
O1342  H1576   0.990   1_545 S
O1343  S1356   1.499   .     D
O1344  S1356   1.503   .     D
O1345  S1356   1.683   .     S
O1346  Zn1366  2.027   .     S
O1347  Zn1517  2.027   .     S
O1348  Zn1671  2.027   .     S
Zn1365 O1499   2.027   1_455 S
Zn1365 O1459   2.024   1_455 S
Zn1366 O1448   2.027   1_455 S
Zn1366 O1481   2.024   1_455 S
Zn1367 O1596   2.027   1_545 S
Zn1367 O1652   2.027   1_545 S
Zn1368 O1592   2.024   1_545 S
Zn1368 O1593   2.024   1_545 S
C1369  O1437   1.287   .     A
C1369  C1398   1.445   .     S
C1369  O1470   1.292   .     A
C1370  N1433   1.361   .     A
C1370  H1420   1.074   .     S
C1370  C3      1.412   1_556 S
C1371  H1426   1.075   .     S
C1371  C610    1.412   1_655 S
C1371  N1282   1.363   1_655 S
C1372  H1427   1.074   .     S
C1372  C40     1.412   1_656 S
C1372  N1281   1.363   1_655 S
C1373  H1428   1.074   .     S
C1373  N1436   1.362   .     S
C1374  H1429   1.075   .     S
C1374  N1739   1.362   .     A
C1374  C159    1.412   1_556 S
C1375  N1740   1.363   .     A
C1375  H1430   1.075   .     S
C1376  H1431   1.075   .     S
C1376  C157    1.412   1_556 S
C1376  N1435   1.363   .     S
C1377  C1388   1.383   .     A
C1377  C1396   1.412   .     A
C1377  S1501   1.779   .     S
C1378  C1395   1.410   .     A
C1378  C1389   1.375   .     A
C1378  S1509   1.769   .     S
C1379  C1386   1.383   .     A
C1379  C1395   1.415   .     A
C1379  S1510   1.776   .     S
C1380  C1397   1.438   .     S
C1380  O1459   1.286   .     A
C1380  O1448   1.290   .     A
C1381  C1396   1.407   .     A
C1381  C1387   1.375   .     A
C1381  S1511   1.771   .     S
C1382  C1398   1.415   .     A
C1382  S1512   1.777   .     S
C1382  C1393   1.383   .     A
C1383  C1397   1.407   .     A
C1383  S1513   1.772   .     S
C1383  C1394   1.375   .     A
C1384  S1514   1.779   .     S
C1384  C1390   1.383   .     A
C1384  C1397   1.412   .     A
C1385  S1515   1.770   .     S
C1385  C1398   1.410   .     A
C1385  C1392   1.375   .     A
C1386  C1400   1.411   .     A
C1386  S1516   1.780   .     S
C1387  S1502   1.769   .     S
C1387  C1399   1.410   .     A
C1388  S1503   1.776   .     S
C1388  C1399   1.415   .     A
C1389  S1504   1.771   .     S
C1389  C1400   1.407   .     A
C1390  S1505   1.776   .     S
C1390  C1403   1.415   .     A
C1391  O1481   1.285   .     A
C1391  O1499   1.290   .     A
C1391  C1396   1.438   .     S
C1392  S1506   1.771   .     S
C1392  C1401   1.407   .     A
C1393  S1507   1.780   .     S
C1393  C1401   1.412   .     A
C1394  S1508   1.771   .     S
C1394  C1403   1.410   .     A
C1395  C1402   1.445   .     S
C1399  C1407   1.444   .     S
C1400  C1406   1.437   .     S
C1401  C1405   1.437   .     S
C1402  O1492   1.292   .     A
C1402  O1498   1.287   .     A
C1403  C1404   1.444   .     S
C1404  O1500   1.287   .     A
C1404  O1440   1.291   .     A
C1405  O1438   1.290   .     A
C1405  O1439   1.285   .     A
C1406  O1444   1.290   .     A
C1406  O1441   1.285   .     A
C1407  O1442   1.291   .     A
C1407  O1443   1.287   .     A
C1408  N1434   1.362   .     A
C1408  H1409   1.075   .     S
H1410  O1451   0.991   .     S
H1411  O1454   0.991   .     S
H1412  O1457   0.990   .     S
H1413  O1461   0.991   .     S
H1414  O1464   0.991   .     S
H1415  O1467   0.990   .     S
H1416  O1471   0.991   .     S
H1417  O1778   0.990   1_545 S
H1418  O1477   0.991   .     S
H1419  O1480   0.991   .     S
H1421  O1484   0.990   .     S
H1422  O1487   0.991   .     S
H1423  O1490   0.990   .     S
H1424  O1798   0.990   .     S
H1425  O1497   0.991   .     S
H1432  O1447   0.990   .     S
N1433  Zn1517  2.012   .     S
N1434  Zn1518  2.012   .     S
N1435  Zn1519  2.012   .     S
N1435  C1678   1.362   1_545 A
N1436  Zn1520  2.012   .     S
N1436  C1679   1.363   1_545 A
O1437  Zn1517  2.027   .     S
O1438  Zn1520  2.027   .     S
O1439  Zn1519  2.024   .     S
O1440  Zn1824  2.024   .     S
O1441  Zn1824  2.024   .     S
O1442  Zn1519  2.024   .     S
O1443  Zn1520  2.027   .     S
O1444  Zn1823  2.027   .     S
O1445  S1501   1.499   .     D
O1446  S1501   1.503   .     D
O1447  S1501   1.683   .     S
O1448  Zn1366  2.027   1_655 S
O1449  S1509   1.499   .     D
O1450  S1509   1.504   .     D
O1451  S1509   1.684   .     S
O1452  S1510   1.497   .     D
O1453  S1510   1.503   .     D
O1454  S1510   1.683   .     S
O1455  S1511   1.499   .     D
O1456  S1511   1.504   .     D
O1457  S1511   1.684   .     S
O1458  S1512   1.498   .     D
O1459  Zn1365  2.024   1_655 S
O1460  S1512   1.503   .     D
O1461  S1512   1.683   .     S
O1462  S1513   1.499   .     D
O1463  S1513   1.503   .     D
O1464  S1513   1.683   .     S
O1465  S1514   1.499   .     D
O1466  S1514   1.503   .     D
O1467  S1514   1.683   .     S
O1468  S1515   1.500   .     D
O1469  S1515   1.503   .     D
O1470  Zn1518  2.024   .     S
O1471  S1515   1.683   .     S
O1472  S1516   1.500   .     D
O1473  S1516   1.503   .     D
O1474  S1516   1.683   .     S
O1474  H1721   0.990   .     S
O1475  S1502   1.499   .     D
O1476  S1502   1.504   .     D
O1477  S1502   1.684   .     S
O1478  S1503   1.498   .     D
O1479  S1503   1.503   .     D
O1480  S1503   1.683   .     S
O1481  Zn1366  2.024   1_655 S
O1482  S1504   1.500   .     D
O1483  S1504   1.504   .     D
O1484  S1504   1.684   .     S
O1485  S1505   1.498   .     D
O1486  S1505   1.503   .     D
O1487  S1505   1.683   .     S
O1488  S1506   1.500   .     D
O1489  S1506   1.504   .     D
O1490  S1506   1.684   .     S
O1491  S1507   1.500   .     D
O1492  Zn1517  2.024   .     S
O1493  S1507   1.503   .     D
O1494  S1507   1.683   .     S
O1494  H1728   0.990   1_545 S
O1495  S1508   1.499   .     D
O1496  S1508   1.503   .     D
O1497  S1508   1.683   .     S
O1498  Zn1518  2.027   .     S
O1499  Zn1365  2.027   1_655 S
O1500  Zn1823  2.027   .     S
Zn1519 O1748   2.027   1_545 S
Zn1519 O1804   2.027   1_545 S
Zn1520 O1744   2.024   1_545 S
Zn1520 O1745   2.024   1_545 S
C1521  O1589   1.287   .     A
C1521  C1550   1.445   .     S
C1521  O1622   1.292   .     A
C1522  N1585   1.361   .     A
C1522  H1572   1.074   .     S
C1522  C459    1.412   1_456 S
C1523  H1578   1.075   .     S
C1523  N1738   1.363   .     S
C1524  H1579   1.074   .     S
C1524  C496    1.412   1_556 S
C1524  N1737   1.363   .     S
C1525  H1580   1.074   .     S
C1525  N1588   1.362   .     S
C1526  H1581   1.075   .     S
C1526  N1283   1.362   1_565 A
C1526  C311    1.412   1_556 S
C1527  N1284   1.363   1_565 A
C1527  H1582   1.075   .     S
C1528  H1583   1.075   .     S
C1528  C309    1.412   1_556 S
C1528  N1587   1.363   .     S
C1529  C1540   1.383   .     A
C1529  C1548   1.412   .     A
C1529  S1653   1.779   .     S
C1530  C1547   1.410   .     A
C1530  C1541   1.375   .     A
C1530  S1661   1.769   .     S
C1531  C1538   1.383   .     A
C1531  C1547   1.415   .     A
C1531  S1662   1.776   .     S
C1532  C1549   1.438   .     S
C1532  O1611   1.286   .     A
C1532  O1600   1.290   .     A
C1533  C1548   1.407   .     A
C1533  C1539   1.375   .     A
C1533  S1663   1.771   .     S
C1534  C1550   1.415   .     A
C1534  S1664   1.777   .     S
C1534  C1545   1.383   .     A
C1535  C1549   1.407   .     A
C1535  S1665   1.772   .     S
C1535  C1546   1.375   .     A
C1536  S1666   1.779   .     S
C1536  C1542   1.383   .     A
C1536  C1549   1.412   .     A
C1537  S1667   1.770   .     S
C1537  C1550   1.410   .     A
C1537  C1544   1.375   .     A
C1538  C1552   1.411   .     A
C1538  S1668   1.780   .     S
C1539  S1654   1.769   .     S
C1539  C1551   1.410   .     A
C1540  S1655   1.776   .     S
C1540  C1551   1.415   .     A
C1541  S1656   1.771   .     S
C1541  C1552   1.407   .     A
C1542  S1657   1.776   .     S
C1542  C1555   1.415   .     A
C1543  O1633   1.285   .     A
C1543  O1651   1.290   .     A
C1543  C1548   1.438   .     S
C1544  S1658   1.771   .     S
C1544  C1553   1.407   .     A
C1545  S1659   1.780   .     S
C1545  C1553   1.412   .     A
C1546  S1660   1.771   .     S
C1546  C1555   1.410   .     A
C1547  C1554   1.445   .     S
C1551  C1559   1.444   .     S
C1552  C1558   1.437   .     S
C1553  C1557   1.437   .     S
C1554  O1644   1.292   .     A
C1554  O1650   1.287   .     A
C1555  C1556   1.444   .     S
C1556  O1652   1.287   .     A
C1556  O1592   1.291   .     A
C1557  O1590   1.290   .     A
C1557  O1591   1.285   .     A
C1558  O1596   1.290   .     A
C1558  O1593   1.285   .     A
C1559  O1594   1.291   .     A
C1559  O1595   1.287   .     A
C1560  N1586   1.362   .     A
C1560  H1561   1.075   .     S
C1560  C1068   1.412   1_455 S
H1562  O1603   0.991   .     S
H1563  O1606   0.991   .     S
H1564  O1609   0.990   .     S
H1565  O1613   0.991   .     S
H1566  O1616   0.991   .     S
H1567  O1619   0.990   .     S
H1568  O1623   0.991   .     S
H1570  O1629   0.991   .     S
H1571  O1632   0.991   .     S
H1573  O1636   0.990   .     S
H1574  O1639   0.991   .     S
H1575  O1642   0.990   .     S
H1576  O1342   0.990   1_565 S
H1577  O1649   0.991   .     S
H1584  O1599   0.990   .     S
N1585  Zn1669  2.012   .     S
N1585  C1676   1.363   1_455 S
N1586  C1675   1.363   1_455 S
N1586  Zn1670  2.012   .     S
N1587  Zn1671  2.012   .     S
N1588  Zn1672  2.012   .     S
O1589  Zn1669  2.027   .     S
O1590  Zn1672  2.027   .     S
O1591  Zn1671  2.024   .     S
O1592  Zn1368  2.024   1_565 S
O1593  Zn1368  2.024   1_565 S
O1594  Zn1671  2.024   .     S
O1595  Zn1672  2.027   .     S
O1596  Zn1367  2.027   1_565 S
O1597  S1653   1.499   .     D
O1598  S1653   1.503   .     D
O1599  S1653   1.683   .     S
O1600  Zn1822  2.027   .     S
O1601  S1661   1.499   .     D
O1602  S1661   1.504   .     D
O1603  S1661   1.684   .     S
O1604  S1662   1.497   .     D
O1605  S1662   1.503   .     D
O1606  S1662   1.683   .     S
O1607  S1663   1.499   .     D
O1608  S1663   1.504   .     D
O1609  S1663   1.684   .     S
O1610  S1664   1.498   .     D
O1611  Zn1821  2.024   .     S
O1612  S1664   1.503   .     D
O1613  S1664   1.683   .     S
O1614  S1665   1.499   .     D
O1615  S1665   1.503   .     D
O1616  S1665   1.683   .     S
O1617  S1666   1.499   .     D
O1618  S1666   1.503   .     D
O1619  S1666   1.683   .     S
O1620  S1667   1.500   .     D
O1621  S1667   1.503   .     D
O1622  Zn1670  2.024   .     S
O1623  S1667   1.683   .     S
O1624  S1668   1.500   .     D
O1625  S1668   1.503   .     D
O1626  S1668   1.683   .     S
O1626  H1265   0.990   1_565 S
O1627  S1654   1.499   .     D
O1628  S1654   1.504   .     D
O1629  S1654   1.684   .     S
O1630  S1655   1.498   .     D
O1631  S1655   1.503   .     D
O1632  S1655   1.683   .     S
O1633  Zn1822  2.024   .     S
O1634  S1656   1.500   .     D
O1635  S1656   1.504   .     D
O1636  S1656   1.684   .     S
O1637  S1657   1.498   .     D
O1638  S1657   1.503   .     D
O1639  S1657   1.683   .     S
O1640  S1658   1.500   .     D
O1641  S1658   1.504   .     D
O1642  S1658   1.684   .     S
O1643  S1659   1.500   .     D
O1644  Zn1669  2.024   .     S
O1645  S1659   1.503   .     D
O1646  S1659   1.683   .     S
O1647  S1660   1.499   .     D
O1648  S1660   1.503   .     D
O1649  S1660   1.683   .     S
O1650  Zn1670  2.027   .     S
O1651  Zn1821  2.027   .     S
O1652  Zn1367  2.027   1_565 S
Zn1669 O1803   2.027   1_455 S
Zn1669 O1763   2.024   1_455 S
Zn1670 O1752   2.027   1_455 S
Zn1670 O1785   2.024   1_455 S
C1673  O1741   1.287   .     A
C1673  C1702   1.445   .     S
C1673  O1774   1.292   .     A
C1674  N1737   1.361   .     A
C1674  H1724   1.074   .     S
C1674  C307    1.412   1_556 S
C1675  H1730   1.075   .     S
C1675  C914    1.412   1_655 S
C1675  N1586   1.363   1_655 S
C1676  H1731   1.074   .     S
C1676  C344    1.412   1_656 S
C1676  N1585   1.363   1_655 S
C1677  H1732   1.074   .     S
C1677  N1740   1.362   .     S
C1678  H1733   1.075   .     S
C1678  N1435   1.362   1_565 A
C1678  C463    1.412   1_556 S
C1679  N1436   1.363   1_565 A
C1679  H1734   1.075   .     S
C1680  H1735   1.075   .     S
C1680  C461    1.412   1_556 S
C1680  N1739   1.363   .     S
C1681  C1692   1.383   .     A
C1681  C1700   1.412   .     A
C1681  S1805   1.779   .     S
C1682  C1699   1.410   .     A
C1682  C1693   1.375   .     A
C1682  S1813   1.769   .     S
C1683  C1690   1.383   .     A
C1683  C1699   1.415   .     A
C1683  S1814   1.776   .     S
C1684  C1701   1.438   .     S
C1684  O1763   1.286   .     A
C1684  O1752   1.290   .     A
C1685  C1700   1.407   .     A
C1685  C1691   1.375   .     A
C1685  S1815   1.771   .     S
C1686  C1702   1.415   .     A
C1686  S1816   1.777   .     S
C1686  C1697   1.383   .     A
C1687  C1701   1.407   .     A
C1687  S1817   1.772   .     S
C1687  C1698   1.375   .     A
C1688  S1818   1.779   .     S
C1688  C1694   1.383   .     A
C1688  C1701   1.412   .     A
C1689  S1819   1.770   .     S
C1689  C1702   1.410   .     A
C1689  C1696   1.375   .     A
C1690  C1704   1.411   .     A
C1690  S1820   1.780   .     S
C1691  S1806   1.769   .     S
C1691  C1703   1.410   .     A
C1692  S1807   1.776   .     S
C1692  C1703   1.415   .     A
C1693  S1808   1.771   .     S
C1693  C1704   1.407   .     A
C1694  S1809   1.776   .     S
C1694  C1707   1.415   .     A
C1695  O1785   1.285   .     A
C1695  O1803   1.290   .     A
C1695  C1700   1.438   .     S
C1696  S1810   1.771   .     S
C1696  C1705   1.407   .     A
C1697  S1811   1.780   .     S
C1697  C1705   1.412   .     A
C1698  S1812   1.771   .     S
C1698  C1707   1.410   .     A
C1699  C1706   1.445   .     S
C1703  C1711   1.444   .     S
C1704  C1710   1.437   .     S
C1705  C1709   1.437   .     S
C1706  O1796   1.292   .     A
C1706  O1802   1.287   .     A
C1707  C1708   1.444   .     S
C1708  O1804   1.287   .     A
C1708  O1744   1.291   .     A
C1709  O1742   1.290   .     A
C1709  O1743   1.285   .     A
C1710  O1748   1.290   .     A
C1710  O1745   1.285   .     A
C1711  O1746   1.291   .     A
C1711  O1747   1.287   .     A
C1712  N1738   1.362   .     A
C1712  H1713   1.075   .     S
H1714  O1755   0.991   .     S
H1715  O1758   0.991   .     S
H1716  O1761   0.990   .     S
H1717  O1765   0.991   .     S
H1718  O1768   0.991   .     S
H1719  O1771   0.990   .     S
H1720  O1775   0.991   .     S
H1722  O1781   0.991   .     S
H1723  O1784   0.991   .     S
H1725  O1788   0.990   .     S
H1726  O1791   0.991   .     S
H1727  O1794   0.990   .     S
H1728  O1494   0.990   1_565 S
H1729  O1801   0.991   .     S
H1736  O1751   0.990   .     S
N1737  Zn1821  2.012   .     S
N1738  Zn1822  2.012   .     S
N1739  Zn1823  2.012   .     S
N1740  Zn1824  2.012   .     S
O1741  Zn1821  2.027   .     S
O1742  Zn1824  2.027   .     S
O1743  Zn1823  2.024   .     S
O1744  Zn1520  2.024   1_565 S
O1745  Zn1520  2.024   1_565 S
O1746  Zn1823  2.024   .     S
O1747  Zn1824  2.027   .     S
O1748  Zn1519  2.027   1_565 S
O1749  S1805   1.499   .     D
O1750  S1805   1.503   .     D
O1751  S1805   1.683   .     S
O1752  Zn1670  2.027   1_655 S
O1753  S1813   1.499   .     D
O1754  S1813   1.504   .     D
O1755  S1813   1.684   .     S
O1756  S1814   1.497   .     D
O1757  S1814   1.503   .     D
O1758  S1814   1.683   .     S
O1759  S1815   1.499   .     D
O1760  S1815   1.504   .     D
O1761  S1815   1.684   .     S
O1762  S1816   1.498   .     D
O1763  Zn1669  2.024   1_655 S
O1764  S1816   1.503   .     D
O1765  S1816   1.683   .     S
O1766  S1817   1.499   .     D
O1767  S1817   1.503   .     D
O1768  S1817   1.683   .     S
O1769  S1818   1.499   .     D
O1770  S1818   1.503   .     D
O1771  S1818   1.683   .     S
O1772  S1819   1.500   .     D
O1773  S1819   1.503   .     D
O1774  Zn1822  2.024   .     S
O1775  S1819   1.683   .     S
O1776  S1820   1.500   .     D
O1777  S1820   1.503   .     D
O1778  S1820   1.683   .     S
O1778  H1417   0.990   1_565 S
O1779  S1806   1.499   .     D
O1780  S1806   1.504   .     D
O1781  S1806   1.684   .     S
O1782  S1807   1.498   .     D
O1783  S1807   1.503   .     D
O1784  S1807   1.683   .     S
O1785  Zn1670  2.024   1_655 S
O1786  S1808   1.500   .     D
O1787  S1808   1.504   .     D
O1788  S1808   1.684   .     S
O1789  S1809   1.498   .     D
O1790  S1809   1.503   .     D
O1791  S1809   1.683   .     S
O1792  S1810   1.500   .     D
O1793  S1810   1.504   .     D
O1794  S1810   1.684   .     S
O1795  S1811   1.500   .     D
O1796  Zn1821  2.024   .     S
O1797  S1811   1.503   .     D
O1798  S1811   1.683   .     S
O1799  S1812   1.499   .     D
O1800  S1812   1.503   .     D
O1801  S1812   1.683   .     S
O1802  Zn1822  2.027   .     S
O1803  Zn1669  2.027   1_655 S
O1804  Zn1519  2.027   1_565 S
