data_str_m3_o1_o17_pcu_sym.173
_audit_creation_date              2020-01-03
_audit_creation_method            'Materials Studio'
_symmetry_space_group_name_H-M    'P1'
_symmetry_Int_Tables_number       1
_symmetry_cell_setting            triclinic
loop_
_symmetry_equiv_pos_as_xyz
  x,y,z
_cell_length_a                    32.4566
_cell_length_b                    29.5164
_cell_length_c                    29.7278
_cell_angle_alpha                 90.0003
_cell_angle_beta                  89.1271
_cell_angle_gamma                 90.0004
loop_
_atom_site_label
_atom_site_type_symbol
_atom_site_fract_x
_atom_site_fract_y
_atom_site_fract_z
_atom_site_U_iso_or_equiv
_atom_site_adp_type
_atom_site_occupancy
C1     C     0.08657   0.16667   0.24988   0.00000  Uiso   1.00
C2     C     0.24676   0.16667   0.25012   0.00000  Uiso   1.00
C3     C     0.09202   0.15384   0.02621   0.00000  Uiso   1.00
C4     C     0.24131   0.15385   0.47379   0.00000  Uiso   1.00
C5     C     0.02119   0.12541   0.24996   0.00000  Uiso   1.00
C6     C     0.31214   0.20792   0.25004   0.00000  Uiso   1.00
C7     C     0.31214   0.12541   0.25010   0.00000  Uiso   1.00
C8     C     0.02119   0.20792   0.24990   0.00000  Uiso   1.00
C9     C     0.29093   0.16666   0.25013   0.00000  Uiso   1.00
C10    C     0.04240   0.16666   0.24987   0.00000  Uiso   1.00
C11    C     0.19393   0.02399   0.27555   0.00000  Uiso   1.00
C12    C     0.13940   0.30935   0.22445   0.00000  Uiso   1.00
C13    C     0.13940   0.02399   0.22444   0.00000  Uiso   1.00
C14    C     0.19394   0.30935   0.27555   0.00000  Uiso   1.00
C15    C     0.16768   0.16662   0.16349   0.00000  Uiso   1.00
C16    C     0.16565   0.16662   0.33651   0.00000  Uiso   1.00
C17    C     0.20227   0.16406   0.40556   0.00000  Uiso   1.00
C18    C     0.13106   0.16406   0.09444   0.00000  Uiso   1.00
C19    C     0.16471   0.16578   0.38429   0.00000  Uiso   1.00
C20    C     0.16862   0.16578   0.11571   0.00000  Uiso   1.00
C21    C     0.12724   0.16118   0.40761   0.00000  Uiso   1.00
C22    C     0.20609   0.16118   0.09239   0.00000  Uiso   1.00
C23    C     0.12793   0.15447   0.45435   0.00000  Uiso   1.00
C24    C     0.20540   0.15447   0.04565   0.00000  Uiso   1.00
C25    C     0.16620   0.15666   0.47652   0.00000  Uiso   1.00
C26    C     0.16713   0.15666   0.02347   0.00000  Uiso   1.00
C27    C     0.20362   0.15921   0.45187   0.00000  Uiso   1.00
C28    C     0.12970   0.15920   0.04813   0.00000  Uiso   1.00
C29    C     0.09203   0.14563   0.47997   0.00000  Uiso   1.00
C30    C     0.24129   0.14563   0.02002   0.00000  Uiso   1.00
H31    H     0.23012   0.16579   0.38514   0.00000  Uiso   1.00
H32    H     0.10321   0.16578   0.11487   0.00000  Uiso   1.00
H33    H     0.03722   0.09321   0.24995   0.00000  Uiso   1.00
H34    H     0.29612   0.24012   0.25005   0.00000  Uiso   1.00
H35    H     0.29611   0.09321   0.25016   0.00000  Uiso   1.00
H36    H     0.03722   0.24012   0.24984   0.00000  Uiso   1.00
H37    H     0.21572   0.04217   0.29600   0.00000  Uiso   1.00
H38    H     0.11761   0.29117   0.20401   0.00000  Uiso   1.00
H39    H     0.11761   0.04217   0.20400   0.00000  Uiso   1.00
H40    H     0.21573   0.29117   0.29599   0.00000  Uiso   1.00
N41    N     0.16667   0.28573   0.25000   0.00000  Uiso   1.00
N42    N     0.16667   0.04760   0.25000   0.00000  Uiso   1.00
O43    O     0.10559   0.20487   0.24999   0.00000  Uiso   1.00
O44    O     0.22774   0.12846   0.25000   0.00000  Uiso   1.00
O45    O     0.22774   0.20487   0.25000   0.00000  Uiso   1.00
O46    O     0.10559   0.12846   0.24999   0.00000  Uiso   1.00
O47    O     0.16666   0.20489   0.18392   0.00000  Uiso   1.00
O48    O     0.16667   0.12844   0.31607   0.00000  Uiso   1.00
O49    O     0.16667   0.20489   0.31607   0.00000  Uiso   1.00
O50    O     0.16666   0.12844   0.18392   0.00000  Uiso   1.00
Zn51   Zn    0.16667   0.21771   0.25000   0.00000  Uiso   1.00
Zn52   Zn    0.16667   0.11563   0.25000   0.00000  Uiso   1.00
Br53   Br    0.07682   0.17257   0.37546   0.00000  Uiso   1.00
Br54   Br    0.25651   0.17256   0.12454   0.00000  Uiso   1.00
Br55   Br    0.05100   0.10468   0.45777   0.00000  Uiso   1.00
Br56   Br    0.28232   0.10467   0.04221   0.00000  Uiso   1.00
Br57   Br    0.04041   0.15677   0.05867   0.00000  Uiso   1.00
Br58   Br    0.29292   0.15681   0.44134   0.00000  Uiso   1.00
C59    C     0.41991   0.16667   0.24988   0.00000  Uiso   1.00
C60    C     0.58009   0.16667   0.25012   0.00000  Uiso   1.00
C61    C     0.42535   0.15384   0.02621   0.00000  Uiso   1.00
C62    C     0.57464   0.15385   0.47379   0.00000  Uiso   1.00
C63    C     0.35453   0.12541   0.24996   0.00000  Uiso   1.00
C64    C     0.64547   0.20792   0.25004   0.00000  Uiso   1.00
C65    C     0.64547   0.12541   0.25010   0.00000  Uiso   1.00
C66    C     0.35453   0.20792   0.24990   0.00000  Uiso   1.00
C67    C     0.62426   0.16666   0.25013   0.00000  Uiso   1.00
C68    C     0.37574   0.16666   0.24987   0.00000  Uiso   1.00
C69    C     0.52727   0.02399   0.27555   0.00000  Uiso   1.00
C70    C     0.47273   0.30935   0.22445   0.00000  Uiso   1.00
C71    C     0.47273   0.02399   0.22444   0.00000  Uiso   1.00
C72    C     0.52727   0.30935   0.27555   0.00000  Uiso   1.00
C73    C     0.50101   0.16662   0.16349   0.00000  Uiso   1.00
C74    C     0.49899   0.16662   0.33651   0.00000  Uiso   1.00
C75    C     0.53560   0.16406   0.40556   0.00000  Uiso   1.00
C76    C     0.46440   0.16406   0.09444   0.00000  Uiso   1.00
C77    C     0.49804   0.16578   0.38429   0.00000  Uiso   1.00
C78    C     0.50196   0.16578   0.11571   0.00000  Uiso   1.00
C79    C     0.46057   0.16118   0.40761   0.00000  Uiso   1.00
C80    C     0.53942   0.16118   0.09239   0.00000  Uiso   1.00
C81    C     0.46126   0.15447   0.45435   0.00000  Uiso   1.00
C82    C     0.53873   0.15447   0.04565   0.00000  Uiso   1.00
C83    C     0.49953   0.15666   0.47652   0.00000  Uiso   1.00
C84    C     0.50046   0.15666   0.02347   0.00000  Uiso   1.00
C85    C     0.53696   0.15921   0.45187   0.00000  Uiso   1.00
C86    C     0.46304   0.15920   0.04813   0.00000  Uiso   1.00
C87    C     0.42537   0.14563   0.47997   0.00000  Uiso   1.00
C88    C     0.57463   0.14563   0.02002   0.00000  Uiso   1.00
H89    H     0.56346   0.16579   0.38514   0.00000  Uiso   1.00
H90    H     0.43654   0.16578   0.11487   0.00000  Uiso   1.00
H91    H     0.37055   0.09321   0.24995   0.00000  Uiso   1.00
H92    H     0.62945   0.24012   0.25005   0.00000  Uiso   1.00
H93    H     0.62945   0.09321   0.25016   0.00000  Uiso   1.00
H94    H     0.37055   0.24012   0.24984   0.00000  Uiso   1.00
H95    H     0.54906   0.04217   0.29600   0.00000  Uiso   1.00
H96    H     0.45094   0.29117   0.20401   0.00000  Uiso   1.00
H97    H     0.45094   0.04217   0.20400   0.00000  Uiso   1.00
H98    H     0.54906   0.29117   0.29599   0.00000  Uiso   1.00
N99    N     0.50000   0.28573   0.25000   0.00000  Uiso   1.00
N100   N     0.50000   0.04760   0.25000   0.00000  Uiso   1.00
O101   O     0.43892   0.20487   0.24999   0.00000  Uiso   1.00
O102   O     0.56108   0.12846   0.25000   0.00000  Uiso   1.00
O103   O     0.56108   0.20487   0.25000   0.00000  Uiso   1.00
O104   O     0.43892   0.12846   0.24999   0.00000  Uiso   1.00
O105   O     0.49999   0.20489   0.18392   0.00000  Uiso   1.00
O106   O     0.50001   0.12844   0.31607   0.00000  Uiso   1.00
O107   O     0.50001   0.20489   0.31607   0.00000  Uiso   1.00
O108   O     0.49999   0.12844   0.18392   0.00000  Uiso   1.00
Zn109  Zn    0.50000   0.21771   0.25000   0.00000  Uiso   1.00
Zn110  Zn    0.50000   0.11563   0.25000   0.00000  Uiso   1.00
Br111  Br    0.41015   0.17257   0.37546   0.00000  Uiso   1.00
Br112  Br    0.58985   0.17256   0.12454   0.00000  Uiso   1.00
Br113  Br    0.38433   0.10468   0.45777   0.00000  Uiso   1.00
Br114  Br    0.61566   0.10467   0.04221   0.00000  Uiso   1.00
Br115  Br    0.37374   0.15677   0.05867   0.00000  Uiso   1.00
Br116  Br    0.62625   0.15681   0.44134   0.00000  Uiso   1.00
C117   C     0.75324   0.16667   0.24988   0.00000  Uiso   1.00
C118   C     0.91343   0.16667   0.25012   0.00000  Uiso   1.00
C119   C     0.75868   0.15384   0.02621   0.00000  Uiso   1.00
C120   C     0.90798   0.15385   0.47379   0.00000  Uiso   1.00
C121   C     0.68786   0.12541   0.24996   0.00000  Uiso   1.00
C122   C     0.97881   0.20792   0.25004   0.00000  Uiso   1.00
C123   C     0.97880   0.12541   0.25010   0.00000  Uiso   1.00
C124   C     0.68786   0.20792   0.24990   0.00000  Uiso   1.00
C125   C     0.95760   0.16666   0.25013   0.00000  Uiso   1.00
C126   C     0.70907   0.16666   0.24987   0.00000  Uiso   1.00
C127   C     0.86060   0.02399   0.27555   0.00000  Uiso   1.00
C128   C     0.80606   0.30935   0.22445   0.00000  Uiso   1.00
C129   C     0.80606   0.02399   0.22444   0.00000  Uiso   1.00
C130   C     0.86060   0.30935   0.27555   0.00000  Uiso   1.00
C131   C     0.83434   0.16662   0.16349   0.00000  Uiso   1.00
C132   C     0.83232   0.16662   0.33651   0.00000  Uiso   1.00
C133   C     0.86893   0.16406   0.40556   0.00000  Uiso   1.00
C134   C     0.79773   0.16406   0.09444   0.00000  Uiso   1.00
C135   C     0.83137   0.16578   0.38429   0.00000  Uiso   1.00
C136   C     0.83529   0.16578   0.11571   0.00000  Uiso   1.00
C137   C     0.79391   0.16118   0.40761   0.00000  Uiso   1.00
C138   C     0.87276   0.16118   0.09239   0.00000  Uiso   1.00
C139   C     0.79459   0.15447   0.45435   0.00000  Uiso   1.00
C140   C     0.87207   0.15447   0.04565   0.00000  Uiso   1.00
C141   C     0.83287   0.15666   0.47652   0.00000  Uiso   1.00
C142   C     0.83379   0.15666   0.02347   0.00000  Uiso   1.00
C143   C     0.87029   0.15921   0.45187   0.00000  Uiso   1.00
C144   C     0.79637   0.15920   0.04813   0.00000  Uiso   1.00
C145   C     0.75870   0.14563   0.47997   0.00000  Uiso   1.00
C146   C     0.90796   0.14563   0.02002   0.00000  Uiso   1.00
H147   H     0.89679   0.16579   0.38514   0.00000  Uiso   1.00
H148   H     0.76988   0.16578   0.11487   0.00000  Uiso   1.00
H149   H     0.70388   0.09321   0.24995   0.00000  Uiso   1.00
H150   H     0.96279   0.24012   0.25005   0.00000  Uiso   1.00
H151   H     0.96278   0.09321   0.25016   0.00000  Uiso   1.00
H152   H     0.70389   0.24012   0.24984   0.00000  Uiso   1.00
H153   H     0.88239   0.04217   0.29600   0.00000  Uiso   1.00
H154   H     0.78427   0.29117   0.20401   0.00000  Uiso   1.00
H155   H     0.78428   0.04217   0.20400   0.00000  Uiso   1.00
H156   H     0.88239   0.29117   0.29599   0.00000  Uiso   1.00
N157   N     0.83333   0.28573   0.25000   0.00000  Uiso   1.00
N158   N     0.83333   0.04760   0.25000   0.00000  Uiso   1.00
O159   O     0.77226   0.20487   0.24999   0.00000  Uiso   1.00
O160   O     0.89441   0.12846   0.25000   0.00000  Uiso   1.00
O161   O     0.89441   0.20487   0.25000   0.00000  Uiso   1.00
O162   O     0.77226   0.12846   0.24999   0.00000  Uiso   1.00
O163   O     0.83333   0.20489   0.18392   0.00000  Uiso   1.00
O164   O     0.83334   0.12844   0.31607   0.00000  Uiso   1.00
O165   O     0.83334   0.20489   0.31607   0.00000  Uiso   1.00
O166   O     0.83333   0.12844   0.18392   0.00000  Uiso   1.00
Zn167  Zn    0.83333   0.21771   0.25000   0.00000  Uiso   1.00
Zn168  Zn    0.83333   0.11563   0.25000   0.00000  Uiso   1.00
Br169  Br    0.74349   0.17257   0.37546   0.00000  Uiso   1.00
Br170  Br    0.92318   0.17256   0.12454   0.00000  Uiso   1.00
Br171  Br    0.71767   0.10468   0.45777   0.00000  Uiso   1.00
Br172  Br    0.94899   0.10467   0.04221   0.00000  Uiso   1.00
Br173  Br    0.70708   0.15677   0.05867   0.00000  Uiso   1.00
Br174  Br    0.95959   0.15681   0.44134   0.00000  Uiso   1.00
C175   C     0.08657   0.50000   0.24988   0.00000  Uiso   1.00
C176   C     0.24676   0.50000   0.25012   0.00000  Uiso   1.00
C177   C     0.09202   0.48717   0.02621   0.00000  Uiso   1.00
C178   C     0.24131   0.48718   0.47379   0.00000  Uiso   1.00
C179   C     0.02119   0.45874   0.24996   0.00000  Uiso   1.00
C180   C     0.31214   0.54125   0.25004   0.00000  Uiso   1.00
C181   C     0.31214   0.45874   0.25010   0.00000  Uiso   1.00
C182   C     0.02119   0.54125   0.24990   0.00000  Uiso   1.00
C183   C     0.29093   0.50000   0.25013   0.00000  Uiso   1.00
C184   C     0.04240   0.50000   0.24987   0.00000  Uiso   1.00
C185   C     0.19393   0.35732   0.27555   0.00000  Uiso   1.00
C186   C     0.13940   0.64268   0.22445   0.00000  Uiso   1.00
C187   C     0.13940   0.35732   0.22444   0.00000  Uiso   1.00
C188   C     0.19394   0.64268   0.27555   0.00000  Uiso   1.00
C189   C     0.16768   0.49995   0.16349   0.00000  Uiso   1.00
C190   C     0.16565   0.49995   0.33651   0.00000  Uiso   1.00
C191   C     0.20227   0.49740   0.40556   0.00000  Uiso   1.00
C192   C     0.13106   0.49739   0.09444   0.00000  Uiso   1.00
C193   C     0.16471   0.49911   0.38429   0.00000  Uiso   1.00
C194   C     0.16862   0.49911   0.11571   0.00000  Uiso   1.00
C195   C     0.12724   0.49452   0.40761   0.00000  Uiso   1.00
C196   C     0.20609   0.49452   0.09239   0.00000  Uiso   1.00
C197   C     0.12793   0.48780   0.45435   0.00000  Uiso   1.00
C198   C     0.20540   0.48780   0.04565   0.00000  Uiso   1.00
C199   C     0.16620   0.49000   0.47652   0.00000  Uiso   1.00
C200   C     0.16713   0.49000   0.02347   0.00000  Uiso   1.00
C201   C     0.20362   0.49254   0.45187   0.00000  Uiso   1.00
C202   C     0.12970   0.49253   0.04813   0.00000  Uiso   1.00
C203   C     0.09203   0.47896   0.47997   0.00000  Uiso   1.00
C204   C     0.24129   0.47897   0.02002   0.00000  Uiso   1.00
H205   H     0.23012   0.49913   0.38514   0.00000  Uiso   1.00
H206   H     0.10321   0.49912   0.11487   0.00000  Uiso   1.00
H207   H     0.03722   0.42654   0.24995   0.00000  Uiso   1.00
H208   H     0.29612   0.57345   0.25005   0.00000  Uiso   1.00
H209   H     0.29611   0.42654   0.25016   0.00000  Uiso   1.00
H210   H     0.03722   0.57345   0.24984   0.00000  Uiso   1.00
H211   H     0.21572   0.37550   0.29600   0.00000  Uiso   1.00
H212   H     0.11761   0.62450   0.20401   0.00000  Uiso   1.00
H213   H     0.11761   0.37550   0.20400   0.00000  Uiso   1.00
H214   H     0.21573   0.62450   0.29599   0.00000  Uiso   1.00
N215   N     0.16667   0.61907   0.25000   0.00000  Uiso   1.00
N216   N     0.16667   0.38093   0.25000   0.00000  Uiso   1.00
O217   O     0.10559   0.53821   0.24999   0.00000  Uiso   1.00
O218   O     0.22774   0.46179   0.25000   0.00000  Uiso   1.00
O219   O     0.22774   0.53821   0.25000   0.00000  Uiso   1.00
O220   O     0.10559   0.46179   0.24999   0.00000  Uiso   1.00
O221   O     0.16666   0.53823   0.18392   0.00000  Uiso   1.00
O222   O     0.16667   0.46177   0.31607   0.00000  Uiso   1.00
O223   O     0.16667   0.53823   0.31607   0.00000  Uiso   1.00
O224   O     0.16666   0.46177   0.18392   0.00000  Uiso   1.00
Zn225  Zn    0.16667   0.55104   0.25000   0.00000  Uiso   1.00
Zn226  Zn    0.16667   0.44896   0.25000   0.00000  Uiso   1.00
Br227  Br    0.07682   0.50590   0.37546   0.00000  Uiso   1.00
Br228  Br    0.25651   0.50589   0.12454   0.00000  Uiso   1.00
Br229  Br    0.05100   0.43801   0.45777   0.00000  Uiso   1.00
Br230  Br    0.28232   0.43800   0.04221   0.00000  Uiso   1.00
Br231  Br    0.04041   0.49010   0.05867   0.00000  Uiso   1.00
Br232  Br    0.29292   0.49014   0.44134   0.00000  Uiso   1.00
C233   C     0.41991   0.50000   0.24988   0.00000  Uiso   1.00
C234   C     0.58009   0.50000   0.25012   0.00000  Uiso   1.00
C235   C     0.42535   0.48717   0.02621   0.00000  Uiso   1.00
C236   C     0.57464   0.48718   0.47379   0.00000  Uiso   1.00
C237   C     0.35453   0.45874   0.24996   0.00000  Uiso   1.00
C238   C     0.64547   0.54125   0.25004   0.00000  Uiso   1.00
C239   C     0.64547   0.45874   0.25010   0.00000  Uiso   1.00
C240   C     0.35453   0.54125   0.24990   0.00000  Uiso   1.00
C241   C     0.62426   0.50000   0.25013   0.00000  Uiso   1.00
C242   C     0.37574   0.50000   0.24987   0.00000  Uiso   1.00
C243   C     0.52727   0.35732   0.27555   0.00000  Uiso   1.00
C244   C     0.47273   0.64268   0.22445   0.00000  Uiso   1.00
C245   C     0.47273   0.35732   0.22444   0.00000  Uiso   1.00
C246   C     0.52727   0.64268   0.27555   0.00000  Uiso   1.00
C247   C     0.50101   0.49995   0.16349   0.00000  Uiso   1.00
C248   C     0.49899   0.49995   0.33651   0.00000  Uiso   1.00
C249   C     0.53560   0.49740   0.40556   0.00000  Uiso   1.00
C250   C     0.46440   0.49739   0.09444   0.00000  Uiso   1.00
C251   C     0.49804   0.49911   0.38429   0.00000  Uiso   1.00
C252   C     0.50196   0.49911   0.11571   0.00000  Uiso   1.00
C253   C     0.46057   0.49452   0.40761   0.00000  Uiso   1.00
C254   C     0.53942   0.49452   0.09239   0.00000  Uiso   1.00
C255   C     0.46126   0.48780   0.45435   0.00000  Uiso   1.00
C256   C     0.53873   0.48780   0.04565   0.00000  Uiso   1.00
C257   C     0.49953   0.49000   0.47652   0.00000  Uiso   1.00
C258   C     0.50046   0.49000   0.02347   0.00000  Uiso   1.00
C259   C     0.53696   0.49254   0.45187   0.00000  Uiso   1.00
C260   C     0.46304   0.49253   0.04813   0.00000  Uiso   1.00
C261   C     0.42537   0.47896   0.47997   0.00000  Uiso   1.00
C262   C     0.57463   0.47897   0.02002   0.00000  Uiso   1.00
H263   H     0.56346   0.49913   0.38514   0.00000  Uiso   1.00
H264   H     0.43654   0.49912   0.11487   0.00000  Uiso   1.00
H265   H     0.37055   0.42654   0.24995   0.00000  Uiso   1.00
H266   H     0.62945   0.57345   0.25005   0.00000  Uiso   1.00
H267   H     0.62945   0.42654   0.25016   0.00000  Uiso   1.00
H268   H     0.37055   0.57345   0.24984   0.00000  Uiso   1.00
H269   H     0.54906   0.37550   0.29600   0.00000  Uiso   1.00
H270   H     0.45094   0.62450   0.20401   0.00000  Uiso   1.00
H271   H     0.45094   0.37550   0.20400   0.00000  Uiso   1.00
H272   H     0.54906   0.62450   0.29599   0.00000  Uiso   1.00
N273   N     0.50000   0.61907   0.25000   0.00000  Uiso   1.00
N274   N     0.50000   0.38093   0.25000   0.00000  Uiso   1.00
O275   O     0.43892   0.53821   0.24999   0.00000  Uiso   1.00
O276   O     0.56108   0.46179   0.25000   0.00000  Uiso   1.00
O277   O     0.56108   0.53821   0.25000   0.00000  Uiso   1.00
O278   O     0.43892   0.46179   0.24999   0.00000  Uiso   1.00
O279   O     0.49999   0.53823   0.18392   0.00000  Uiso   1.00
O280   O     0.50001   0.46177   0.31607   0.00000  Uiso   1.00
O281   O     0.50001   0.53823   0.31607   0.00000  Uiso   1.00
O282   O     0.49999   0.46177   0.18392   0.00000  Uiso   1.00
Zn283  Zn    0.50000   0.55104   0.25000   0.00000  Uiso   1.00
Zn284  Zn    0.50000   0.44896   0.25000   0.00000  Uiso   1.00
Br285  Br    0.41015   0.50590   0.37546   0.00000  Uiso   1.00
Br286  Br    0.58985   0.50589   0.12454   0.00000  Uiso   1.00
Br287  Br    0.38433   0.43801   0.45777   0.00000  Uiso   1.00
Br288  Br    0.61566   0.43800   0.04221   0.00000  Uiso   1.00
Br289  Br    0.37374   0.49010   0.05867   0.00000  Uiso   1.00
Br290  Br    0.62625   0.49014   0.44134   0.00000  Uiso   1.00
C291   C     0.75324   0.50000   0.24988   0.00000  Uiso   1.00
C292   C     0.91343   0.50000   0.25012   0.00000  Uiso   1.00
C293   C     0.75868   0.48717   0.02621   0.00000  Uiso   1.00
C294   C     0.90798   0.48718   0.47379   0.00000  Uiso   1.00
C295   C     0.68786   0.45874   0.24996   0.00000  Uiso   1.00
C296   C     0.97881   0.54125   0.25004   0.00000  Uiso   1.00
C297   C     0.97880   0.45874   0.25010   0.00000  Uiso   1.00
C298   C     0.68786   0.54125   0.24990   0.00000  Uiso   1.00
C299   C     0.95760   0.50000   0.25013   0.00000  Uiso   1.00
C300   C     0.70907   0.50000   0.24987   0.00000  Uiso   1.00
C301   C     0.86060   0.35732   0.27555   0.00000  Uiso   1.00
C302   C     0.80606   0.64268   0.22445   0.00000  Uiso   1.00
C303   C     0.80606   0.35732   0.22444   0.00000  Uiso   1.00
C304   C     0.86060   0.64268   0.27555   0.00000  Uiso   1.00
C305   C     0.83434   0.49995   0.16349   0.00000  Uiso   1.00
C306   C     0.83232   0.49995   0.33651   0.00000  Uiso   1.00
C307   C     0.86893   0.49740   0.40556   0.00000  Uiso   1.00
C308   C     0.79773   0.49739   0.09444   0.00000  Uiso   1.00
C309   C     0.83137   0.49911   0.38429   0.00000  Uiso   1.00
C310   C     0.83529   0.49911   0.11571   0.00000  Uiso   1.00
C311   C     0.79391   0.49452   0.40761   0.00000  Uiso   1.00
C312   C     0.87276   0.49452   0.09239   0.00000  Uiso   1.00
C313   C     0.79459   0.48780   0.45435   0.00000  Uiso   1.00
C314   C     0.87207   0.48780   0.04565   0.00000  Uiso   1.00
C315   C     0.83287   0.49000   0.47652   0.00000  Uiso   1.00
C316   C     0.83379   0.49000   0.02347   0.00000  Uiso   1.00
C317   C     0.87029   0.49254   0.45187   0.00000  Uiso   1.00
C318   C     0.79637   0.49253   0.04813   0.00000  Uiso   1.00
C319   C     0.75870   0.47896   0.47997   0.00000  Uiso   1.00
C320   C     0.90796   0.47897   0.02002   0.00000  Uiso   1.00
H321   H     0.89679   0.49913   0.38514   0.00000  Uiso   1.00
H322   H     0.76988   0.49912   0.11487   0.00000  Uiso   1.00
H323   H     0.70388   0.42654   0.24995   0.00000  Uiso   1.00
H324   H     0.96279   0.57345   0.25005   0.00000  Uiso   1.00
H325   H     0.96278   0.42654   0.25016   0.00000  Uiso   1.00
H326   H     0.70389   0.57345   0.24984   0.00000  Uiso   1.00
H327   H     0.88239   0.37550   0.29600   0.00000  Uiso   1.00
H328   H     0.78427   0.62450   0.20401   0.00000  Uiso   1.00
H329   H     0.78428   0.37550   0.20400   0.00000  Uiso   1.00
H330   H     0.88239   0.62450   0.29599   0.00000  Uiso   1.00
N331   N     0.83333   0.61907   0.25000   0.00000  Uiso   1.00
N332   N     0.83333   0.38093   0.25000   0.00000  Uiso   1.00
O333   O     0.77226   0.53821   0.24999   0.00000  Uiso   1.00
O334   O     0.89441   0.46179   0.25000   0.00000  Uiso   1.00
O335   O     0.89441   0.53821   0.25000   0.00000  Uiso   1.00
O336   O     0.77226   0.46179   0.24999   0.00000  Uiso   1.00
O337   O     0.83333   0.53823   0.18392   0.00000  Uiso   1.00
O338   O     0.83334   0.46177   0.31607   0.00000  Uiso   1.00
O339   O     0.83334   0.53823   0.31607   0.00000  Uiso   1.00
O340   O     0.83333   0.46177   0.18392   0.00000  Uiso   1.00
Zn341  Zn    0.83333   0.55104   0.25000   0.00000  Uiso   1.00
Zn342  Zn    0.83333   0.44896   0.25000   0.00000  Uiso   1.00
Br343  Br    0.74349   0.50590   0.37546   0.00000  Uiso   1.00
Br344  Br    0.92318   0.50589   0.12454   0.00000  Uiso   1.00
Br345  Br    0.71767   0.43801   0.45777   0.00000  Uiso   1.00
Br346  Br    0.94899   0.43800   0.04221   0.00000  Uiso   1.00
Br347  Br    0.70708   0.49010   0.05867   0.00000  Uiso   1.00
Br348  Br    0.95959   0.49014   0.44134   0.00000  Uiso   1.00
C349   C     0.08657   0.83333   0.24988   0.00000  Uiso   1.00
C350   C     0.24676   0.83333   0.25012   0.00000  Uiso   1.00
C351   C     0.09202   0.82050   0.02621   0.00000  Uiso   1.00
C352   C     0.24131   0.82051   0.47379   0.00000  Uiso   1.00
C353   C     0.02119   0.79207   0.24996   0.00000  Uiso   1.00
C354   C     0.31214   0.87458   0.25004   0.00000  Uiso   1.00
C355   C     0.31214   0.79207   0.25010   0.00000  Uiso   1.00
C356   C     0.02119   0.87458   0.24990   0.00000  Uiso   1.00
C357   C     0.29093   0.83333   0.25013   0.00000  Uiso   1.00
C358   C     0.04240   0.83333   0.24987   0.00000  Uiso   1.00
C359   C     0.19393   0.69065   0.27555   0.00000  Uiso   1.00
C360   C     0.13940   0.97602   0.22445   0.00000  Uiso   1.00
C361   C     0.13940   0.69065   0.22444   0.00000  Uiso   1.00
C362   C     0.19394   0.97602   0.27555   0.00000  Uiso   1.00
C363   C     0.16768   0.83328   0.16349   0.00000  Uiso   1.00
C364   C     0.16565   0.83328   0.33651   0.00000  Uiso   1.00
C365   C     0.20227   0.83073   0.40556   0.00000  Uiso   1.00
C366   C     0.13106   0.83072   0.09444   0.00000  Uiso   1.00
C367   C     0.16471   0.83245   0.38429   0.00000  Uiso   1.00
C368   C     0.16862   0.83245   0.11571   0.00000  Uiso   1.00
C369   C     0.12724   0.82785   0.40761   0.00000  Uiso   1.00
C370   C     0.20609   0.82785   0.09239   0.00000  Uiso   1.00
C371   C     0.12793   0.82114   0.45435   0.00000  Uiso   1.00
C372   C     0.20540   0.82114   0.04565   0.00000  Uiso   1.00
C373   C     0.16620   0.82333   0.47652   0.00000  Uiso   1.00
C374   C     0.16713   0.82333   0.02347   0.00000  Uiso   1.00
C375   C     0.20362   0.82587   0.45187   0.00000  Uiso   1.00
C376   C     0.12970   0.82587   0.04813   0.00000  Uiso   1.00
C377   C     0.09203   0.81229   0.47997   0.00000  Uiso   1.00
C378   C     0.24129   0.81230   0.02002   0.00000  Uiso   1.00
H379   H     0.23012   0.83246   0.38514   0.00000  Uiso   1.00
H380   H     0.10321   0.83245   0.11487   0.00000  Uiso   1.00
H381   H     0.03722   0.75988   0.24995   0.00000  Uiso   1.00
H382   H     0.29612   0.90678   0.25005   0.00000  Uiso   1.00
H383   H     0.29611   0.75988   0.25016   0.00000  Uiso   1.00
H384   H     0.03722   0.90678   0.24984   0.00000  Uiso   1.00
H385   H     0.21572   0.70884   0.29600   0.00000  Uiso   1.00
H386   H     0.11761   0.95783   0.20401   0.00000  Uiso   1.00
H387   H     0.11761   0.70884   0.20400   0.00000  Uiso   1.00
H388   H     0.21573   0.95783   0.29599   0.00000  Uiso   1.00
N389   N     0.16667   0.95240   0.25000   0.00000  Uiso   1.00
N390   N     0.16667   0.71427   0.25000   0.00000  Uiso   1.00
O391   O     0.10559   0.87154   0.24999   0.00000  Uiso   1.00
O392   O     0.22774   0.79513   0.25000   0.00000  Uiso   1.00
O393   O     0.22774   0.87154   0.25000   0.00000  Uiso   1.00
O394   O     0.10559   0.79513   0.24999   0.00000  Uiso   1.00
O395   O     0.16666   0.87156   0.18392   0.00000  Uiso   1.00
O396   O     0.16667   0.79511   0.31607   0.00000  Uiso   1.00
O397   O     0.16667   0.87156   0.31607   0.00000  Uiso   1.00
O398   O     0.16666   0.79511   0.18392   0.00000  Uiso   1.00
Zn399  Zn    0.16667   0.88437   0.25000   0.00000  Uiso   1.00
Zn400  Zn    0.16667   0.78229   0.25000   0.00000  Uiso   1.00
Br401  Br    0.07682   0.83924   0.37546   0.00000  Uiso   1.00
Br402  Br    0.25651   0.83923   0.12454   0.00000  Uiso   1.00
Br403  Br    0.05100   0.77134   0.45777   0.00000  Uiso   1.00
Br404  Br    0.28232   0.77133   0.04221   0.00000  Uiso   1.00
Br405  Br    0.04041   0.82343   0.05867   0.00000  Uiso   1.00
Br406  Br    0.29292   0.82347   0.44134   0.00000  Uiso   1.00
C407   C     0.41991   0.83333   0.24988   0.00000  Uiso   1.00
C408   C     0.58009   0.83333   0.25012   0.00000  Uiso   1.00
C409   C     0.42535   0.82050   0.02621   0.00000  Uiso   1.00
C410   C     0.57464   0.82051   0.47379   0.00000  Uiso   1.00
C411   C     0.35453   0.79207   0.24996   0.00000  Uiso   1.00
C412   C     0.64547   0.87458   0.25004   0.00000  Uiso   1.00
C413   C     0.64547   0.79207   0.25010   0.00000  Uiso   1.00
C414   C     0.35453   0.87458   0.24990   0.00000  Uiso   1.00
C415   C     0.62426   0.83333   0.25013   0.00000  Uiso   1.00
C416   C     0.37574   0.83333   0.24987   0.00000  Uiso   1.00
C417   C     0.52727   0.69065   0.27555   0.00000  Uiso   1.00
C418   C     0.47273   0.97602   0.22445   0.00000  Uiso   1.00
C419   C     0.47273   0.69065   0.22444   0.00000  Uiso   1.00
C420   C     0.52727   0.97602   0.27555   0.00000  Uiso   1.00
C421   C     0.50101   0.83328   0.16349   0.00000  Uiso   1.00
C422   C     0.49899   0.83328   0.33651   0.00000  Uiso   1.00
C423   C     0.53560   0.83073   0.40556   0.00000  Uiso   1.00
C424   C     0.46440   0.83072   0.09444   0.00000  Uiso   1.00
C425   C     0.49804   0.83245   0.38429   0.00000  Uiso   1.00
C426   C     0.50196   0.83245   0.11571   0.00000  Uiso   1.00
C427   C     0.46057   0.82785   0.40761   0.00000  Uiso   1.00
C428   C     0.53942   0.82785   0.09239   0.00000  Uiso   1.00
C429   C     0.46126   0.82114   0.45435   0.00000  Uiso   1.00
C430   C     0.53873   0.82114   0.04565   0.00000  Uiso   1.00
C431   C     0.49953   0.82333   0.47652   0.00000  Uiso   1.00
C432   C     0.50046   0.82333   0.02347   0.00000  Uiso   1.00
C433   C     0.53696   0.82587   0.45187   0.00000  Uiso   1.00
C434   C     0.46304   0.82587   0.04813   0.00000  Uiso   1.00
C435   C     0.42537   0.81229   0.47997   0.00000  Uiso   1.00
C436   C     0.57463   0.81230   0.02002   0.00000  Uiso   1.00
H437   H     0.56346   0.83246   0.38514   0.00000  Uiso   1.00
H438   H     0.43654   0.83245   0.11487   0.00000  Uiso   1.00
H439   H     0.37055   0.75988   0.24995   0.00000  Uiso   1.00
H440   H     0.62945   0.90678   0.25005   0.00000  Uiso   1.00
H441   H     0.62945   0.75988   0.25016   0.00000  Uiso   1.00
H442   H     0.37055   0.90678   0.24984   0.00000  Uiso   1.00
H443   H     0.54906   0.70884   0.29600   0.00000  Uiso   1.00
H444   H     0.45094   0.95783   0.20401   0.00000  Uiso   1.00
H445   H     0.45094   0.70884   0.20400   0.00000  Uiso   1.00
H446   H     0.54906   0.95783   0.29599   0.00000  Uiso   1.00
N447   N     0.50000   0.95240   0.25000   0.00000  Uiso   1.00
N448   N     0.50000   0.71427   0.25000   0.00000  Uiso   1.00
O449   O     0.43892   0.87154   0.24999   0.00000  Uiso   1.00
O450   O     0.56108   0.79513   0.25000   0.00000  Uiso   1.00
O451   O     0.56108   0.87154   0.25000   0.00000  Uiso   1.00
O452   O     0.43892   0.79513   0.24999   0.00000  Uiso   1.00
O453   O     0.49999   0.87156   0.18392   0.00000  Uiso   1.00
O454   O     0.50001   0.79511   0.31607   0.00000  Uiso   1.00
O455   O     0.50001   0.87156   0.31607   0.00000  Uiso   1.00
O456   O     0.49999   0.79511   0.18392   0.00000  Uiso   1.00
Zn457  Zn    0.50000   0.88437   0.25000   0.00000  Uiso   1.00
Zn458  Zn    0.50000   0.78229   0.25000   0.00000  Uiso   1.00
Br459  Br    0.41015   0.83924   0.37546   0.00000  Uiso   1.00
Br460  Br    0.58985   0.83923   0.12454   0.00000  Uiso   1.00
Br461  Br    0.38433   0.77134   0.45777   0.00000  Uiso   1.00
Br462  Br    0.61566   0.77133   0.04221   0.00000  Uiso   1.00
Br463  Br    0.37374   0.82343   0.05867   0.00000  Uiso   1.00
Br464  Br    0.62625   0.82347   0.44134   0.00000  Uiso   1.00
C465   C     0.75324   0.83333   0.24988   0.00000  Uiso   1.00
C466   C     0.91343   0.83333   0.25012   0.00000  Uiso   1.00
C467   C     0.75868   0.82050   0.02621   0.00000  Uiso   1.00
C468   C     0.90798   0.82051   0.47379   0.00000  Uiso   1.00
C469   C     0.68786   0.79207   0.24996   0.00000  Uiso   1.00
C470   C     0.97881   0.87458   0.25004   0.00000  Uiso   1.00
C471   C     0.97880   0.79207   0.25010   0.00000  Uiso   1.00
C472   C     0.68786   0.87458   0.24990   0.00000  Uiso   1.00
C473   C     0.95760   0.83333   0.25013   0.00000  Uiso   1.00
C474   C     0.70907   0.83333   0.24987   0.00000  Uiso   1.00
C475   C     0.86060   0.69065   0.27555   0.00000  Uiso   1.00
C476   C     0.80606   0.97602   0.22445   0.00000  Uiso   1.00
C477   C     0.80606   0.69065   0.22444   0.00000  Uiso   1.00
C478   C     0.86060   0.97602   0.27555   0.00000  Uiso   1.00
C479   C     0.83434   0.83328   0.16349   0.00000  Uiso   1.00
C480   C     0.83232   0.83328   0.33651   0.00000  Uiso   1.00
C481   C     0.86893   0.83073   0.40556   0.00000  Uiso   1.00
C482   C     0.79773   0.83072   0.09444   0.00000  Uiso   1.00
C483   C     0.83137   0.83245   0.38429   0.00000  Uiso   1.00
C484   C     0.83529   0.83245   0.11571   0.00000  Uiso   1.00
C485   C     0.79391   0.82785   0.40761   0.00000  Uiso   1.00
C486   C     0.87276   0.82785   0.09239   0.00000  Uiso   1.00
C487   C     0.79459   0.82114   0.45435   0.00000  Uiso   1.00
C488   C     0.87207   0.82114   0.04565   0.00000  Uiso   1.00
C489   C     0.83287   0.82333   0.47652   0.00000  Uiso   1.00
C490   C     0.83379   0.82333   0.02347   0.00000  Uiso   1.00
C491   C     0.87029   0.82587   0.45187   0.00000  Uiso   1.00
C492   C     0.79637   0.82587   0.04813   0.00000  Uiso   1.00
C493   C     0.75870   0.81229   0.47997   0.00000  Uiso   1.00
C494   C     0.90796   0.81230   0.02002   0.00000  Uiso   1.00
H495   H     0.89679   0.83246   0.38514   0.00000  Uiso   1.00
H496   H     0.76988   0.83245   0.11487   0.00000  Uiso   1.00
H497   H     0.70388   0.75988   0.24995   0.00000  Uiso   1.00
H498   H     0.96279   0.90678   0.25005   0.00000  Uiso   1.00
H499   H     0.96278   0.75988   0.25016   0.00000  Uiso   1.00
H500   H     0.70389   0.90678   0.24984   0.00000  Uiso   1.00
H501   H     0.88239   0.70884   0.29600   0.00000  Uiso   1.00
H502   H     0.78427   0.95783   0.20401   0.00000  Uiso   1.00
H503   H     0.78428   0.70884   0.20400   0.00000  Uiso   1.00
H504   H     0.88239   0.95783   0.29599   0.00000  Uiso   1.00
N505   N     0.83333   0.95240   0.25000   0.00000  Uiso   1.00
N506   N     0.83333   0.71427   0.25000   0.00000  Uiso   1.00
O507   O     0.77226   0.87154   0.24999   0.00000  Uiso   1.00
O508   O     0.89441   0.79513   0.25000   0.00000  Uiso   1.00
O509   O     0.89441   0.87154   0.25000   0.00000  Uiso   1.00
O510   O     0.77226   0.79513   0.24999   0.00000  Uiso   1.00
O511   O     0.83333   0.87156   0.18392   0.00000  Uiso   1.00
O512   O     0.83334   0.79511   0.31607   0.00000  Uiso   1.00
O513   O     0.83334   0.87156   0.31607   0.00000  Uiso   1.00
O514   O     0.83333   0.79511   0.18392   0.00000  Uiso   1.00
Zn515  Zn    0.83333   0.88437   0.25000   0.00000  Uiso   1.00
Zn516  Zn    0.83333   0.78229   0.25000   0.00000  Uiso   1.00
Br517  Br    0.74349   0.83924   0.37546   0.00000  Uiso   1.00
Br518  Br    0.92318   0.83923   0.12454   0.00000  Uiso   1.00
Br519  Br    0.71767   0.77134   0.45777   0.00000  Uiso   1.00
Br520  Br    0.94899   0.77133   0.04221   0.00000  Uiso   1.00
Br521  Br    0.70708   0.82343   0.05867   0.00000  Uiso   1.00
Br522  Br    0.95959   0.82347   0.44134   0.00000  Uiso   1.00
C523   C     0.08657   0.16667   0.74988   0.00000  Uiso   1.00
C524   C     0.24676   0.16667   0.75012   0.00000  Uiso   1.00
C525   C     0.09202   0.15384   0.52621   0.00000  Uiso   1.00
C526   C     0.24131   0.15385   0.97379   0.00000  Uiso   1.00
C527   C     0.02119   0.12541   0.74996   0.00000  Uiso   1.00
C528   C     0.31214   0.20792   0.75004   0.00000  Uiso   1.00
C529   C     0.31214   0.12541   0.75010   0.00000  Uiso   1.00
C530   C     0.02119   0.20792   0.74990   0.00000  Uiso   1.00
C531   C     0.29093   0.16666   0.75013   0.00000  Uiso   1.00
C532   C     0.04240   0.16666   0.74987   0.00000  Uiso   1.00
C533   C     0.19393   0.02399   0.77555   0.00000  Uiso   1.00
C534   C     0.13940   0.30935   0.72445   0.00000  Uiso   1.00
C535   C     0.13940   0.02399   0.72444   0.00000  Uiso   1.00
C536   C     0.19394   0.30935   0.77555   0.00000  Uiso   1.00
C537   C     0.16768   0.16662   0.66349   0.00000  Uiso   1.00
C538   C     0.16565   0.16662   0.83651   0.00000  Uiso   1.00
C539   C     0.20227   0.16406   0.90556   0.00000  Uiso   1.00
C540   C     0.13106   0.16406   0.59444   0.00000  Uiso   1.00
C541   C     0.16471   0.16578   0.88429   0.00000  Uiso   1.00
C542   C     0.16862   0.16578   0.61571   0.00000  Uiso   1.00
C543   C     0.12724   0.16118   0.90761   0.00000  Uiso   1.00
C544   C     0.20609   0.16118   0.59239   0.00000  Uiso   1.00
C545   C     0.12793   0.15447   0.95435   0.00000  Uiso   1.00
C546   C     0.20540   0.15447   0.54565   0.00000  Uiso   1.00
C547   C     0.16620   0.15666   0.97652   0.00000  Uiso   1.00
C548   C     0.16713   0.15666   0.52347   0.00000  Uiso   1.00
C549   C     0.20362   0.15921   0.95187   0.00000  Uiso   1.00
C550   C     0.12970   0.15920   0.54813   0.00000  Uiso   1.00
C551   C     0.09203   0.14563   0.97997   0.00000  Uiso   1.00
C552   C     0.24129   0.14563   0.52002   0.00000  Uiso   1.00
H553   H     0.23012   0.16579   0.88514   0.00000  Uiso   1.00
H554   H     0.10321   0.16578   0.61487   0.00000  Uiso   1.00
H555   H     0.03722   0.09321   0.74995   0.00000  Uiso   1.00
H556   H     0.29612   0.24012   0.75005   0.00000  Uiso   1.00
H557   H     0.29611   0.09321   0.75016   0.00000  Uiso   1.00
H558   H     0.03722   0.24012   0.74984   0.00000  Uiso   1.00
H559   H     0.21572   0.04217   0.79600   0.00000  Uiso   1.00
H560   H     0.11761   0.29117   0.70401   0.00000  Uiso   1.00
H561   H     0.11761   0.04217   0.70400   0.00000  Uiso   1.00
H562   H     0.21573   0.29117   0.79599   0.00000  Uiso   1.00
N563   N     0.16667   0.28573   0.75000   0.00000  Uiso   1.00
N564   N     0.16667   0.04760   0.75000   0.00000  Uiso   1.00
O565   O     0.10559   0.20487   0.74999   0.00000  Uiso   1.00
O566   O     0.22774   0.12846   0.75000   0.00000  Uiso   1.00
O567   O     0.22774   0.20487   0.75000   0.00000  Uiso   1.00
O568   O     0.10559   0.12846   0.74999   0.00000  Uiso   1.00
O569   O     0.16666   0.20489   0.68392   0.00000  Uiso   1.00
O570   O     0.16667   0.12844   0.81607   0.00000  Uiso   1.00
O571   O     0.16667   0.20489   0.81607   0.00000  Uiso   1.00
O572   O     0.16666   0.12844   0.68392   0.00000  Uiso   1.00
Zn573  Zn    0.16667   0.21771   0.75000   0.00000  Uiso   1.00
Zn574  Zn    0.16667   0.11563   0.75000   0.00000  Uiso   1.00
Br575  Br    0.07682   0.17257   0.87546   0.00000  Uiso   1.00
Br576  Br    0.25651   0.17256   0.62454   0.00000  Uiso   1.00
Br577  Br    0.05100   0.10468   0.95777   0.00000  Uiso   1.00
Br578  Br    0.28232   0.10467   0.54221   0.00000  Uiso   1.00
Br579  Br    0.04041   0.15677   0.55867   0.00000  Uiso   1.00
Br580  Br    0.29292   0.15681   0.94134   0.00000  Uiso   1.00
C581   C     0.41991   0.16667   0.74988   0.00000  Uiso   1.00
C582   C     0.58009   0.16667   0.75012   0.00000  Uiso   1.00
C583   C     0.42535   0.15384   0.52621   0.00000  Uiso   1.00
C584   C     0.57464   0.15385   0.97379   0.00000  Uiso   1.00
C585   C     0.35453   0.12541   0.74996   0.00000  Uiso   1.00
C586   C     0.64547   0.20792   0.75004   0.00000  Uiso   1.00
C587   C     0.64547   0.12541   0.75010   0.00000  Uiso   1.00
C588   C     0.35453   0.20792   0.74990   0.00000  Uiso   1.00
C589   C     0.62426   0.16666   0.75013   0.00000  Uiso   1.00
C590   C     0.37574   0.16666   0.74987   0.00000  Uiso   1.00
C591   C     0.52727   0.02399   0.77555   0.00000  Uiso   1.00
C592   C     0.47273   0.30935   0.72445   0.00000  Uiso   1.00
C593   C     0.47273   0.02399   0.72444   0.00000  Uiso   1.00
C594   C     0.52727   0.30935   0.77555   0.00000  Uiso   1.00
C595   C     0.50101   0.16662   0.66349   0.00000  Uiso   1.00
C596   C     0.49899   0.16662   0.83651   0.00000  Uiso   1.00
C597   C     0.53560   0.16406   0.90556   0.00000  Uiso   1.00
C598   C     0.46440   0.16406   0.59444   0.00000  Uiso   1.00
C599   C     0.49804   0.16578   0.88429   0.00000  Uiso   1.00
C600   C     0.50196   0.16578   0.61571   0.00000  Uiso   1.00
C601   C     0.46057   0.16118   0.90761   0.00000  Uiso   1.00
C602   C     0.53942   0.16118   0.59239   0.00000  Uiso   1.00
C603   C     0.46126   0.15447   0.95435   0.00000  Uiso   1.00
C604   C     0.53873   0.15447   0.54565   0.00000  Uiso   1.00
C605   C     0.49953   0.15666   0.97652   0.00000  Uiso   1.00
C606   C     0.50046   0.15666   0.52347   0.00000  Uiso   1.00
C607   C     0.53696   0.15921   0.95187   0.00000  Uiso   1.00
C608   C     0.46304   0.15920   0.54813   0.00000  Uiso   1.00
C609   C     0.42537   0.14563   0.97997   0.00000  Uiso   1.00
C610   C     0.57463   0.14563   0.52002   0.00000  Uiso   1.00
H611   H     0.56346   0.16579   0.88514   0.00000  Uiso   1.00
H612   H     0.43654   0.16578   0.61487   0.00000  Uiso   1.00
H613   H     0.37055   0.09321   0.74995   0.00000  Uiso   1.00
H614   H     0.62945   0.24012   0.75005   0.00000  Uiso   1.00
H615   H     0.62945   0.09321   0.75016   0.00000  Uiso   1.00
H616   H     0.37055   0.24012   0.74984   0.00000  Uiso   1.00
H617   H     0.54906   0.04217   0.79600   0.00000  Uiso   1.00
H618   H     0.45094   0.29117   0.70401   0.00000  Uiso   1.00
H619   H     0.45094   0.04217   0.70400   0.00000  Uiso   1.00
H620   H     0.54906   0.29117   0.79599   0.00000  Uiso   1.00
N621   N     0.50000   0.28573   0.75000   0.00000  Uiso   1.00
N622   N     0.50000   0.04760   0.75000   0.00000  Uiso   1.00
O623   O     0.43892   0.20487   0.74999   0.00000  Uiso   1.00
O624   O     0.56108   0.12846   0.75000   0.00000  Uiso   1.00
O625   O     0.56108   0.20487   0.75000   0.00000  Uiso   1.00
O626   O     0.43892   0.12846   0.74999   0.00000  Uiso   1.00
O627   O     0.49999   0.20489   0.68392   0.00000  Uiso   1.00
O628   O     0.50001   0.12844   0.81607   0.00000  Uiso   1.00
O629   O     0.50001   0.20489   0.81607   0.00000  Uiso   1.00
O630   O     0.49999   0.12844   0.68392   0.00000  Uiso   1.00
Zn631  Zn    0.50000   0.21771   0.75000   0.00000  Uiso   1.00
Zn632  Zn    0.50000   0.11563   0.75000   0.00000  Uiso   1.00
Br633  Br    0.41015   0.17257   0.87546   0.00000  Uiso   1.00
Br634  Br    0.58985   0.17256   0.62454   0.00000  Uiso   1.00
Br635  Br    0.38433   0.10468   0.95777   0.00000  Uiso   1.00
Br636  Br    0.61566   0.10467   0.54221   0.00000  Uiso   1.00
Br637  Br    0.37374   0.15677   0.55867   0.00000  Uiso   1.00
Br638  Br    0.62625   0.15681   0.94134   0.00000  Uiso   1.00
C639   C     0.75324   0.16667   0.74988   0.00000  Uiso   1.00
C640   C     0.91343   0.16667   0.75012   0.00000  Uiso   1.00
C641   C     0.75868   0.15384   0.52621   0.00000  Uiso   1.00
C642   C     0.90798   0.15385   0.97379   0.00000  Uiso   1.00
C643   C     0.68786   0.12541   0.74996   0.00000  Uiso   1.00
C644   C     0.97881   0.20792   0.75004   0.00000  Uiso   1.00
C645   C     0.97880   0.12541   0.75010   0.00000  Uiso   1.00
C646   C     0.68786   0.20792   0.74990   0.00000  Uiso   1.00
C647   C     0.95760   0.16666   0.75013   0.00000  Uiso   1.00
C648   C     0.70907   0.16666   0.74987   0.00000  Uiso   1.00
C649   C     0.86060   0.02399   0.77555   0.00000  Uiso   1.00
C650   C     0.80606   0.30935   0.72445   0.00000  Uiso   1.00
C651   C     0.80606   0.02399   0.72444   0.00000  Uiso   1.00
C652   C     0.86060   0.30935   0.77555   0.00000  Uiso   1.00
C653   C     0.83434   0.16662   0.66349   0.00000  Uiso   1.00
C654   C     0.83232   0.16662   0.83651   0.00000  Uiso   1.00
C655   C     0.86893   0.16406   0.90556   0.00000  Uiso   1.00
C656   C     0.79773   0.16406   0.59444   0.00000  Uiso   1.00
C657   C     0.83137   0.16578   0.88429   0.00000  Uiso   1.00
C658   C     0.83529   0.16578   0.61571   0.00000  Uiso   1.00
C659   C     0.79391   0.16118   0.90761   0.00000  Uiso   1.00
C660   C     0.87276   0.16118   0.59239   0.00000  Uiso   1.00
C661   C     0.79459   0.15447   0.95435   0.00000  Uiso   1.00
C662   C     0.87207   0.15447   0.54565   0.00000  Uiso   1.00
C663   C     0.83287   0.15666   0.97652   0.00000  Uiso   1.00
C664   C     0.83379   0.15666   0.52347   0.00000  Uiso   1.00
C665   C     0.87029   0.15921   0.95187   0.00000  Uiso   1.00
C666   C     0.79637   0.15920   0.54813   0.00000  Uiso   1.00
C667   C     0.75870   0.14563   0.97997   0.00000  Uiso   1.00
C668   C     0.90796   0.14563   0.52002   0.00000  Uiso   1.00
H669   H     0.89679   0.16579   0.88514   0.00000  Uiso   1.00
H670   H     0.76988   0.16578   0.61487   0.00000  Uiso   1.00
H671   H     0.70388   0.09321   0.74995   0.00000  Uiso   1.00
H672   H     0.96279   0.24012   0.75005   0.00000  Uiso   1.00
H673   H     0.96278   0.09321   0.75016   0.00000  Uiso   1.00
H674   H     0.70389   0.24012   0.74984   0.00000  Uiso   1.00
H675   H     0.88239   0.04217   0.79600   0.00000  Uiso   1.00
H676   H     0.78427   0.29117   0.70401   0.00000  Uiso   1.00
H677   H     0.78428   0.04217   0.70400   0.00000  Uiso   1.00
H678   H     0.88239   0.29117   0.79599   0.00000  Uiso   1.00
N679   N     0.83333   0.28573   0.75000   0.00000  Uiso   1.00
N680   N     0.83333   0.04760   0.75000   0.00000  Uiso   1.00
O681   O     0.77226   0.20487   0.74999   0.00000  Uiso   1.00
O682   O     0.89441   0.12846   0.75000   0.00000  Uiso   1.00
O683   O     0.89441   0.20487   0.75000   0.00000  Uiso   1.00
O684   O     0.77226   0.12846   0.74999   0.00000  Uiso   1.00
O685   O     0.83333   0.20489   0.68392   0.00000  Uiso   1.00
O686   O     0.83334   0.12844   0.81607   0.00000  Uiso   1.00
O687   O     0.83334   0.20489   0.81607   0.00000  Uiso   1.00
O688   O     0.83333   0.12844   0.68392   0.00000  Uiso   1.00
Zn689  Zn    0.83333   0.21771   0.75000   0.00000  Uiso   1.00
Zn690  Zn    0.83333   0.11563   0.75000   0.00000  Uiso   1.00
Br691  Br    0.74349   0.17257   0.87546   0.00000  Uiso   1.00
Br692  Br    0.92318   0.17256   0.62454   0.00000  Uiso   1.00
Br693  Br    0.71767   0.10468   0.95777   0.00000  Uiso   1.00
Br694  Br    0.94899   0.10467   0.54221   0.00000  Uiso   1.00
Br695  Br    0.70708   0.15677   0.55867   0.00000  Uiso   1.00
Br696  Br    0.95959   0.15681   0.94134   0.00000  Uiso   1.00
C697   C     0.08657   0.50000   0.74988   0.00000  Uiso   1.00
C698   C     0.24676   0.50000   0.75012   0.00000  Uiso   1.00
C699   C     0.09202   0.48717   0.52621   0.00000  Uiso   1.00
C700   C     0.24131   0.48718   0.97379   0.00000  Uiso   1.00
C701   C     0.02119   0.45874   0.74996   0.00000  Uiso   1.00
C702   C     0.31214   0.54125   0.75004   0.00000  Uiso   1.00
C703   C     0.31214   0.45874   0.75010   0.00000  Uiso   1.00
C704   C     0.02119   0.54125   0.74990   0.00000  Uiso   1.00
C705   C     0.29093   0.50000   0.75013   0.00000  Uiso   1.00
C706   C     0.04240   0.50000   0.74987   0.00000  Uiso   1.00
C707   C     0.19393   0.35732   0.77555   0.00000  Uiso   1.00
C708   C     0.13940   0.64268   0.72445   0.00000  Uiso   1.00
C709   C     0.13940   0.35732   0.72444   0.00000  Uiso   1.00
C710   C     0.19394   0.64268   0.77555   0.00000  Uiso   1.00
C711   C     0.16768   0.49995   0.66349   0.00000  Uiso   1.00
C712   C     0.16565   0.49995   0.83651   0.00000  Uiso   1.00
C713   C     0.20227   0.49740   0.90556   0.00000  Uiso   1.00
C714   C     0.13106   0.49739   0.59444   0.00000  Uiso   1.00
C715   C     0.16471   0.49911   0.88429   0.00000  Uiso   1.00
C716   C     0.16862   0.49911   0.61571   0.00000  Uiso   1.00
C717   C     0.12724   0.49452   0.90761   0.00000  Uiso   1.00
C718   C     0.20609   0.49452   0.59239   0.00000  Uiso   1.00
C719   C     0.12793   0.48780   0.95435   0.00000  Uiso   1.00
C720   C     0.20540   0.48780   0.54565   0.00000  Uiso   1.00
C721   C     0.16620   0.49000   0.97652   0.00000  Uiso   1.00
C722   C     0.16713   0.49000   0.52347   0.00000  Uiso   1.00
C723   C     0.20362   0.49254   0.95187   0.00000  Uiso   1.00
C724   C     0.12970   0.49253   0.54813   0.00000  Uiso   1.00
C725   C     0.09203   0.47896   0.97997   0.00000  Uiso   1.00
C726   C     0.24129   0.47897   0.52002   0.00000  Uiso   1.00
H727   H     0.23012   0.49913   0.88514   0.00000  Uiso   1.00
H728   H     0.10321   0.49912   0.61487   0.00000  Uiso   1.00
H729   H     0.03722   0.42654   0.74995   0.00000  Uiso   1.00
H730   H     0.29612   0.57345   0.75005   0.00000  Uiso   1.00
H731   H     0.29611   0.42654   0.75016   0.00000  Uiso   1.00
H732   H     0.03722   0.57345   0.74984   0.00000  Uiso   1.00
H733   H     0.21572   0.37550   0.79600   0.00000  Uiso   1.00
H734   H     0.11761   0.62450   0.70401   0.00000  Uiso   1.00
H735   H     0.11761   0.37550   0.70400   0.00000  Uiso   1.00
H736   H     0.21573   0.62450   0.79599   0.00000  Uiso   1.00
N737   N     0.16667   0.61907   0.75000   0.00000  Uiso   1.00
N738   N     0.16667   0.38093   0.75000   0.00000  Uiso   1.00
O739   O     0.10559   0.53821   0.74999   0.00000  Uiso   1.00
O740   O     0.22774   0.46179   0.75000   0.00000  Uiso   1.00
O741   O     0.22774   0.53821   0.75000   0.00000  Uiso   1.00
O742   O     0.10559   0.46179   0.74999   0.00000  Uiso   1.00
O743   O     0.16666   0.53823   0.68392   0.00000  Uiso   1.00
O744   O     0.16667   0.46177   0.81607   0.00000  Uiso   1.00
O745   O     0.16667   0.53823   0.81607   0.00000  Uiso   1.00
O746   O     0.16666   0.46177   0.68392   0.00000  Uiso   1.00
Zn747  Zn    0.16667   0.55104   0.75000   0.00000  Uiso   1.00
Zn748  Zn    0.16667   0.44896   0.75000   0.00000  Uiso   1.00
Br749  Br    0.07682   0.50590   0.87546   0.00000  Uiso   1.00
Br750  Br    0.25651   0.50589   0.62454   0.00000  Uiso   1.00
Br751  Br    0.05100   0.43801   0.95777   0.00000  Uiso   1.00
Br752  Br    0.28232   0.43800   0.54221   0.00000  Uiso   1.00
Br753  Br    0.04041   0.49010   0.55867   0.00000  Uiso   1.00
Br754  Br    0.29292   0.49014   0.94134   0.00000  Uiso   1.00
C755   C     0.41991   0.50000   0.74988   0.00000  Uiso   1.00
C756   C     0.58009   0.50000   0.75012   0.00000  Uiso   1.00
C757   C     0.42535   0.48717   0.52621   0.00000  Uiso   1.00
C758   C     0.57464   0.48718   0.97379   0.00000  Uiso   1.00
C759   C     0.35453   0.45874   0.74996   0.00000  Uiso   1.00
C760   C     0.64547   0.54125   0.75004   0.00000  Uiso   1.00
C761   C     0.64547   0.45874   0.75010   0.00000  Uiso   1.00
C762   C     0.35453   0.54125   0.74990   0.00000  Uiso   1.00
C763   C     0.62426   0.50000   0.75013   0.00000  Uiso   1.00
C764   C     0.37574   0.50000   0.74987   0.00000  Uiso   1.00
C765   C     0.52727   0.35732   0.77555   0.00000  Uiso   1.00
C766   C     0.47273   0.64268   0.72445   0.00000  Uiso   1.00
C767   C     0.47273   0.35732   0.72444   0.00000  Uiso   1.00
C768   C     0.52727   0.64268   0.77555   0.00000  Uiso   1.00
C769   C     0.50101   0.49995   0.66349   0.00000  Uiso   1.00
C770   C     0.49899   0.49995   0.83651   0.00000  Uiso   1.00
C771   C     0.53560   0.49740   0.90556   0.00000  Uiso   1.00
C772   C     0.46440   0.49739   0.59444   0.00000  Uiso   1.00
C773   C     0.49804   0.49911   0.88429   0.00000  Uiso   1.00
C774   C     0.50196   0.49911   0.61571   0.00000  Uiso   1.00
C775   C     0.46057   0.49452   0.90761   0.00000  Uiso   1.00
C776   C     0.53942   0.49452   0.59239   0.00000  Uiso   1.00
C777   C     0.46126   0.48780   0.95435   0.00000  Uiso   1.00
C778   C     0.53873   0.48780   0.54565   0.00000  Uiso   1.00
C779   C     0.49953   0.49000   0.97652   0.00000  Uiso   1.00
C780   C     0.50046   0.49000   0.52347   0.00000  Uiso   1.00
C781   C     0.53696   0.49254   0.95187   0.00000  Uiso   1.00
C782   C     0.46304   0.49253   0.54813   0.00000  Uiso   1.00
C783   C     0.42537   0.47896   0.97997   0.00000  Uiso   1.00
C784   C     0.57463   0.47897   0.52002   0.00000  Uiso   1.00
H785   H     0.56346   0.49913   0.88514   0.00000  Uiso   1.00
H786   H     0.43654   0.49912   0.61487   0.00000  Uiso   1.00
H787   H     0.37055   0.42654   0.74995   0.00000  Uiso   1.00
H788   H     0.62945   0.57345   0.75005   0.00000  Uiso   1.00
H789   H     0.62945   0.42654   0.75016   0.00000  Uiso   1.00
H790   H     0.37055   0.57345   0.74984   0.00000  Uiso   1.00
H791   H     0.54906   0.37550   0.79600   0.00000  Uiso   1.00
H792   H     0.45094   0.62450   0.70401   0.00000  Uiso   1.00
H793   H     0.45094   0.37550   0.70400   0.00000  Uiso   1.00
H794   H     0.54906   0.62450   0.79599   0.00000  Uiso   1.00
N795   N     0.50000   0.61907   0.75000   0.00000  Uiso   1.00
N796   N     0.50000   0.38093   0.75000   0.00000  Uiso   1.00
O797   O     0.43892   0.53821   0.74999   0.00000  Uiso   1.00
O798   O     0.56108   0.46179   0.75000   0.00000  Uiso   1.00
O799   O     0.56108   0.53821   0.75000   0.00000  Uiso   1.00
O800   O     0.43892   0.46179   0.74999   0.00000  Uiso   1.00
O801   O     0.49999   0.53823   0.68392   0.00000  Uiso   1.00
O802   O     0.50001   0.46177   0.81607   0.00000  Uiso   1.00
O803   O     0.50001   0.53823   0.81607   0.00000  Uiso   1.00
O804   O     0.49999   0.46177   0.68392   0.00000  Uiso   1.00
Zn805  Zn    0.50000   0.55104   0.75000   0.00000  Uiso   1.00
Zn806  Zn    0.50000   0.44896   0.75000   0.00000  Uiso   1.00
Br807  Br    0.41015   0.50590   0.87546   0.00000  Uiso   1.00
Br808  Br    0.58985   0.50589   0.62454   0.00000  Uiso   1.00
Br809  Br    0.38433   0.43801   0.95777   0.00000  Uiso   1.00
Br810  Br    0.61566   0.43800   0.54221   0.00000  Uiso   1.00
Br811  Br    0.37374   0.49010   0.55867   0.00000  Uiso   1.00
Br812  Br    0.62625   0.49014   0.94134   0.00000  Uiso   1.00
C813   C     0.75324   0.50000   0.74988   0.00000  Uiso   1.00
C814   C     0.91343   0.50000   0.75012   0.00000  Uiso   1.00
C815   C     0.75868   0.48717   0.52621   0.00000  Uiso   1.00
C816   C     0.90798   0.48718   0.97379   0.00000  Uiso   1.00
C817   C     0.68786   0.45874   0.74996   0.00000  Uiso   1.00
C818   C     0.97881   0.54125   0.75004   0.00000  Uiso   1.00
C819   C     0.97880   0.45874   0.75010   0.00000  Uiso   1.00
C820   C     0.68786   0.54125   0.74990   0.00000  Uiso   1.00
C821   C     0.95760   0.50000   0.75013   0.00000  Uiso   1.00
C822   C     0.70907   0.50000   0.74987   0.00000  Uiso   1.00
C823   C     0.86060   0.35732   0.77555   0.00000  Uiso   1.00
C824   C     0.80606   0.64268   0.72445   0.00000  Uiso   1.00
C825   C     0.80606   0.35732   0.72444   0.00000  Uiso   1.00
C826   C     0.86060   0.64268   0.77555   0.00000  Uiso   1.00
C827   C     0.83434   0.49995   0.66349   0.00000  Uiso   1.00
C828   C     0.83232   0.49995   0.83651   0.00000  Uiso   1.00
C829   C     0.86893   0.49740   0.90556   0.00000  Uiso   1.00
C830   C     0.79773   0.49739   0.59444   0.00000  Uiso   1.00
C831   C     0.83137   0.49911   0.88429   0.00000  Uiso   1.00
C832   C     0.83529   0.49911   0.61571   0.00000  Uiso   1.00
C833   C     0.79391   0.49452   0.90761   0.00000  Uiso   1.00
C834   C     0.87276   0.49452   0.59239   0.00000  Uiso   1.00
C835   C     0.79459   0.48780   0.95435   0.00000  Uiso   1.00
C836   C     0.87207   0.48780   0.54565   0.00000  Uiso   1.00
C837   C     0.83287   0.49000   0.97652   0.00000  Uiso   1.00
C838   C     0.83379   0.49000   0.52347   0.00000  Uiso   1.00
C839   C     0.87029   0.49254   0.95187   0.00000  Uiso   1.00
C840   C     0.79637   0.49253   0.54813   0.00000  Uiso   1.00
C841   C     0.75870   0.47896   0.97997   0.00000  Uiso   1.00
C842   C     0.90796   0.47897   0.52002   0.00000  Uiso   1.00
H843   H     0.89679   0.49913   0.88514   0.00000  Uiso   1.00
H844   H     0.76988   0.49912   0.61487   0.00000  Uiso   1.00
H845   H     0.70388   0.42654   0.74995   0.00000  Uiso   1.00
H846   H     0.96279   0.57345   0.75005   0.00000  Uiso   1.00
H847   H     0.96278   0.42654   0.75016   0.00000  Uiso   1.00
H848   H     0.70389   0.57345   0.74984   0.00000  Uiso   1.00
H849   H     0.88239   0.37550   0.79600   0.00000  Uiso   1.00
H850   H     0.78427   0.62450   0.70401   0.00000  Uiso   1.00
H851   H     0.78428   0.37550   0.70400   0.00000  Uiso   1.00
H852   H     0.88239   0.62450   0.79599   0.00000  Uiso   1.00
N853   N     0.83333   0.61907   0.75000   0.00000  Uiso   1.00
N854   N     0.83333   0.38093   0.75000   0.00000  Uiso   1.00
O855   O     0.77226   0.53821   0.74999   0.00000  Uiso   1.00
O856   O     0.89441   0.46179   0.75000   0.00000  Uiso   1.00
O857   O     0.89441   0.53821   0.75000   0.00000  Uiso   1.00
O858   O     0.77226   0.46179   0.74999   0.00000  Uiso   1.00
O859   O     0.83333   0.53823   0.68392   0.00000  Uiso   1.00
O860   O     0.83334   0.46177   0.81607   0.00000  Uiso   1.00
O861   O     0.83334   0.53823   0.81607   0.00000  Uiso   1.00
O862   O     0.83333   0.46177   0.68392   0.00000  Uiso   1.00
Zn863  Zn    0.83333   0.55104   0.75000   0.00000  Uiso   1.00
Zn864  Zn    0.83333   0.44896   0.75000   0.00000  Uiso   1.00
Br865  Br    0.74349   0.50590   0.87546   0.00000  Uiso   1.00
Br866  Br    0.92318   0.50589   0.62454   0.00000  Uiso   1.00
Br867  Br    0.71767   0.43801   0.95777   0.00000  Uiso   1.00
Br868  Br    0.94899   0.43800   0.54221   0.00000  Uiso   1.00
Br869  Br    0.70708   0.49010   0.55867   0.00000  Uiso   1.00
Br870  Br    0.95959   0.49014   0.94134   0.00000  Uiso   1.00
C871   C     0.08657   0.83333   0.74988   0.00000  Uiso   1.00
C872   C     0.24676   0.83333   0.75012   0.00000  Uiso   1.00
C873   C     0.09202   0.82050   0.52621   0.00000  Uiso   1.00
C874   C     0.24131   0.82051   0.97379   0.00000  Uiso   1.00
C875   C     0.02119   0.79207   0.74996   0.00000  Uiso   1.00
C876   C     0.31214   0.87458   0.75004   0.00000  Uiso   1.00
C877   C     0.31214   0.79207   0.75010   0.00000  Uiso   1.00
C878   C     0.02119   0.87458   0.74990   0.00000  Uiso   1.00
C879   C     0.29093   0.83333   0.75013   0.00000  Uiso   1.00
C880   C     0.04240   0.83333   0.74987   0.00000  Uiso   1.00
C881   C     0.19393   0.69065   0.77555   0.00000  Uiso   1.00
C882   C     0.13940   0.97602   0.72445   0.00000  Uiso   1.00
C883   C     0.13940   0.69065   0.72444   0.00000  Uiso   1.00
C884   C     0.19394   0.97602   0.77555   0.00000  Uiso   1.00
C885   C     0.16768   0.83328   0.66349   0.00000  Uiso   1.00
C886   C     0.16565   0.83328   0.83651   0.00000  Uiso   1.00
C887   C     0.20227   0.83073   0.90556   0.00000  Uiso   1.00
C888   C     0.13106   0.83072   0.59444   0.00000  Uiso   1.00
C889   C     0.16471   0.83245   0.88429   0.00000  Uiso   1.00
C890   C     0.16862   0.83245   0.61571   0.00000  Uiso   1.00
C891   C     0.12724   0.82785   0.90761   0.00000  Uiso   1.00
C892   C     0.20609   0.82785   0.59239   0.00000  Uiso   1.00
C893   C     0.12793   0.82114   0.95435   0.00000  Uiso   1.00
C894   C     0.20540   0.82114   0.54565   0.00000  Uiso   1.00
C895   C     0.16620   0.82333   0.97652   0.00000  Uiso   1.00
C896   C     0.16713   0.82333   0.52347   0.00000  Uiso   1.00
C897   C     0.20362   0.82587   0.95187   0.00000  Uiso   1.00
C898   C     0.12970   0.82587   0.54813   0.00000  Uiso   1.00
C899   C     0.09203   0.81229   0.97997   0.00000  Uiso   1.00
C900   C     0.24129   0.81230   0.52002   0.00000  Uiso   1.00
H901   H     0.23012   0.83246   0.88514   0.00000  Uiso   1.00
H902   H     0.10321   0.83245   0.61487   0.00000  Uiso   1.00
H903   H     0.03722   0.75988   0.74995   0.00000  Uiso   1.00
H904   H     0.29612   0.90678   0.75005   0.00000  Uiso   1.00
H905   H     0.29611   0.75988   0.75016   0.00000  Uiso   1.00
H906   H     0.03722   0.90678   0.74984   0.00000  Uiso   1.00
H907   H     0.21572   0.70884   0.79600   0.00000  Uiso   1.00
H908   H     0.11761   0.95783   0.70401   0.00000  Uiso   1.00
H909   H     0.11761   0.70884   0.70400   0.00000  Uiso   1.00
H910   H     0.21573   0.95783   0.79599   0.00000  Uiso   1.00
N911   N     0.16667   0.95240   0.75000   0.00000  Uiso   1.00
N912   N     0.16667   0.71427   0.75000   0.00000  Uiso   1.00
O913   O     0.10559   0.87154   0.74999   0.00000  Uiso   1.00
O914   O     0.22774   0.79513   0.75000   0.00000  Uiso   1.00
O915   O     0.22774   0.87154   0.75000   0.00000  Uiso   1.00
O916   O     0.10559   0.79513   0.74999   0.00000  Uiso   1.00
O917   O     0.16666   0.87156   0.68392   0.00000  Uiso   1.00
O918   O     0.16667   0.79511   0.81607   0.00000  Uiso   1.00
O919   O     0.16667   0.87156   0.81607   0.00000  Uiso   1.00
O920   O     0.16666   0.79511   0.68392   0.00000  Uiso   1.00
Zn921  Zn    0.16667   0.88437   0.75000   0.00000  Uiso   1.00
Zn922  Zn    0.16667   0.78229   0.75000   0.00000  Uiso   1.00
Br923  Br    0.07682   0.83924   0.87546   0.00000  Uiso   1.00
Br924  Br    0.25651   0.83923   0.62454   0.00000  Uiso   1.00
Br925  Br    0.05100   0.77134   0.95777   0.00000  Uiso   1.00
Br926  Br    0.28232   0.77133   0.54221   0.00000  Uiso   1.00
Br927  Br    0.04041   0.82343   0.55867   0.00000  Uiso   1.00
Br928  Br    0.29292   0.82347   0.94134   0.00000  Uiso   1.00
C929   C     0.41991   0.83333   0.74988   0.00000  Uiso   1.00
C930   C     0.58009   0.83333   0.75012   0.00000  Uiso   1.00
C931   C     0.42535   0.82050   0.52621   0.00000  Uiso   1.00
C932   C     0.57464   0.82051   0.97379   0.00000  Uiso   1.00
C933   C     0.35453   0.79207   0.74996   0.00000  Uiso   1.00
C934   C     0.64547   0.87458   0.75004   0.00000  Uiso   1.00
C935   C     0.64547   0.79207   0.75010   0.00000  Uiso   1.00
C936   C     0.35453   0.87458   0.74990   0.00000  Uiso   1.00
C937   C     0.62426   0.83333   0.75013   0.00000  Uiso   1.00
C938   C     0.37574   0.83333   0.74987   0.00000  Uiso   1.00
C939   C     0.52727   0.69065   0.77555   0.00000  Uiso   1.00
C940   C     0.47273   0.97602   0.72445   0.00000  Uiso   1.00
C941   C     0.47273   0.69065   0.72444   0.00000  Uiso   1.00
C942   C     0.52727   0.97602   0.77555   0.00000  Uiso   1.00
C943   C     0.50101   0.83328   0.66349   0.00000  Uiso   1.00
C944   C     0.49899   0.83328   0.83651   0.00000  Uiso   1.00
C945   C     0.53560   0.83073   0.90556   0.00000  Uiso   1.00
C946   C     0.46440   0.83072   0.59444   0.00000  Uiso   1.00
C947   C     0.49804   0.83245   0.88429   0.00000  Uiso   1.00
C948   C     0.50196   0.83245   0.61571   0.00000  Uiso   1.00
C949   C     0.46057   0.82785   0.90761   0.00000  Uiso   1.00
C950   C     0.53942   0.82785   0.59239   0.00000  Uiso   1.00
C951   C     0.46126   0.82114   0.95435   0.00000  Uiso   1.00
C952   C     0.53873   0.82114   0.54565   0.00000  Uiso   1.00
C953   C     0.49953   0.82333   0.97652   0.00000  Uiso   1.00
C954   C     0.50046   0.82333   0.52347   0.00000  Uiso   1.00
C955   C     0.53696   0.82587   0.95187   0.00000  Uiso   1.00
C956   C     0.46304   0.82587   0.54813   0.00000  Uiso   1.00
C957   C     0.42537   0.81229   0.97997   0.00000  Uiso   1.00
C958   C     0.57463   0.81230   0.52002   0.00000  Uiso   1.00
H959   H     0.56346   0.83246   0.88514   0.00000  Uiso   1.00
H960   H     0.43654   0.83245   0.61487   0.00000  Uiso   1.00
H961   H     0.37055   0.75988   0.74995   0.00000  Uiso   1.00
H962   H     0.62945   0.90678   0.75005   0.00000  Uiso   1.00
H963   H     0.62945   0.75988   0.75016   0.00000  Uiso   1.00
H964   H     0.37055   0.90678   0.74984   0.00000  Uiso   1.00
H965   H     0.54906   0.70884   0.79600   0.00000  Uiso   1.00
H966   H     0.45094   0.95783   0.70401   0.00000  Uiso   1.00
H967   H     0.45094   0.70884   0.70400   0.00000  Uiso   1.00
H968   H     0.54906   0.95783   0.79599   0.00000  Uiso   1.00
N969   N     0.50000   0.95240   0.75000   0.00000  Uiso   1.00
N970   N     0.50000   0.71427   0.75000   0.00000  Uiso   1.00
O971   O     0.43892   0.87154   0.74999   0.00000  Uiso   1.00
O972   O     0.56108   0.79513   0.75000   0.00000  Uiso   1.00
O973   O     0.56108   0.87154   0.75000   0.00000  Uiso   1.00
O974   O     0.43892   0.79513   0.74999   0.00000  Uiso   1.00
O975   O     0.49999   0.87156   0.68392   0.00000  Uiso   1.00
O976   O     0.50001   0.79511   0.81607   0.00000  Uiso   1.00
O977   O     0.50001   0.87156   0.81607   0.00000  Uiso   1.00
O978   O     0.49999   0.79511   0.68392   0.00000  Uiso   1.00
Zn979  Zn    0.50000   0.88437   0.75000   0.00000  Uiso   1.00
Zn980  Zn    0.50000   0.78229   0.75000   0.00000  Uiso   1.00
Br981  Br    0.41015   0.83924   0.87546   0.00000  Uiso   1.00
Br982  Br    0.58985   0.83923   0.62454   0.00000  Uiso   1.00
Br983  Br    0.38433   0.77134   0.95777   0.00000  Uiso   1.00
Br984  Br    0.61566   0.77133   0.54221   0.00000  Uiso   1.00
Br985  Br    0.37374   0.82343   0.55867   0.00000  Uiso   1.00
Br986  Br    0.62625   0.82347   0.94134   0.00000  Uiso   1.00
C987   C     0.75324   0.83333   0.74988   0.00000  Uiso   1.00
C988   C     0.91343   0.83333   0.75012   0.00000  Uiso   1.00
C989   C     0.75868   0.82050   0.52621   0.00000  Uiso   1.00
C990   C     0.90798   0.82051   0.97379   0.00000  Uiso   1.00
C991   C     0.68786   0.79207   0.74996   0.00000  Uiso   1.00
C992   C     0.97881   0.87458   0.75004   0.00000  Uiso   1.00
C993   C     0.97880   0.79207   0.75010   0.00000  Uiso   1.00
C994   C     0.68786   0.87458   0.74990   0.00000  Uiso   1.00
C995   C     0.95760   0.83333   0.75013   0.00000  Uiso   1.00
C996   C     0.70907   0.83333   0.74987   0.00000  Uiso   1.00
C997   C     0.86060   0.69065   0.77555   0.00000  Uiso   1.00
C998   C     0.80606   0.97602   0.72445   0.00000  Uiso   1.00
C999   C     0.80606   0.69065   0.72444   0.00000  Uiso   1.00
C1000  C     0.86060   0.97602   0.77555   0.00000  Uiso   1.00
C1001  C     0.83434   0.83328   0.66349   0.00000  Uiso   1.00
C1002  C     0.83232   0.83328   0.83651   0.00000  Uiso   1.00
C1003  C     0.86893   0.83073   0.90556   0.00000  Uiso   1.00
C1004  C     0.79773   0.83072   0.59444   0.00000  Uiso   1.00
C1005  C     0.83137   0.83245   0.88429   0.00000  Uiso   1.00
C1006  C     0.83529   0.83245   0.61571   0.00000  Uiso   1.00
C1007  C     0.79391   0.82785   0.90761   0.00000  Uiso   1.00
C1008  C     0.87276   0.82785   0.59239   0.00000  Uiso   1.00
C1009  C     0.79459   0.82114   0.95435   0.00000  Uiso   1.00
C1010  C     0.87207   0.82114   0.54565   0.00000  Uiso   1.00
C1011  C     0.83287   0.82333   0.97652   0.00000  Uiso   1.00
C1012  C     0.83379   0.82333   0.52347   0.00000  Uiso   1.00
C1013  C     0.87029   0.82587   0.95187   0.00000  Uiso   1.00
C1014  C     0.79637   0.82587   0.54813   0.00000  Uiso   1.00
C1015  C     0.75870   0.81229   0.97997   0.00000  Uiso   1.00
C1016  C     0.90796   0.81230   0.52002   0.00000  Uiso   1.00
H1017  H     0.89679   0.83246   0.88514   0.00000  Uiso   1.00
H1018  H     0.76988   0.83245   0.61487   0.00000  Uiso   1.00
H1019  H     0.70388   0.75988   0.74995   0.00000  Uiso   1.00
H1020  H     0.96279   0.90678   0.75005   0.00000  Uiso   1.00
H1021  H     0.96278   0.75988   0.75016   0.00000  Uiso   1.00
H1022  H     0.70389   0.90678   0.74984   0.00000  Uiso   1.00
H1023  H     0.88239   0.70884   0.79600   0.00000  Uiso   1.00
H1024  H     0.78427   0.95783   0.70401   0.00000  Uiso   1.00
H1025  H     0.78428   0.70884   0.70400   0.00000  Uiso   1.00
H1026  H     0.88239   0.95783   0.79599   0.00000  Uiso   1.00
N1027  N     0.83333   0.95240   0.75000   0.00000  Uiso   1.00
N1028  N     0.83333   0.71427   0.75000   0.00000  Uiso   1.00
O1029  O     0.77226   0.87154   0.74999   0.00000  Uiso   1.00
O1030  O     0.89441   0.79513   0.75000   0.00000  Uiso   1.00
O1031  O     0.89441   0.87154   0.75000   0.00000  Uiso   1.00
O1032  O     0.77226   0.79513   0.74999   0.00000  Uiso   1.00
O1033  O     0.83333   0.87156   0.68392   0.00000  Uiso   1.00
O1034  O     0.83334   0.79511   0.81607   0.00000  Uiso   1.00
O1035  O     0.83334   0.87156   0.81607   0.00000  Uiso   1.00
O1036  O     0.83333   0.79511   0.68392   0.00000  Uiso   1.00
Zn1037 Zn    0.83333   0.88437   0.75000   0.00000  Uiso   1.00
Zn1038 Zn    0.83333   0.78229   0.75000   0.00000  Uiso   1.00
Br1039 Br    0.74349   0.83924   0.87546   0.00000  Uiso   1.00
Br1040 Br    0.92318   0.83923   0.62454   0.00000  Uiso   1.00
Br1041 Br    0.71767   0.77134   0.95777   0.00000  Uiso   1.00
Br1042 Br    0.94899   0.77133   0.54221   0.00000  Uiso   1.00
Br1043 Br    0.70708   0.82343   0.55867   0.00000  Uiso   1.00
Br1044 Br    0.95959   0.82347   0.94134   0.00000  Uiso   1.00
loop_
_geom_bond_atom_site_label_1
_geom_bond_atom_site_label_2
_geom_bond_distance
_geom_bond_site_symmetry_2
_ccdc_geom_bond_type
C1     O46     1.286   .     A
C1     O43     1.286   .     A
C1     C10     1.434   .     S
C2     O45     1.286   .     A
C2     C9      1.434   .     S
C2     O44     1.286   .     A
C3     C28     1.404   .     A
C3     Br57    1.922   .     S
C3     C551    1.396   1_554 S
C4     C27     1.403   .     A
C4     Br58    1.922   .     S
C4     C552    1.396   .     S
C5     C10     1.399   .     A
C5     H33     1.083   .     S
C5     C123    1.376   1_455 S
C6     C9      1.399   .     A
C6     H34     1.083   .     S
C6     C66     1.376   .     S
C7     C9      1.399   .     A
C7     H35     1.083   .     S
C7     C63     1.376   .     S
C8     C10     1.399   .     A
C8     H36     1.083   .     S
C8     C122    1.376   1_455 S
C11    N42     1.366   .     A
C11    H37     1.082   .     S
C11    C362    1.416   1_545 S
C12    N41     1.366   .     A
C12    H38     1.082   .     S
C12    C187    1.416   .     S
C13    H39     1.082   .     S
C13    N42     1.366   .     A
C13    C360    1.416   1_545 S
C14    N41     1.366   .     A
C14    H40     1.082   .     S
C14    C185    1.416   .     S
C15    O47     1.283   .     A
C15    C20     1.421   .     S
C15    O50     1.280   .     A
C16    O48     1.280   .     A
C16    O49     1.283   .     A
C16    C19     1.421   .     S
C17    H31     1.083   .     S
C17    C27     1.385   .     A
C17    C19     1.383   .     A
C18    C20     1.383   .     A
C18    H32     1.083   .     S
C18    C28     1.385   .     A
C19    C21     1.397   .     A
C20    C22     1.397   .     A
C21    Br53    1.937   .     S
C21    C23     1.404   .     A
C22    Br54    1.937   .     S
C22    C24     1.404   .     A
C23    C25     1.417   .     A
C23    C29     1.407   .     A
C24    C26     1.417   .     A
C24    C30     1.407   .     A
C25    C27     1.411   .     A
C25    C548    1.397   .     S
C26    C28     1.411   .     A
C26    C547    1.397   1_554 S
C29    Br55    1.923   .     S
C29    C525    1.396   .     S
C30    Br56    1.923   .     S
C30    C526    1.396   1_554 S
N41    Zn51    2.008   .     S
N42    Zn52    2.008   .     S
O43    Zn51    2.018   .     S
O44    Zn52    2.018   .     S
O45    Zn51    2.018   .     S
O46    Zn52    2.018   .     S
O47    Zn51    2.000   .     S
O48    Zn52    2.000   .     S
O49    Zn51    2.000   .     S
O50    Zn52    2.000   .     S
C59    O104    1.286   .     A
C59    O101    1.286   .     A
C59    C68     1.434   .     S
C60    O103    1.286   .     A
C60    C67     1.434   .     S
C60    O102    1.286   .     A
C61    C86     1.404   .     A
C61    Br115   1.922   .     S
C61    C609    1.396   1_554 S
C62    C85     1.403   .     A
C62    Br116   1.922   .     S
C62    C610    1.396   .     S
C63    C68     1.399   .     A
C63    H91     1.083   .     S
C64    C67     1.399   .     A
C64    H92     1.083   .     S
C64    C124    1.376   .     S
C65    C67     1.399   .     A
C65    H93     1.083   .     S
C65    C121    1.376   .     S
C66    C68     1.399   .     A
C66    H94     1.083   .     S
C69    N100    1.366   .     A
C69    H95     1.082   .     S
C69    C420    1.416   1_545 S
C70    N99     1.366   .     A
C70    H96     1.082   .     S
C70    C245    1.416   .     S
C71    H97     1.082   .     S
C71    N100    1.366   .     A
C71    C418    1.416   1_545 S
C72    N99     1.366   .     A
C72    H98     1.082   .     S
C72    C243    1.416   .     S
C73    O105    1.283   .     A
C73    C78     1.421   .     S
C73    O108    1.280   .     A
C74    O106    1.280   .     A
C74    O107    1.283   .     A
C74    C77     1.421   .     S
C75    H89     1.083   .     S
C75    C85     1.385   .     A
C75    C77     1.383   .     A
C76    C78     1.383   .     A
C76    H90     1.083   .     S
C76    C86     1.385   .     A
C77    C79     1.397   .     A
C78    C80     1.397   .     A
C79    Br111   1.937   .     S
C79    C81     1.404   .     A
C80    Br112   1.937   .     S
C80    C82     1.404   .     A
C81    C83     1.417   .     A
C81    C87     1.407   .     A
C82    C84     1.417   .     A
C82    C88     1.407   .     A
C83    C85     1.411   .     A
C83    C606    1.397   .     S
C84    C86     1.411   .     A
C84    C605    1.397   1_554 S
C87    Br113   1.923   .     S
C87    C583    1.396   .     S
C88    Br114   1.923   .     S
C88    C584    1.396   1_554 S
N99    Zn109   2.008   .     S
N100   Zn110   2.008   .     S
O101   Zn109   2.018   .     S
O102   Zn110   2.018   .     S
O103   Zn109   2.018   .     S
O104   Zn110   2.018   .     S
O105   Zn109   2.000   .     S
O106   Zn110   2.000   .     S
O107   Zn109   2.000   .     S
O108   Zn110   2.000   .     S
C117   O162    1.286   .     A
C117   O159    1.286   .     A
C117   C126    1.434   .     S
C118   O161    1.286   .     A
C118   C125    1.434   .     S
C118   O160    1.286   .     A
C119   C144    1.404   .     A
C119   Br173   1.922   .     S
C119   C667    1.396   1_554 S
C120   C143    1.403   .     A
C120   Br174   1.922   .     S
C120   C668    1.396   .     S
C121   C126    1.399   .     A
C121   H149    1.083   .     S
C122   C125    1.399   .     A
C122   H150    1.083   .     S
C122   C8      1.376   1_655 S
C123   C125    1.399   .     A
C123   H151    1.083   .     S
C123   C5      1.376   1_655 S
C124   C126    1.399   .     A
C124   H152    1.083   .     S
C127   N158    1.366   .     A
C127   H153    1.082   .     S
C127   C478    1.416   1_545 S
C128   N157    1.366   .     A
C128   H154    1.082   .     S
C128   C303    1.416   .     S
C129   H155    1.082   .     S
C129   N158    1.366   .     A
C129   C476    1.416   1_545 S
C130   N157    1.366   .     A
C130   H156    1.082   .     S
C130   C301    1.416   .     S
C131   O163    1.283   .     A
C131   C136    1.421   .     S
C131   O166    1.280   .     A
C132   O164    1.280   .     A
C132   O165    1.283   .     A
C132   C135    1.421   .     S
C133   H147    1.083   .     S
C133   C143    1.385   .     A
C133   C135    1.383   .     A
C134   C136    1.383   .     A
C134   H148    1.083   .     S
C134   C144    1.385   .     A
C135   C137    1.397   .     A
C136   C138    1.397   .     A
C137   Br169   1.937   .     S
C137   C139    1.404   .     A
C138   Br170   1.937   .     S
C138   C140    1.404   .     A
C139   C141    1.417   .     A
C139   C145    1.407   .     A
C140   C142    1.417   .     A
C140   C146    1.407   .     A
C141   C143    1.411   .     A
C141   C664    1.397   .     S
C142   C144    1.411   .     A
C142   C663    1.397   1_554 S
C145   Br171   1.923   .     S
C145   C641    1.396   .     S
C146   Br172   1.923   .     S
C146   C642    1.396   1_554 S
N157   Zn167   2.008   .     S
N158   Zn168   2.008   .     S
O159   Zn167   2.018   .     S
O160   Zn168   2.018   .     S
O161   Zn167   2.018   .     S
O162   Zn168   2.018   .     S
O163   Zn167   2.000   .     S
O164   Zn168   2.000   .     S
O165   Zn167   2.000   .     S
O166   Zn168   2.000   .     S
C175   O220    1.286   .     A
C175   O217    1.286   .     A
C175   C184    1.434   .     S
C176   O219    1.286   .     A
C176   C183    1.434   .     S
C176   O218    1.286   .     A
C177   C202    1.404   .     A
C177   Br231   1.922   .     S
C177   C725    1.396   1_554 S
C178   C201    1.403   .     A
C178   Br232   1.922   .     S
C178   C726    1.396   .     S
C179   C184    1.399   .     A
C179   H207    1.083   .     S
C179   C297    1.376   1_455 S
C180   C183    1.399   .     A
C180   H208    1.083   .     S
C180   C240    1.376   .     S
C181   C183    1.399   .     A
C181   H209    1.083   .     S
C181   C237    1.376   .     S
C182   C184    1.399   .     A
C182   H210    1.083   .     S
C182   C296    1.376   1_455 S
C185   N216    1.366   .     A
C185   H211    1.082   .     S
C186   N215    1.366   .     A
C186   H212    1.082   .     S
C186   C361    1.416   .     S
C187   H213    1.082   .     S
C187   N216    1.366   .     A
C188   N215    1.366   .     A
C188   H214    1.082   .     S
C188   C359    1.416   .     S
C189   O221    1.283   .     A
C189   C194    1.421   .     S
C189   O224    1.280   .     A
C190   O222    1.280   .     A
C190   O223    1.283   .     A
C190   C193    1.421   .     S
C191   H205    1.083   .     S
C191   C201    1.385   .     A
C191   C193    1.383   .     A
C192   C194    1.383   .     A
C192   H206    1.083   .     S
C192   C202    1.385   .     A
C193   C195    1.397   .     A
C194   C196    1.397   .     A
C195   Br227   1.937   .     S
C195   C197    1.404   .     A
C196   Br228   1.937   .     S
C196   C198    1.404   .     A
C197   C199    1.417   .     A
C197   C203    1.407   .     A
C198   C200    1.417   .     A
C198   C204    1.407   .     A
C199   C201    1.411   .     A
C199   C722    1.397   .     S
C200   C202    1.411   .     A
C200   C721    1.397   1_554 S
C203   Br229   1.923   .     S
C203   C699    1.396   .     S
C204   Br230   1.923   .     S
C204   C700    1.396   1_554 S
N215   Zn225   2.008   .     S
N216   Zn226   2.008   .     S
O217   Zn225   2.018   .     S
O218   Zn226   2.018   .     S
O219   Zn225   2.018   .     S
O220   Zn226   2.018   .     S
O221   Zn225   2.000   .     S
O222   Zn226   2.000   .     S
O223   Zn225   2.000   .     S
O224   Zn226   2.000   .     S
C233   O278    1.286   .     A
C233   O275    1.286   .     A
C233   C242    1.434   .     S
C234   O277    1.286   .     A
C234   C241    1.434   .     S
C234   O276    1.286   .     A
C235   C260    1.404   .     A
C235   Br289   1.922   .     S
C235   C783    1.396   1_554 S
C236   C259    1.403   .     A
C236   Br290   1.922   .     S
C236   C784    1.396   .     S
C237   C242    1.399   .     A
C237   H265    1.083   .     S
C238   C241    1.399   .     A
C238   H266    1.083   .     S
C238   C298    1.376   .     S
C239   C241    1.399   .     A
C239   H267    1.083   .     S
C239   C295    1.376   .     S
C240   C242    1.399   .     A
C240   H268    1.083   .     S
C243   N274    1.366   .     A
C243   H269    1.082   .     S
C244   N273    1.366   .     A
C244   H270    1.082   .     S
C244   C419    1.416   .     S
C245   H271    1.082   .     S
C245   N274    1.366   .     A
C246   N273    1.366   .     A
C246   H272    1.082   .     S
C246   C417    1.416   .     S
C247   O279    1.283   .     A
C247   C252    1.421   .     S
C247   O282    1.280   .     A
C248   O280    1.280   .     A
C248   O281    1.283   .     A
C248   C251    1.421   .     S
C249   H263    1.083   .     S
C249   C259    1.385   .     A
C249   C251    1.383   .     A
C250   C252    1.383   .     A
C250   H264    1.083   .     S
C250   C260    1.385   .     A
C251   C253    1.397   .     A
C252   C254    1.397   .     A
C253   Br285   1.937   .     S
C253   C255    1.404   .     A
C254   Br286   1.937   .     S
C254   C256    1.404   .     A
C255   C257    1.417   .     A
C255   C261    1.407   .     A
C256   C258    1.417   .     A
C256   C262    1.407   .     A
C257   C259    1.411   .     A
C257   C780    1.397   .     S
C258   C260    1.411   .     A
C258   C779    1.397   1_554 S
C261   Br287   1.923   .     S
C261   C757    1.396   .     S
C262   Br288   1.923   .     S
C262   C758    1.396   1_554 S
N273   Zn283   2.008   .     S
N274   Zn284   2.008   .     S
O275   Zn283   2.018   .     S
O276   Zn284   2.018   .     S
O277   Zn283   2.018   .     S
O278   Zn284   2.018   .     S
O279   Zn283   2.000   .     S
O280   Zn284   2.000   .     S
O281   Zn283   2.000   .     S
O282   Zn284   2.000   .     S
C291   O336    1.286   .     A
C291   O333    1.286   .     A
C291   C300    1.434   .     S
C292   O335    1.286   .     A
C292   C299    1.434   .     S
C292   O334    1.286   .     A
C293   C318    1.404   .     A
C293   Br347   1.922   .     S
C293   C841    1.396   1_554 S
C294   C317    1.403   .     A
C294   Br348   1.922   .     S
C294   C842    1.396   .     S
C295   C300    1.399   .     A
C295   H323    1.083   .     S
C296   C299    1.399   .     A
C296   H324    1.083   .     S
C296   C182    1.376   1_655 S
C297   C299    1.399   .     A
C297   H325    1.083   .     S
C297   C179    1.376   1_655 S
C298   C300    1.399   .     A
C298   H326    1.083   .     S
C301   N332    1.366   .     A
C301   H327    1.082   .     S
C302   N331    1.366   .     A
C302   H328    1.082   .     S
C302   C477    1.416   .     S
C303   H329    1.082   .     S
C303   N332    1.366   .     A
C304   N331    1.366   .     A
C304   H330    1.082   .     S
C304   C475    1.416   .     S
C305   O337    1.283   .     A
C305   C310    1.421   .     S
C305   O340    1.280   .     A
C306   O338    1.280   .     A
C306   O339    1.283   .     A
C306   C309    1.421   .     S
C307   H321    1.083   .     S
C307   C317    1.385   .     A
C307   C309    1.383   .     A
C308   C310    1.383   .     A
C308   H322    1.083   .     S
C308   C318    1.385   .     A
C309   C311    1.397   .     A
C310   C312    1.397   .     A
C311   Br343   1.937   .     S
C311   C313    1.404   .     A
C312   Br344   1.937   .     S
C312   C314    1.404   .     A
C313   C315    1.417   .     A
C313   C319    1.407   .     A
C314   C316    1.417   .     A
C314   C320    1.407   .     A
C315   C317    1.411   .     A
C315   C838    1.397   .     S
C316   C318    1.411   .     A
C316   C837    1.397   1_554 S
C319   Br345   1.923   .     S
C319   C815    1.396   .     S
C320   Br346   1.923   .     S
C320   C816    1.396   1_554 S
N331   Zn341   2.008   .     S
N332   Zn342   2.008   .     S
O333   Zn341   2.018   .     S
O334   Zn342   2.018   .     S
O335   Zn341   2.018   .     S
O336   Zn342   2.018   .     S
O337   Zn341   2.000   .     S
O338   Zn342   2.000   .     S
O339   Zn341   2.000   .     S
O340   Zn342   2.000   .     S
C349   O394    1.286   .     A
C349   O391    1.286   .     A
C349   C358    1.434   .     S
C350   O393    1.286   .     A
C350   C357    1.434   .     S
C350   O392    1.286   .     A
C351   C376    1.404   .     A
C351   Br405   1.922   .     S
C351   C899    1.396   1_554 S
C352   C375    1.403   .     A
C352   Br406   1.922   .     S
C352   C900    1.396   .     S
C353   C358    1.399   .     A
C353   H381    1.083   .     S
C353   C471    1.376   1_455 S
C354   C357    1.399   .     A
C354   H382    1.083   .     S
C354   C414    1.376   .     S
C355   C357    1.399   .     A
C355   H383    1.083   .     S
C355   C411    1.376   .     S
C356   C358    1.399   .     A
C356   H384    1.083   .     S
C356   C470    1.376   1_455 S
C359   N390    1.366   .     A
C359   H385    1.082   .     S
C360   N389    1.366   .     A
C360   H386    1.082   .     S
C360   C13     1.416   1_565 S
C361   H387    1.082   .     S
C361   N390    1.366   .     A
C362   N389    1.366   .     A
C362   H388    1.082   .     S
C362   C11     1.416   1_565 S
C363   O395    1.283   .     A
C363   C368    1.421   .     S
C363   O398    1.280   .     A
C364   O396    1.280   .     A
C364   O397    1.283   .     A
C364   C367    1.421   .     S
C365   H379    1.083   .     S
C365   C375    1.385   .     A
C365   C367    1.383   .     A
C366   C368    1.383   .     A
C366   H380    1.083   .     S
C366   C376    1.385   .     A
C367   C369    1.397   .     A
C368   C370    1.397   .     A
C369   Br401   1.937   .     S
C369   C371    1.404   .     A
C370   Br402   1.937   .     S
C370   C372    1.404   .     A
C371   C373    1.417   .     A
C371   C377    1.407   .     A
C372   C374    1.417   .     A
C372   C378    1.407   .     A
C373   C375    1.411   .     A
C373   C896    1.397   .     S
C374   C376    1.411   .     A
C374   C895    1.397   1_554 S
C377   Br403   1.923   .     S
C377   C873    1.396   .     S
C378   Br404   1.923   .     S
C378   C874    1.396   1_554 S
N389   Zn399   2.008   .     S
N390   Zn400   2.008   .     S
O391   Zn399   2.018   .     S
O392   Zn400   2.018   .     S
O393   Zn399   2.018   .     S
O394   Zn400   2.018   .     S
O395   Zn399   2.000   .     S
O396   Zn400   2.000   .     S
O397   Zn399   2.000   .     S
O398   Zn400   2.000   .     S
C407   O452    1.286   .     A
C407   O449    1.286   .     A
C407   C416    1.434   .     S
C408   O451    1.286   .     A
C408   C415    1.434   .     S
C408   O450    1.286   .     A
C409   C434    1.404   .     A
C409   Br463   1.922   .     S
C409   C957    1.396   1_554 S
C410   C433    1.403   .     A
C410   Br464   1.922   .     S
C410   C958    1.396   .     S
C411   C416    1.399   .     A
C411   H439    1.083   .     S
C412   C415    1.399   .     A
C412   H440    1.083   .     S
C412   C472    1.376   .     S
C413   C415    1.399   .     A
C413   H441    1.083   .     S
C413   C469    1.376   .     S
C414   C416    1.399   .     A
C414   H442    1.083   .     S
C417   N448    1.366   .     A
C417   H443    1.082   .     S
C418   N447    1.366   .     A
C418   H444    1.082   .     S
C418   C71     1.416   1_565 S
C419   H445    1.082   .     S
C419   N448    1.366   .     A
C420   N447    1.366   .     A
C420   H446    1.082   .     S
C420   C69     1.416   1_565 S
C421   O453    1.283   .     A
C421   C426    1.421   .     S
C421   O456    1.280   .     A
C422   O454    1.280   .     A
C422   O455    1.283   .     A
C422   C425    1.421   .     S
C423   H437    1.083   .     S
C423   C433    1.385   .     A
C423   C425    1.383   .     A
C424   C426    1.383   .     A
C424   H438    1.083   .     S
C424   C434    1.385   .     A
C425   C427    1.397   .     A
C426   C428    1.397   .     A
C427   Br459   1.937   .     S
C427   C429    1.404   .     A
C428   Br460   1.937   .     S
C428   C430    1.404   .     A
C429   C431    1.417   .     A
C429   C435    1.407   .     A
C430   C432    1.417   .     A
C430   C436    1.407   .     A
C431   C433    1.411   .     A
C431   C954    1.397   .     S
C432   C434    1.411   .     A
C432   C953    1.397   1_554 S
C435   Br461   1.923   .     S
C435   C931    1.396   .     S
C436   Br462   1.923   .     S
C436   C932    1.396   1_554 S
N447   Zn457   2.008   .     S
N448   Zn458   2.008   .     S
O449   Zn457   2.018   .     S
O450   Zn458   2.018   .     S
O451   Zn457   2.018   .     S
O452   Zn458   2.018   .     S
O453   Zn457   2.000   .     S
O454   Zn458   2.000   .     S
O455   Zn457   2.000   .     S
O456   Zn458   2.000   .     S
C465   O510    1.286   .     A
C465   O507    1.286   .     A
C465   C474    1.434   .     S
C466   O509    1.286   .     A
C466   C473    1.434   .     S
C466   O508    1.286   .     A
C467   C492    1.404   .     A
C467   Br521   1.922   .     S
C467   C1015   1.396   1_554 S
C468   C491    1.403   .     A
C468   Br522   1.922   .     S
C468   C1016   1.396   .     S
C469   C474    1.399   .     A
C469   H497    1.083   .     S
C470   C473    1.399   .     A
C470   H498    1.083   .     S
C470   C356    1.376   1_655 S
C471   C473    1.399   .     A
C471   H499    1.083   .     S
C471   C353    1.376   1_655 S
C472   C474    1.399   .     A
C472   H500    1.083   .     S
C475   N506    1.366   .     A
C475   H501    1.082   .     S
C476   N505    1.366   .     A
C476   H502    1.082   .     S
C476   C129    1.416   1_565 S
C477   H503    1.082   .     S
C477   N506    1.366   .     A
C478   N505    1.366   .     A
C478   H504    1.082   .     S
C478   C127    1.416   1_565 S
C479   O511    1.283   .     A
C479   C484    1.421   .     S
C479   O514    1.280   .     A
C480   O512    1.280   .     A
C480   O513    1.283   .     A
C480   C483    1.421   .     S
C481   H495    1.083   .     S
C481   C491    1.385   .     A
C481   C483    1.383   .     A
C482   C484    1.383   .     A
C482   H496    1.083   .     S
C482   C492    1.385   .     A
C483   C485    1.397   .     A
C484   C486    1.397   .     A
C485   Br517   1.937   .     S
C485   C487    1.404   .     A
C486   Br518   1.937   .     S
C486   C488    1.404   .     A
C487   C489    1.417   .     A
C487   C493    1.407   .     A
C488   C490    1.417   .     A
C488   C494    1.407   .     A
C489   C491    1.411   .     A
C489   C1012   1.397   .     S
C490   C492    1.411   .     A
C490   C1011   1.397   1_554 S
C493   Br519   1.923   .     S
C493   C989    1.396   .     S
C494   Br520   1.923   .     S
C494   C990    1.396   1_554 S
N505   Zn515   2.008   .     S
N506   Zn516   2.008   .     S
O507   Zn515   2.018   .     S
O508   Zn516   2.018   .     S
O509   Zn515   2.018   .     S
O510   Zn516   2.018   .     S
O511   Zn515   2.000   .     S
O512   Zn516   2.000   .     S
O513   Zn515   2.000   .     S
O514   Zn516   2.000   .     S
C523   O568    1.286   .     A
C523   O565    1.286   .     A
C523   C532    1.434   .     S
C524   O567    1.286   .     A
C524   C531    1.434   .     S
C524   O566    1.286   .     A
C525   C550    1.404   .     A
C525   Br579   1.922   .     S
C526   C549    1.403   .     A
C526   Br580   1.922   .     S
C526   C30     1.396   1_556 S
C527   C532    1.399   .     A
C527   H555    1.083   .     S
C527   C645    1.376   1_455 S
C528   C531    1.399   .     A
C528   H556    1.083   .     S
C528   C588    1.376   .     S
C529   C531    1.399   .     A
C529   H557    1.083   .     S
C529   C585    1.376   .     S
C530   C532    1.399   .     A
C530   H558    1.083   .     S
C530   C644    1.376   1_455 S
C533   N564    1.366   .     A
C533   H559    1.082   .     S
C533   C884    1.416   1_545 S
C534   N563    1.366   .     A
C534   H560    1.082   .     S
C534   C709    1.416   .     S
C535   H561    1.082   .     S
C535   N564    1.366   .     A
C535   C882    1.416   1_545 S
C536   N563    1.366   .     A
C536   H562    1.082   .     S
C536   C707    1.416   .     S
C537   O569    1.283   .     A
C537   C542    1.421   .     S
C537   O572    1.280   .     A
C538   O570    1.280   .     A
C538   O571    1.283   .     A
C538   C541    1.421   .     S
C539   H553    1.083   .     S
C539   C549    1.385   .     A
C539   C541    1.383   .     A
C540   C542    1.383   .     A
C540   H554    1.083   .     S
C540   C550    1.385   .     A
C541   C543    1.397   .     A
C542   C544    1.397   .     A
C543   Br575   1.937   .     S
C543   C545    1.404   .     A
C544   Br576   1.937   .     S
C544   C546    1.404   .     A
C545   C547    1.417   .     A
C545   C551    1.407   .     A
C546   C548    1.417   .     A
C546   C552    1.407   .     A
C547   C549    1.411   .     A
C547   C26     1.397   1_556 S
C548   C550    1.411   .     A
C551   Br577   1.923   .     S
C551   C3      1.396   1_556 S
C552   Br578   1.923   .     S
N563   Zn573   2.008   .     S
N564   Zn574   2.008   .     S
O565   Zn573   2.018   .     S
O566   Zn574   2.018   .     S
O567   Zn573   2.018   .     S
O568   Zn574   2.018   .     S
O569   Zn573   2.000   .     S
O570   Zn574   2.000   .     S
O571   Zn573   2.000   .     S
O572   Zn574   2.000   .     S
C581   O626    1.286   .     A
C581   O623    1.286   .     A
C581   C590    1.434   .     S
C582   O625    1.286   .     A
C582   C589    1.434   .     S
C582   O624    1.286   .     A
C583   C608    1.404   .     A
C583   Br637   1.922   .     S
C584   C607    1.403   .     A
C584   Br638   1.922   .     S
C584   C88     1.396   1_556 S
C585   C590    1.399   .     A
C585   H613    1.083   .     S
C586   C589    1.399   .     A
C586   H614    1.083   .     S
C586   C646    1.376   .     S
C587   C589    1.399   .     A
C587   H615    1.083   .     S
C587   C643    1.376   .     S
C588   C590    1.399   .     A
C588   H616    1.083   .     S
C591   N622    1.366   .     A
C591   H617    1.082   .     S
C591   C942    1.416   1_545 S
C592   N621    1.366   .     A
C592   H618    1.082   .     S
C592   C767    1.416   .     S
C593   H619    1.082   .     S
C593   N622    1.366   .     A
C593   C940    1.416   1_545 S
C594   N621    1.366   .     A
C594   H620    1.082   .     S
C594   C765    1.416   .     S
C595   O627    1.283   .     A
C595   C600    1.421   .     S
C595   O630    1.280   .     A
C596   O628    1.280   .     A
C596   O629    1.283   .     A
C596   C599    1.421   .     S
C597   H611    1.083   .     S
C597   C607    1.385   .     A
C597   C599    1.383   .     A
C598   C600    1.383   .     A
C598   H612    1.083   .     S
C598   C608    1.385   .     A
C599   C601    1.397   .     A
C600   C602    1.397   .     A
C601   Br633   1.937   .     S
C601   C603    1.404   .     A
C602   Br634   1.937   .     S
C602   C604    1.404   .     A
C603   C605    1.417   .     A
C603   C609    1.407   .     A
C604   C606    1.417   .     A
C604   C610    1.407   .     A
C605   C607    1.411   .     A
C605   C84     1.397   1_556 S
C606   C608    1.411   .     A
C609   Br635   1.923   .     S
C609   C61     1.396   1_556 S
C610   Br636   1.923   .     S
N621   Zn631   2.008   .     S
N622   Zn632   2.008   .     S
O623   Zn631   2.018   .     S
O624   Zn632   2.018   .     S
O625   Zn631   2.018   .     S
O626   Zn632   2.018   .     S
O627   Zn631   2.000   .     S
O628   Zn632   2.000   .     S
O629   Zn631   2.000   .     S
O630   Zn632   2.000   .     S
C639   O684    1.286   .     A
C639   O681    1.286   .     A
C639   C648    1.434   .     S
C640   O683    1.286   .     A
C640   C647    1.434   .     S
C640   O682    1.286   .     A
C641   C666    1.404   .     A
C641   Br695   1.922   .     S
C642   C665    1.403   .     A
C642   Br696   1.922   .     S
C642   C146    1.396   1_556 S
C643   C648    1.399   .     A
C643   H671    1.083   .     S
C644   C647    1.399   .     A
C644   H672    1.083   .     S
C644   C530    1.376   1_655 S
C645   C647    1.399   .     A
C645   H673    1.083   .     S
C645   C527    1.376   1_655 S
C646   C648    1.399   .     A
C646   H674    1.083   .     S
C649   N680    1.366   .     A
C649   H675    1.082   .     S
C649   C1000   1.416   1_545 S
C650   N679    1.366   .     A
C650   H676    1.082   .     S
C650   C825    1.416   .     S
C651   H677    1.082   .     S
C651   N680    1.366   .     A
C651   C998    1.416   1_545 S
C652   N679    1.366   .     A
C652   H678    1.082   .     S
C652   C823    1.416   .     S
C653   O685    1.283   .     A
C653   C658    1.421   .     S
C653   O688    1.280   .     A
C654   O686    1.280   .     A
C654   O687    1.283   .     A
C654   C657    1.421   .     S
C655   H669    1.083   .     S
C655   C665    1.385   .     A
C655   C657    1.383   .     A
C656   C658    1.383   .     A
C656   H670    1.083   .     S
C656   C666    1.385   .     A
C657   C659    1.397   .     A
C658   C660    1.397   .     A
C659   Br691   1.937   .     S
C659   C661    1.404   .     A
C660   Br692   1.937   .     S
C660   C662    1.404   .     A
C661   C663    1.417   .     A
C661   C667    1.407   .     A
C662   C664    1.417   .     A
C662   C668    1.407   .     A
C663   C665    1.411   .     A
C663   C142    1.397   1_556 S
C664   C666    1.411   .     A
C667   Br693   1.923   .     S
C667   C119    1.396   1_556 S
C668   Br694   1.923   .     S
N679   Zn689   2.008   .     S
N680   Zn690   2.008   .     S
O681   Zn689   2.018   .     S
O682   Zn690   2.018   .     S
O683   Zn689   2.018   .     S
O684   Zn690   2.018   .     S
O685   Zn689   2.000   .     S
O686   Zn690   2.000   .     S
O687   Zn689   2.000   .     S
O688   Zn690   2.000   .     S
C697   O742    1.286   .     A
C697   O739    1.286   .     A
C697   C706    1.434   .     S
C698   O741    1.286   .     A
C698   C705    1.434   .     S
C698   O740    1.286   .     A
C699   C724    1.404   .     A
C699   Br753   1.922   .     S
C700   C723    1.403   .     A
C700   Br754   1.922   .     S
C700   C204    1.396   1_556 S
C701   C706    1.399   .     A
C701   H729    1.083   .     S
C701   C819    1.376   1_455 S
C702   C705    1.399   .     A
C702   H730    1.083   .     S
C702   C762    1.376   .     S
C703   C705    1.399   .     A
C703   H731    1.083   .     S
C703   C759    1.376   .     S
C704   C706    1.399   .     A
C704   H732    1.083   .     S
C704   C818    1.376   1_455 S
C707   N738    1.366   .     A
C707   H733    1.082   .     S
C708   N737    1.366   .     A
C708   H734    1.082   .     S
C708   C883    1.416   .     S
C709   H735    1.082   .     S
C709   N738    1.366   .     A
C710   N737    1.366   .     A
C710   H736    1.082   .     S
C710   C881    1.416   .     S
C711   O743    1.283   .     A
C711   C716    1.421   .     S
C711   O746    1.280   .     A
C712   O744    1.280   .     A
C712   O745    1.283   .     A
C712   C715    1.421   .     S
C713   H727    1.083   .     S
C713   C723    1.385   .     A
C713   C715    1.383   .     A
C714   C716    1.383   .     A
C714   H728    1.083   .     S
C714   C724    1.385   .     A
C715   C717    1.397   .     A
C716   C718    1.397   .     A
C717   Br749   1.937   .     S
C717   C719    1.404   .     A
C718   Br750   1.937   .     S
C718   C720    1.404   .     A
C719   C721    1.417   .     A
C719   C725    1.407   .     A
C720   C722    1.417   .     A
C720   C726    1.407   .     A
C721   C723    1.411   .     A
C721   C200    1.397   1_556 S
C722   C724    1.411   .     A
C725   Br751   1.923   .     S
C725   C177    1.396   1_556 S
C726   Br752   1.923   .     S
N737   Zn747   2.008   .     S
N738   Zn748   2.008   .     S
O739   Zn747   2.018   .     S
O740   Zn748   2.018   .     S
O741   Zn747   2.018   .     S
O742   Zn748   2.018   .     S
O743   Zn747   2.000   .     S
O744   Zn748   2.000   .     S
O745   Zn747   2.000   .     S
O746   Zn748   2.000   .     S
C755   O800    1.286   .     A
C755   O797    1.286   .     A
C755   C764    1.434   .     S
C756   O799    1.286   .     A
C756   C763    1.434   .     S
C756   O798    1.286   .     A
C757   C782    1.404   .     A
C757   Br811   1.922   .     S
C758   C781    1.403   .     A
C758   Br812   1.922   .     S
C758   C262    1.396   1_556 S
C759   C764    1.399   .     A
C759   H787    1.083   .     S
C760   C763    1.399   .     A
C760   H788    1.083   .     S
C760   C820    1.376   .     S
C761   C763    1.399   .     A
C761   H789    1.083   .     S
C761   C817    1.376   .     S
C762   C764    1.399   .     A
C762   H790    1.083   .     S
C765   N796    1.366   .     A
C765   H791    1.082   .     S
C766   N795    1.366   .     A
C766   H792    1.082   .     S
C766   C941    1.416   .     S
C767   H793    1.082   .     S
C767   N796    1.366   .     A
C768   N795    1.366   .     A
C768   H794    1.082   .     S
C768   C939    1.416   .     S
C769   O801    1.283   .     A
C769   C774    1.421   .     S
C769   O804    1.280   .     A
C770   O802    1.280   .     A
C770   O803    1.283   .     A
C770   C773    1.421   .     S
C771   H785    1.083   .     S
C771   C781    1.385   .     A
C771   C773    1.383   .     A
C772   C774    1.383   .     A
C772   H786    1.083   .     S
C772   C782    1.385   .     A
C773   C775    1.397   .     A
C774   C776    1.397   .     A
C775   Br807   1.937   .     S
C775   C777    1.404   .     A
C776   Br808   1.937   .     S
C776   C778    1.404   .     A
C777   C779    1.417   .     A
C777   C783    1.407   .     A
C778   C780    1.417   .     A
C778   C784    1.407   .     A
C779   C781    1.411   .     A
C779   C258    1.397   1_556 S
C780   C782    1.411   .     A
C783   Br809   1.923   .     S
C783   C235    1.396   1_556 S
C784   Br810   1.923   .     S
N795   Zn805   2.008   .     S
N796   Zn806   2.008   .     S
O797   Zn805   2.018   .     S
O798   Zn806   2.018   .     S
O799   Zn805   2.018   .     S
O800   Zn806   2.018   .     S
O801   Zn805   2.000   .     S
O802   Zn806   2.000   .     S
O803   Zn805   2.000   .     S
O804   Zn806   2.000   .     S
C813   O858    1.286   .     A
C813   O855    1.286   .     A
C813   C822    1.434   .     S
C814   O857    1.286   .     A
C814   C821    1.434   .     S
C814   O856    1.286   .     A
C815   C840    1.404   .     A
C815   Br869   1.922   .     S
C816   C839    1.403   .     A
C816   Br870   1.922   .     S
C816   C320    1.396   1_556 S
C817   C822    1.399   .     A
C817   H845    1.083   .     S
C818   C821    1.399   .     A
C818   H846    1.083   .     S
C818   C704    1.376   1_655 S
C819   C821    1.399   .     A
C819   H847    1.083   .     S
C819   C701    1.376   1_655 S
C820   C822    1.399   .     A
C820   H848    1.083   .     S
C823   N854    1.366   .     A
C823   H849    1.082   .     S
C824   N853    1.366   .     A
C824   H850    1.082   .     S
C824   C999    1.416   .     S
C825   H851    1.082   .     S
C825   N854    1.366   .     A
C826   N853    1.366   .     A
C826   H852    1.082   .     S
C826   C997    1.416   .     S
C827   O859    1.283   .     A
C827   C832    1.421   .     S
C827   O862    1.280   .     A
C828   O860    1.280   .     A
C828   O861    1.283   .     A
C828   C831    1.421   .     S
C829   H843    1.083   .     S
C829   C839    1.385   .     A
C829   C831    1.383   .     A
C830   C832    1.383   .     A
C830   H844    1.083   .     S
C830   C840    1.385   .     A
C831   C833    1.397   .     A
C832   C834    1.397   .     A
C833   Br865   1.937   .     S
C833   C835    1.404   .     A
C834   Br866   1.937   .     S
C834   C836    1.404   .     A
C835   C837    1.417   .     A
C835   C841    1.407   .     A
C836   C838    1.417   .     A
C836   C842    1.407   .     A
C837   C839    1.411   .     A
C837   C316    1.397   1_556 S
C838   C840    1.411   .     A
C841   Br867   1.923   .     S
C841   C293    1.396   1_556 S
C842   Br868   1.923   .     S
N853   Zn863   2.008   .     S
N854   Zn864   2.008   .     S
O855   Zn863   2.018   .     S
O856   Zn864   2.018   .     S
O857   Zn863   2.018   .     S
O858   Zn864   2.018   .     S
O859   Zn863   2.000   .     S
O860   Zn864   2.000   .     S
O861   Zn863   2.000   .     S
O862   Zn864   2.000   .     S
C871   O916    1.286   .     A
C871   O913    1.286   .     A
C871   C880    1.434   .     S
C872   O915    1.286   .     A
C872   C879    1.434   .     S
C872   O914    1.286   .     A
C873   C898    1.404   .     A
C873   Br927   1.922   .     S
C874   C897    1.403   .     A
C874   Br928   1.922   .     S
C874   C378    1.396   1_556 S
C875   C880    1.399   .     A
C875   H903    1.083   .     S
C875   C993    1.376   1_455 S
C876   C879    1.399   .     A
C876   H904    1.083   .     S
C876   C936    1.376   .     S
C877   C879    1.399   .     A
C877   H905    1.083   .     S
C877   C933    1.376   .     S
C878   C880    1.399   .     A
C878   H906    1.083   .     S
C878   C992    1.376   1_455 S
C881   N912    1.366   .     A
C881   H907    1.082   .     S
C882   N911    1.366   .     A
C882   H908    1.082   .     S
C882   C535    1.416   1_565 S
C883   H909    1.082   .     S
C883   N912    1.366   .     A
C884   N911    1.366   .     A
C884   H910    1.082   .     S
C884   C533    1.416   1_565 S
C885   O917    1.283   .     A
C885   C890    1.421   .     S
C885   O920    1.280   .     A
C886   O918    1.280   .     A
C886   O919    1.283   .     A
C886   C889    1.421   .     S
C887   H901    1.083   .     S
C887   C897    1.385   .     A
C887   C889    1.383   .     A
C888   C890    1.383   .     A
C888   H902    1.083   .     S
C888   C898    1.385   .     A
C889   C891    1.397   .     A
C890   C892    1.397   .     A
C891   Br923   1.937   .     S
C891   C893    1.404   .     A
C892   Br924   1.937   .     S
C892   C894    1.404   .     A
C893   C895    1.417   .     A
C893   C899    1.407   .     A
C894   C896    1.417   .     A
C894   C900    1.407   .     A
C895   C897    1.411   .     A
C895   C374    1.397   1_556 S
C896   C898    1.411   .     A
C899   Br925   1.923   .     S
C899   C351    1.396   1_556 S
C900   Br926   1.923   .     S
N911   Zn921   2.008   .     S
N912   Zn922   2.008   .     S
O913   Zn921   2.018   .     S
O914   Zn922   2.018   .     S
O915   Zn921   2.018   .     S
O916   Zn922   2.018   .     S
O917   Zn921   2.000   .     S
O918   Zn922   2.000   .     S
O919   Zn921   2.000   .     S
O920   Zn922   2.000   .     S
C929   O974    1.286   .     A
C929   O971    1.286   .     A
C929   C938    1.434   .     S
C930   O973    1.286   .     A
C930   C937    1.434   .     S
C930   O972    1.286   .     A
C931   C956    1.404   .     A
C931   Br985   1.922   .     S
C932   C955    1.403   .     A
C932   Br986   1.922   .     S
C932   C436    1.396   1_556 S
C933   C938    1.399   .     A
C933   H961    1.083   .     S
C934   C937    1.399   .     A
C934   H962    1.083   .     S
C934   C994    1.376   .     S
C935   C937    1.399   .     A
C935   H963    1.083   .     S
C935   C991    1.376   .     S
C936   C938    1.399   .     A
C936   H964    1.083   .     S
C939   N970    1.366   .     A
C939   H965    1.082   .     S
C940   N969    1.366   .     A
C940   H966    1.082   .     S
C940   C593    1.416   1_565 S
C941   H967    1.082   .     S
C941   N970    1.366   .     A
C942   N969    1.366   .     A
C942   H968    1.082   .     S
C942   C591    1.416   1_565 S
C943   O975    1.283   .     A
C943   C948    1.421   .     S
C943   O978    1.280   .     A
C944   O976    1.280   .     A
C944   O977    1.283   .     A
C944   C947    1.421   .     S
C945   H959    1.083   .     S
C945   C955    1.385   .     A
C945   C947    1.383   .     A
C946   C948    1.383   .     A
C946   H960    1.083   .     S
C946   C956    1.385   .     A
C947   C949    1.397   .     A
C948   C950    1.397   .     A
C949   Br981   1.937   .     S
C949   C951    1.404   .     A
C950   Br982   1.937   .     S
C950   C952    1.404   .     A
C951   C953    1.417   .     A
C951   C957    1.407   .     A
C952   C954    1.417   .     A
C952   C958    1.407   .     A
C953   C955    1.411   .     A
C953   C432    1.397   1_556 S
C954   C956    1.411   .     A
C957   Br983   1.923   .     S
C957   C409    1.396   1_556 S
C958   Br984   1.923   .     S
N969   Zn979   2.008   .     S
N970   Zn980   2.008   .     S
O971   Zn979   2.018   .     S
O972   Zn980   2.018   .     S
O973   Zn979   2.018   .     S
O974   Zn980   2.018   .     S
O975   Zn979   2.000   .     S
O976   Zn980   2.000   .     S
O977   Zn979   2.000   .     S
O978   Zn980   2.000   .     S
C987   O1032   1.286   .     A
C987   O1029   1.286   .     A
C987   C996    1.434   .     S
C988   O1031   1.286   .     A
C988   C995    1.434   .     S
C988   O1030   1.286   .     A
C989   C1014   1.404   .     A
C989   Br1043  1.922   .     S
C990   C1013   1.403   .     A
C990   Br1044  1.922   .     S
C990   C494    1.396   1_556 S
C991   C996    1.399   .     A
C991   H1019   1.083   .     S
C992   C995    1.399   .     A
C992   H1020   1.083   .     S
C992   C878    1.376   1_655 S
C993   C995    1.399   .     A
C993   H1021   1.083   .     S
C993   C875    1.376   1_655 S
C994   C996    1.399   .     A
C994   H1022   1.083   .     S
C997   N1028   1.366   .     A
C997   H1023   1.082   .     S
C998   N1027   1.366   .     A
C998   H1024   1.082   .     S
C998   C651    1.416   1_565 S
C999   H1025   1.082   .     S
C999   N1028   1.366   .     A
C1000  N1027   1.366   .     A
C1000  H1026   1.082   .     S
C1000  C649    1.416   1_565 S
C1001  O1033   1.283   .     A
C1001  C1006   1.421   .     S
C1001  O1036   1.280   .     A
C1002  O1034   1.280   .     A
C1002  O1035   1.283   .     A
C1002  C1005   1.421   .     S
C1003  H1017   1.083   .     S
C1003  C1013   1.385   .     A
C1003  C1005   1.383   .     A
C1004  C1006   1.383   .     A
C1004  H1018   1.083   .     S
C1004  C1014   1.385   .     A
C1005  C1007   1.397   .     A
C1006  C1008   1.397   .     A
C1007  Br1039  1.937   .     S
C1007  C1009   1.404   .     A
C1008  Br1040  1.937   .     S
C1008  C1010   1.404   .     A
C1009  C1011   1.417   .     A
C1009  C1015   1.407   .     A
C1010  C1012   1.417   .     A
C1010  C1016   1.407   .     A
C1011  C1013   1.411   .     A
C1011  C490    1.397   1_556 S
C1012  C1014   1.411   .     A
C1015  Br1041  1.923   .     S
C1015  C467    1.396   1_556 S
C1016  Br1042  1.923   .     S
N1027  Zn1037  2.008   .     S
N1028  Zn1038  2.008   .     S
O1029  Zn1037  2.018   .     S
O1030  Zn1038  2.018   .     S
O1031  Zn1037  2.018   .     S
O1032  Zn1038  2.018   .     S
O1033  Zn1037  2.000   .     S
O1034  Zn1038  2.000   .     S
O1035  Zn1037  2.000   .     S
O1036  Zn1038  2.000   .     S
