data_str_m3_o2_o10_pcu_sym.138
_audit_creation_date              2020-01-03
_audit_creation_method            'Materials Studio'
_symmetry_space_group_name_H-M    'P1'
_symmetry_Int_Tables_number       1
_symmetry_cell_setting            triclinic
loop_
_symmetry_equiv_pos_as_xyz
  x,y,z
_cell_length_a                    26.0382
_cell_length_b                    29.6956
_cell_length_c                    28.3132
_cell_angle_alpha                 90.8654
_cell_angle_beta                  98.4128
_cell_angle_gamma                 89.9638
loop_
_atom_site_label
_atom_site_type_symbol
_atom_site_fract_x
_atom_site_fract_y
_atom_site_fract_z
_atom_site_U_iso_or_equiv
_atom_site_adp_type
_atom_site_occupancy
C1     C     0.16681   0.16371   0.24965   0.00000  Uiso   1.00
C2     C     0.16773   0.33655   0.25061   0.00000  Uiso   1.00
C3     C     0.13976   0.21693   0.04846   0.00000  Uiso   1.00
C4     C     0.20920   0.26714   0.45332   0.00000  Uiso   1.00
C5     C     0.13996   0.21768   0.09812   0.00000  Uiso   1.00
C6     C     0.20822   0.26698   0.40354   0.00000  Uiso   1.00
C7     C     0.19349   0.28235   0.10647   0.00000  Uiso   1.00
C8     C     0.12517   0.23312   0.39197   0.00000  Uiso   1.00
C9     C     0.19387   0.28315   0.05690   0.00000  Uiso   1.00
C10    C     0.12426   0.23315   0.44147   0.00000  Uiso   1.00
C11    C     0.16682   0.25008   0.02673   0.00000  Uiso   1.00
C12    C     0.16676   0.25015   0.47334   0.00000  Uiso   1.00
C13    C     0.06724   0.24991   0.23769   0.00000  Uiso   1.00
C14    C     0.26605   0.25093   0.26223   0.00000  Uiso   1.00
C15    C     0.01260   0.24761   0.23083   0.00000  Uiso   1.00
C16    C     0.32053   0.25526   0.26864   0.00000  Uiso   1.00
C17    C     0.22858   0.05321   0.27997   0.00000  Uiso   1.00
C18    C     0.21456   0.44903   0.21816   0.00000  Uiso   1.00
C19    C     0.21778   0.09907   0.27965   0.00000  Uiso   1.00
C20    C     0.20366   0.40327   0.21799   0.00000  Uiso   1.00
C21    C     0.17471   0.11582   0.24961   0.00000  Uiso   1.00
C22    C     0.17700   0.38484   0.25285   0.00000  Uiso   1.00
C23    C     0.14208   0.08715   0.21861   0.00000  Uiso   1.00
C24    C     0.16261   0.41240   0.28996   0.00000  Uiso   1.00
C25    C     0.15315   0.04146   0.21876   0.00000  Uiso   1.00
C26    C     0.17374   0.45811   0.28995   0.00000  Uiso   1.00
C27    C     0.19547   0.02465   0.24949   0.00000  Uiso   1.00
C28    C     0.19830   0.47636   0.25400   0.00000  Uiso   1.00
H29    H     0.24297   0.12194   0.30262   0.00000  Uiso   1.00
H30    H     0.21611   0.38199   0.19035   0.00000  Uiso   1.00
H31    H     0.12757   0.01840   0.19641   0.00000  Uiso   1.00
H32    H     0.16080   0.48030   0.31663   0.00000  Uiso   1.00
H33    H     0.11902   0.19012   0.02750   0.00000  Uiso   1.00
H34    H     0.24341   0.27993   0.47580   0.00000  Uiso   1.00
H35    H     0.11875   0.19226   0.11423   0.00000  Uiso   1.00
H36    H     0.24099   0.28028   0.38874   0.00000  Uiso   1.00
H37    H     0.21453   0.30785   0.12919   0.00000  Uiso   1.00
H38    H     0.09247   0.21956   0.36810   0.00000  Uiso   1.00
H39    H     0.21465   0.30999   0.04245   0.00000  Uiso   1.00
H40    H     0.09007   0.22039   0.45440   0.00000  Uiso   1.00
N41    N     0.16667   0.24999   0.12624   0.00000  Uiso   1.00
N42    N     0.16667   0.25001   0.37377   0.00000  Uiso   1.00
O43    O     0.16667   0.18454   0.28974   0.00000  Uiso   1.00
O44    O     0.16666   0.31547   0.21026   0.00000  Uiso   1.00
O45    O     0.16667   0.18453   0.21026   0.00000  Uiso   1.00
O46    O     0.16666   0.31547   0.28974   0.00000  Uiso   1.00
O47    O     0.09058   0.25000   0.28045   0.00000  Uiso   1.00
O48    O     0.24275   0.25000   0.21956   0.00000  Uiso   1.00
O49    O     0.09058   0.25000   0.20097   0.00000  Uiso   1.00
O50    O     0.24275   0.25001   0.29904   0.00000  Uiso   1.00
Zn51   Zn    0.16667   0.25001   0.30307   0.00000  Uiso   1.00
Zn52   Zn    0.16667   0.25000   0.19693   0.00000  Uiso   1.00
O53    O     0.32071   0.24099   0.18441   0.00000  Uiso   1.00
C54    C     0.32238   0.19485   0.17211   0.00000  Uiso   1.00
H55    H     0.30988   0.17297   0.20000   0.00000  Uiso   1.00
H56    H     0.02842   0.18525   0.16494   0.00000  Uiso   1.00
H57    H     0.29508   0.18879   0.13870   0.00000  Uiso   1.00
O58    O     0.01224   0.26513   0.31441   0.00000  Uiso   1.00
C59    C     0.00792   0.31176   0.32334   0.00000  Uiso   1.00
H60    H     0.30090   0.32089   0.32814   0.00000  Uiso   1.00
H61    H     0.02053   0.33214   0.29438   0.00000  Uiso   1.00
H62    H     0.03365   0.32056   0.35699   0.00000  Uiso   1.00
C63    C     0.27462   0.03517   0.31263   0.00000  Uiso   1.00
H64    H     0.26134   0.01182   0.33861   0.00000  Uiso   1.00
H65    H     0.30064   0.01679   0.29124   0.00000  Uiso   1.00
H66    H     0.29735   0.06263   0.33298   0.00000  Uiso   1.00
C67    C     0.24215   0.46735   0.17930   0.00000  Uiso   1.00
H68    H     0.21760   0.46219   0.14414   0.00000  Uiso   1.00
H69    H     0.25118   0.00376   0.18422   0.00000  Uiso   1.00
H70    H     0.27944   0.44922   0.17912   0.00000  Uiso   1.00
C71    C     0.09423   0.10416   0.18766   0.00000  Uiso   1.00
H72    H     0.10534   0.12738   0.16060   0.00000  Uiso   1.00
H73    H     0.07124   0.07625   0.16840   0.00000  Uiso   1.00
H74    H     0.06907   0.12199   0.21028   0.00000  Uiso   1.00
C75    C     0.13339   0.39493   0.32820   0.00000  Uiso   1.00
H76    H     0.09845   0.37615   0.31151   0.00000  Uiso   1.00
H77    H     0.15881   0.37274   0.35268   0.00000  Uiso   1.00
H78    H     0.12010   0.42266   0.35022   0.00000  Uiso   1.00
C79    C     0.50014   0.16371   0.24965   0.00000  Uiso   1.00
C80    C     0.50107   0.33655   0.25061   0.00000  Uiso   1.00
C81    C     0.47309   0.21693   0.04846   0.00000  Uiso   1.00
C82    C     0.54253   0.26714   0.45332   0.00000  Uiso   1.00
C83    C     0.47329   0.21768   0.09812   0.00000  Uiso   1.00
C84    C     0.54156   0.26698   0.40354   0.00000  Uiso   1.00
C85    C     0.52682   0.28235   0.10647   0.00000  Uiso   1.00
C86    C     0.45850   0.23312   0.39197   0.00000  Uiso   1.00
C87    C     0.52721   0.28315   0.05690   0.00000  Uiso   1.00
C88    C     0.45759   0.23315   0.44147   0.00000  Uiso   1.00
C89    C     0.50016   0.25008   0.02673   0.00000  Uiso   1.00
C90    C     0.50009   0.25015   0.47334   0.00000  Uiso   1.00
C91    C     0.40057   0.24991   0.23769   0.00000  Uiso   1.00
C92    C     0.59939   0.25093   0.26223   0.00000  Uiso   1.00
C93    C     0.34593   0.24761   0.23083   0.00000  Uiso   1.00
C94    C     0.65386   0.25526   0.26864   0.00000  Uiso   1.00
C95    C     0.56192   0.05321   0.27997   0.00000  Uiso   1.00
C96    C     0.54789   0.44903   0.21816   0.00000  Uiso   1.00
C97    C     0.55112   0.09907   0.27965   0.00000  Uiso   1.00
C98    C     0.53699   0.40327   0.21799   0.00000  Uiso   1.00
C99    C     0.50804   0.11582   0.24961   0.00000  Uiso   1.00
C100   C     0.51033   0.38484   0.25285   0.00000  Uiso   1.00
C101   C     0.47542   0.08715   0.21861   0.00000  Uiso   1.00
C102   C     0.49595   0.41240   0.28996   0.00000  Uiso   1.00
C103   C     0.48648   0.04146   0.21876   0.00000  Uiso   1.00
C104   C     0.50708   0.45811   0.28995   0.00000  Uiso   1.00
C105   C     0.52880   0.02465   0.24949   0.00000  Uiso   1.00
C106   C     0.53163   0.47636   0.25400   0.00000  Uiso   1.00
H107   H     0.57630   0.12194   0.30262   0.00000  Uiso   1.00
H108   H     0.54944   0.38199   0.19035   0.00000  Uiso   1.00
H109   H     0.46090   0.01840   0.19641   0.00000  Uiso   1.00
H110   H     0.49414   0.48030   0.31663   0.00000  Uiso   1.00
H111   H     0.45235   0.19012   0.02750   0.00000  Uiso   1.00
H112   H     0.57674   0.27993   0.47580   0.00000  Uiso   1.00
H113   H     0.45209   0.19226   0.11423   0.00000  Uiso   1.00
H114   H     0.57432   0.28028   0.38874   0.00000  Uiso   1.00
H115   H     0.54786   0.30785   0.12919   0.00000  Uiso   1.00
H116   H     0.42580   0.21956   0.36810   0.00000  Uiso   1.00
H117   H     0.54798   0.30999   0.04245   0.00000  Uiso   1.00
H118   H     0.42341   0.22039   0.45440   0.00000  Uiso   1.00
N119   N     0.50000   0.24999   0.12624   0.00000  Uiso   1.00
N120   N     0.50000   0.25001   0.37377   0.00000  Uiso   1.00
O121   O     0.50000   0.18454   0.28974   0.00000  Uiso   1.00
O122   O     0.50000   0.31547   0.21026   0.00000  Uiso   1.00
O123   O     0.50000   0.18453   0.21026   0.00000  Uiso   1.00
O124   O     0.50000   0.31547   0.28974   0.00000  Uiso   1.00
O125   O     0.42392   0.25000   0.28045   0.00000  Uiso   1.00
O126   O     0.57608   0.25000   0.21956   0.00000  Uiso   1.00
O127   O     0.42392   0.25000   0.20097   0.00000  Uiso   1.00
O128   O     0.57608   0.25001   0.29904   0.00000  Uiso   1.00
Zn129  Zn    0.50000   0.25001   0.30307   0.00000  Uiso   1.00
Zn130  Zn    0.50000   0.25000   0.19693   0.00000  Uiso   1.00
O131   O     0.65405   0.24099   0.18441   0.00000  Uiso   1.00
C132   C     0.65572   0.19485   0.17211   0.00000  Uiso   1.00
H133   H     0.64322   0.17297   0.20000   0.00000  Uiso   1.00
H134   H     0.36175   0.18525   0.16494   0.00000  Uiso   1.00
H135   H     0.62842   0.18879   0.13870   0.00000  Uiso   1.00
O136   O     0.34558   0.26513   0.31441   0.00000  Uiso   1.00
C137   C     0.34125   0.31176   0.32334   0.00000  Uiso   1.00
H138   H     0.63423   0.32089   0.32814   0.00000  Uiso   1.00
H139   H     0.35387   0.33214   0.29438   0.00000  Uiso   1.00
H140   H     0.36698   0.32056   0.35699   0.00000  Uiso   1.00
C141   C     0.60796   0.03517   0.31263   0.00000  Uiso   1.00
H142   H     0.59467   0.01182   0.33861   0.00000  Uiso   1.00
H143   H     0.63397   0.01679   0.29124   0.00000  Uiso   1.00
H144   H     0.63069   0.06263   0.33298   0.00000  Uiso   1.00
C145   C     0.57548   0.46735   0.17930   0.00000  Uiso   1.00
H146   H     0.55093   0.46219   0.14414   0.00000  Uiso   1.00
H147   H     0.58452   0.00376   0.18422   0.00000  Uiso   1.00
H148   H     0.61277   0.44922   0.17912   0.00000  Uiso   1.00
C149   C     0.42756   0.10416   0.18766   0.00000  Uiso   1.00
H150   H     0.43867   0.12738   0.16060   0.00000  Uiso   1.00
H151   H     0.40457   0.07625   0.16840   0.00000  Uiso   1.00
H152   H     0.40240   0.12199   0.21028   0.00000  Uiso   1.00
C153   C     0.46672   0.39493   0.32820   0.00000  Uiso   1.00
H154   H     0.43178   0.37615   0.31151   0.00000  Uiso   1.00
H155   H     0.49215   0.37274   0.35268   0.00000  Uiso   1.00
H156   H     0.45344   0.42266   0.35022   0.00000  Uiso   1.00
C157   C     0.83348   0.16371   0.24965   0.00000  Uiso   1.00
C158   C     0.83440   0.33655   0.25061   0.00000  Uiso   1.00
C159   C     0.80643   0.21693   0.04846   0.00000  Uiso   1.00
C160   C     0.87587   0.26714   0.45332   0.00000  Uiso   1.00
C161   C     0.80663   0.21768   0.09812   0.00000  Uiso   1.00
C162   C     0.87489   0.26698   0.40354   0.00000  Uiso   1.00
C163   C     0.86016   0.28235   0.10647   0.00000  Uiso   1.00
C164   C     0.79184   0.23312   0.39197   0.00000  Uiso   1.00
C165   C     0.86054   0.28315   0.05690   0.00000  Uiso   1.00
C166   C     0.79093   0.23315   0.44147   0.00000  Uiso   1.00
C167   C     0.83349   0.25008   0.02673   0.00000  Uiso   1.00
C168   C     0.83343   0.25015   0.47334   0.00000  Uiso   1.00
C169   C     0.73391   0.24991   0.23769   0.00000  Uiso   1.00
C170   C     0.93272   0.25093   0.26223   0.00000  Uiso   1.00
C171   C     0.67927   0.24761   0.23083   0.00000  Uiso   1.00
C172   C     0.98720   0.25526   0.26864   0.00000  Uiso   1.00
C173   C     0.89525   0.05321   0.27997   0.00000  Uiso   1.00
C174   C     0.88123   0.44903   0.21816   0.00000  Uiso   1.00
C175   C     0.88445   0.09907   0.27965   0.00000  Uiso   1.00
C176   C     0.87033   0.40327   0.21799   0.00000  Uiso   1.00
C177   C     0.84138   0.11582   0.24961   0.00000  Uiso   1.00
C178   C     0.84366   0.38484   0.25285   0.00000  Uiso   1.00
C179   C     0.80875   0.08715   0.21861   0.00000  Uiso   1.00
C180   C     0.82928   0.41240   0.28996   0.00000  Uiso   1.00
C181   C     0.81982   0.04146   0.21876   0.00000  Uiso   1.00
C182   C     0.84041   0.45811   0.28995   0.00000  Uiso   1.00
C183   C     0.86213   0.02465   0.24949   0.00000  Uiso   1.00
C184   C     0.86497   0.47636   0.25400   0.00000  Uiso   1.00
H185   H     0.90964   0.12194   0.30262   0.00000  Uiso   1.00
H186   H     0.88278   0.38199   0.19035   0.00000  Uiso   1.00
H187   H     0.79423   0.01840   0.19641   0.00000  Uiso   1.00
H188   H     0.82747   0.48030   0.31663   0.00000  Uiso   1.00
H189   H     0.78568   0.19012   0.02750   0.00000  Uiso   1.00
H190   H     0.91008   0.27993   0.47580   0.00000  Uiso   1.00
H191   H     0.78542   0.19226   0.11423   0.00000  Uiso   1.00
H192   H     0.90765   0.28028   0.38874   0.00000  Uiso   1.00
H193   H     0.88120   0.30785   0.12919   0.00000  Uiso   1.00
H194   H     0.75913   0.21956   0.36810   0.00000  Uiso   1.00
H195   H     0.88132   0.30999   0.04245   0.00000  Uiso   1.00
H196   H     0.75674   0.22039   0.45440   0.00000  Uiso   1.00
N197   N     0.83333   0.24999   0.12624   0.00000  Uiso   1.00
N198   N     0.83333   0.25001   0.37377   0.00000  Uiso   1.00
O199   O     0.83334   0.18454   0.28974   0.00000  Uiso   1.00
O200   O     0.83333   0.31547   0.21026   0.00000  Uiso   1.00
O201   O     0.83334   0.18453   0.21026   0.00000  Uiso   1.00
O202   O     0.83333   0.31547   0.28974   0.00000  Uiso   1.00
O203   O     0.75725   0.25000   0.28045   0.00000  Uiso   1.00
O204   O     0.90942   0.25000   0.21956   0.00000  Uiso   1.00
O205   O     0.75725   0.25000   0.20097   0.00000  Uiso   1.00
O206   O     0.90942   0.25001   0.29904   0.00000  Uiso   1.00
Zn207  Zn    0.83333   0.25001   0.30307   0.00000  Uiso   1.00
Zn208  Zn    0.83333   0.25000   0.19693   0.00000  Uiso   1.00
O209   O     0.98738   0.24099   0.18441   0.00000  Uiso   1.00
C210   C     0.98905   0.19485   0.17211   0.00000  Uiso   1.00
H211   H     0.97655   0.17297   0.20000   0.00000  Uiso   1.00
H212   H     0.69508   0.18525   0.16494   0.00000  Uiso   1.00
H213   H     0.96175   0.18879   0.13870   0.00000  Uiso   1.00
O214   O     0.67891   0.26513   0.31441   0.00000  Uiso   1.00
C215   C     0.67458   0.31176   0.32334   0.00000  Uiso   1.00
H216   H     0.96757   0.32089   0.32814   0.00000  Uiso   1.00
H217   H     0.68720   0.33214   0.29438   0.00000  Uiso   1.00
H218   H     0.70032   0.32056   0.35699   0.00000  Uiso   1.00
C219   C     0.94129   0.03517   0.31263   0.00000  Uiso   1.00
H220   H     0.92801   0.01182   0.33861   0.00000  Uiso   1.00
H221   H     0.96730   0.01679   0.29124   0.00000  Uiso   1.00
H222   H     0.96402   0.06263   0.33298   0.00000  Uiso   1.00
C223   C     0.90882   0.46735   0.17930   0.00000  Uiso   1.00
H224   H     0.88427   0.46219   0.14414   0.00000  Uiso   1.00
H225   H     0.91785   0.00376   0.18422   0.00000  Uiso   1.00
H226   H     0.94610   0.44922   0.17912   0.00000  Uiso   1.00
C227   C     0.76090   0.10416   0.18766   0.00000  Uiso   1.00
H228   H     0.77201   0.12738   0.16060   0.00000  Uiso   1.00
H229   H     0.73790   0.07625   0.16840   0.00000  Uiso   1.00
H230   H     0.73573   0.12199   0.21028   0.00000  Uiso   1.00
C231   C     0.80005   0.39493   0.32820   0.00000  Uiso   1.00
H232   H     0.76512   0.37615   0.31151   0.00000  Uiso   1.00
H233   H     0.82548   0.37274   0.35268   0.00000  Uiso   1.00
H234   H     0.78677   0.42266   0.35022   0.00000  Uiso   1.00
C235   C     0.16681   0.66371   0.24965   0.00000  Uiso   1.00
C236   C     0.16773   0.83655   0.25061   0.00000  Uiso   1.00
C237   C     0.13976   0.71693   0.04846   0.00000  Uiso   1.00
C238   C     0.20920   0.76714   0.45332   0.00000  Uiso   1.00
C239   C     0.13996   0.71768   0.09812   0.00000  Uiso   1.00
C240   C     0.20822   0.76698   0.40354   0.00000  Uiso   1.00
C241   C     0.19349   0.78235   0.10647   0.00000  Uiso   1.00
C242   C     0.12517   0.73312   0.39197   0.00000  Uiso   1.00
C243   C     0.19387   0.78315   0.05690   0.00000  Uiso   1.00
C244   C     0.12426   0.73315   0.44147   0.00000  Uiso   1.00
C245   C     0.16682   0.75008   0.02673   0.00000  Uiso   1.00
C246   C     0.16676   0.75015   0.47334   0.00000  Uiso   1.00
C247   C     0.06724   0.74991   0.23769   0.00000  Uiso   1.00
C248   C     0.26605   0.75093   0.26223   0.00000  Uiso   1.00
C249   C     0.01260   0.74761   0.23083   0.00000  Uiso   1.00
C250   C     0.32053   0.75526   0.26864   0.00000  Uiso   1.00
C251   C     0.22858   0.55321   0.27997   0.00000  Uiso   1.00
C252   C     0.21456   0.94903   0.21816   0.00000  Uiso   1.00
C253   C     0.21778   0.59907   0.27965   0.00000  Uiso   1.00
C254   C     0.20366   0.90327   0.21799   0.00000  Uiso   1.00
C255   C     0.17471   0.61582   0.24961   0.00000  Uiso   1.00
C256   C     0.17700   0.88484   0.25285   0.00000  Uiso   1.00
C257   C     0.14208   0.58715   0.21861   0.00000  Uiso   1.00
C258   C     0.16261   0.91240   0.28996   0.00000  Uiso   1.00
C259   C     0.15315   0.54146   0.21876   0.00000  Uiso   1.00
C260   C     0.17374   0.95811   0.28995   0.00000  Uiso   1.00
C261   C     0.19547   0.52465   0.24949   0.00000  Uiso   1.00
C262   C     0.19830   0.97636   0.25400   0.00000  Uiso   1.00
H263   H     0.24297   0.62194   0.30262   0.00000  Uiso   1.00
H264   H     0.21611   0.88199   0.19035   0.00000  Uiso   1.00
H265   H     0.12757   0.51840   0.19641   0.00000  Uiso   1.00
H266   H     0.16080   0.98030   0.31663   0.00000  Uiso   1.00
H267   H     0.11902   0.69012   0.02750   0.00000  Uiso   1.00
H268   H     0.24341   0.77993   0.47580   0.00000  Uiso   1.00
H269   H     0.11875   0.69226   0.11423   0.00000  Uiso   1.00
H270   H     0.24099   0.78028   0.38874   0.00000  Uiso   1.00
H271   H     0.21453   0.80785   0.12919   0.00000  Uiso   1.00
H272   H     0.09247   0.71956   0.36810   0.00000  Uiso   1.00
H273   H     0.21465   0.80999   0.04245   0.00000  Uiso   1.00
H274   H     0.09007   0.72039   0.45440   0.00000  Uiso   1.00
N275   N     0.16667   0.74999   0.12624   0.00000  Uiso   1.00
N276   N     0.16667   0.75001   0.37377   0.00000  Uiso   1.00
O277   O     0.16667   0.68454   0.28974   0.00000  Uiso   1.00
O278   O     0.16666   0.81547   0.21026   0.00000  Uiso   1.00
O279   O     0.16667   0.68453   0.21026   0.00000  Uiso   1.00
O280   O     0.16666   0.81547   0.28974   0.00000  Uiso   1.00
O281   O     0.09058   0.75000   0.28045   0.00000  Uiso   1.00
O282   O     0.24275   0.75000   0.21956   0.00000  Uiso   1.00
O283   O     0.09058   0.75000   0.20097   0.00000  Uiso   1.00
O284   O     0.24275   0.75001   0.29904   0.00000  Uiso   1.00
Zn285  Zn    0.16667   0.75001   0.30307   0.00000  Uiso   1.00
Zn286  Zn    0.16667   0.75000   0.19693   0.00000  Uiso   1.00
O287   O     0.32071   0.74099   0.18441   0.00000  Uiso   1.00
C288   C     0.32238   0.69485   0.17211   0.00000  Uiso   1.00
H289   H     0.30988   0.67297   0.20000   0.00000  Uiso   1.00
H290   H     0.02842   0.68525   0.16494   0.00000  Uiso   1.00
H291   H     0.29508   0.68879   0.13870   0.00000  Uiso   1.00
O292   O     0.01224   0.76513   0.31441   0.00000  Uiso   1.00
C293   C     0.00792   0.81176   0.32334   0.00000  Uiso   1.00
H294   H     0.30090   0.82089   0.32814   0.00000  Uiso   1.00
H295   H     0.02053   0.83214   0.29438   0.00000  Uiso   1.00
H296   H     0.03365   0.82056   0.35699   0.00000  Uiso   1.00
C297   C     0.27462   0.53517   0.31263   0.00000  Uiso   1.00
H298   H     0.26134   0.51182   0.33861   0.00000  Uiso   1.00
H299   H     0.30064   0.51679   0.29124   0.00000  Uiso   1.00
H300   H     0.29735   0.56263   0.33298   0.00000  Uiso   1.00
C301   C     0.24215   0.96735   0.17930   0.00000  Uiso   1.00
H302   H     0.21760   0.96219   0.14414   0.00000  Uiso   1.00
H303   H     0.25118   0.50376   0.18422   0.00000  Uiso   1.00
H304   H     0.27944   0.94922   0.17912   0.00000  Uiso   1.00
C305   C     0.09423   0.60416   0.18766   0.00000  Uiso   1.00
H306   H     0.10534   0.62738   0.16060   0.00000  Uiso   1.00
H307   H     0.07124   0.57625   0.16840   0.00000  Uiso   1.00
H308   H     0.06907   0.62199   0.21028   0.00000  Uiso   1.00
C309   C     0.13339   0.89493   0.32820   0.00000  Uiso   1.00
H310   H     0.09845   0.87615   0.31151   0.00000  Uiso   1.00
H311   H     0.15881   0.87274   0.35268   0.00000  Uiso   1.00
H312   H     0.12010   0.92266   0.35022   0.00000  Uiso   1.00
C313   C     0.50014   0.66371   0.24965   0.00000  Uiso   1.00
C314   C     0.50107   0.83655   0.25061   0.00000  Uiso   1.00
C315   C     0.47309   0.71693   0.04846   0.00000  Uiso   1.00
C316   C     0.54253   0.76714   0.45332   0.00000  Uiso   1.00
C317   C     0.47329   0.71768   0.09812   0.00000  Uiso   1.00
C318   C     0.54156   0.76698   0.40354   0.00000  Uiso   1.00
C319   C     0.52682   0.78235   0.10647   0.00000  Uiso   1.00
C320   C     0.45850   0.73312   0.39197   0.00000  Uiso   1.00
C321   C     0.52721   0.78315   0.05690   0.00000  Uiso   1.00
C322   C     0.45759   0.73315   0.44147   0.00000  Uiso   1.00
C323   C     0.50016   0.75008   0.02673   0.00000  Uiso   1.00
C324   C     0.50009   0.75015   0.47334   0.00000  Uiso   1.00
C325   C     0.40057   0.74991   0.23769   0.00000  Uiso   1.00
C326   C     0.59939   0.75093   0.26223   0.00000  Uiso   1.00
C327   C     0.34593   0.74761   0.23083   0.00000  Uiso   1.00
C328   C     0.65386   0.75526   0.26864   0.00000  Uiso   1.00
C329   C     0.56192   0.55321   0.27997   0.00000  Uiso   1.00
C330   C     0.54789   0.94903   0.21816   0.00000  Uiso   1.00
C331   C     0.55112   0.59907   0.27965   0.00000  Uiso   1.00
C332   C     0.53699   0.90327   0.21799   0.00000  Uiso   1.00
C333   C     0.50804   0.61582   0.24961   0.00000  Uiso   1.00
C334   C     0.51033   0.88484   0.25285   0.00000  Uiso   1.00
C335   C     0.47542   0.58715   0.21861   0.00000  Uiso   1.00
C336   C     0.49595   0.91240   0.28996   0.00000  Uiso   1.00
C337   C     0.48648   0.54146   0.21876   0.00000  Uiso   1.00
C338   C     0.50708   0.95811   0.28995   0.00000  Uiso   1.00
C339   C     0.52880   0.52465   0.24949   0.00000  Uiso   1.00
C340   C     0.53163   0.97636   0.25400   0.00000  Uiso   1.00
H341   H     0.57630   0.62194   0.30262   0.00000  Uiso   1.00
H342   H     0.54944   0.88199   0.19035   0.00000  Uiso   1.00
H343   H     0.46090   0.51840   0.19641   0.00000  Uiso   1.00
H344   H     0.49414   0.98030   0.31663   0.00000  Uiso   1.00
H345   H     0.45235   0.69012   0.02750   0.00000  Uiso   1.00
H346   H     0.57674   0.77993   0.47580   0.00000  Uiso   1.00
H347   H     0.45209   0.69226   0.11423   0.00000  Uiso   1.00
H348   H     0.57432   0.78028   0.38874   0.00000  Uiso   1.00
H349   H     0.54786   0.80785   0.12919   0.00000  Uiso   1.00
H350   H     0.42580   0.71956   0.36810   0.00000  Uiso   1.00
H351   H     0.54798   0.80999   0.04245   0.00000  Uiso   1.00
H352   H     0.42341   0.72039   0.45440   0.00000  Uiso   1.00
N353   N     0.50000   0.74999   0.12624   0.00000  Uiso   1.00
N354   N     0.50000   0.75001   0.37377   0.00000  Uiso   1.00
O355   O     0.50000   0.68454   0.28974   0.00000  Uiso   1.00
O356   O     0.50000   0.81547   0.21026   0.00000  Uiso   1.00
O357   O     0.50000   0.68453   0.21026   0.00000  Uiso   1.00
O358   O     0.50000   0.81547   0.28974   0.00000  Uiso   1.00
O359   O     0.42392   0.75000   0.28045   0.00000  Uiso   1.00
O360   O     0.57608   0.75000   0.21956   0.00000  Uiso   1.00
O361   O     0.42392   0.75000   0.20097   0.00000  Uiso   1.00
O362   O     0.57608   0.75001   0.29904   0.00000  Uiso   1.00
Zn363  Zn    0.50000   0.75001   0.30307   0.00000  Uiso   1.00
Zn364  Zn    0.50000   0.75000   0.19693   0.00000  Uiso   1.00
O365   O     0.65405   0.74099   0.18441   0.00000  Uiso   1.00
C366   C     0.65572   0.69485   0.17211   0.00000  Uiso   1.00
H367   H     0.64322   0.67297   0.20000   0.00000  Uiso   1.00
H368   H     0.36175   0.68525   0.16494   0.00000  Uiso   1.00
H369   H     0.62842   0.68879   0.13870   0.00000  Uiso   1.00
O370   O     0.34558   0.76513   0.31441   0.00000  Uiso   1.00
C371   C     0.34125   0.81176   0.32334   0.00000  Uiso   1.00
H372   H     0.63423   0.82089   0.32814   0.00000  Uiso   1.00
H373   H     0.35387   0.83214   0.29438   0.00000  Uiso   1.00
H374   H     0.36698   0.82056   0.35699   0.00000  Uiso   1.00
C375   C     0.60796   0.53517   0.31263   0.00000  Uiso   1.00
H376   H     0.59467   0.51182   0.33861   0.00000  Uiso   1.00
H377   H     0.63397   0.51679   0.29124   0.00000  Uiso   1.00
H378   H     0.63069   0.56263   0.33298   0.00000  Uiso   1.00
C379   C     0.57548   0.96735   0.17930   0.00000  Uiso   1.00
H380   H     0.55093   0.96219   0.14414   0.00000  Uiso   1.00
H381   H     0.58452   0.50376   0.18422   0.00000  Uiso   1.00
H382   H     0.61277   0.94922   0.17912   0.00000  Uiso   1.00
C383   C     0.42756   0.60416   0.18766   0.00000  Uiso   1.00
H384   H     0.43867   0.62738   0.16060   0.00000  Uiso   1.00
H385   H     0.40457   0.57625   0.16840   0.00000  Uiso   1.00
H386   H     0.40240   0.62199   0.21028   0.00000  Uiso   1.00
C387   C     0.46672   0.89493   0.32820   0.00000  Uiso   1.00
H388   H     0.43178   0.87615   0.31151   0.00000  Uiso   1.00
H389   H     0.49215   0.87274   0.35268   0.00000  Uiso   1.00
H390   H     0.45344   0.92266   0.35022   0.00000  Uiso   1.00
C391   C     0.83348   0.66371   0.24965   0.00000  Uiso   1.00
C392   C     0.83440   0.83655   0.25061   0.00000  Uiso   1.00
C393   C     0.80643   0.71693   0.04846   0.00000  Uiso   1.00
C394   C     0.87587   0.76714   0.45332   0.00000  Uiso   1.00
C395   C     0.80663   0.71768   0.09812   0.00000  Uiso   1.00
C396   C     0.87489   0.76698   0.40354   0.00000  Uiso   1.00
C397   C     0.86016   0.78235   0.10647   0.00000  Uiso   1.00
C398   C     0.79184   0.73312   0.39197   0.00000  Uiso   1.00
C399   C     0.86054   0.78315   0.05690   0.00000  Uiso   1.00
C400   C     0.79093   0.73315   0.44147   0.00000  Uiso   1.00
C401   C     0.83349   0.75008   0.02673   0.00000  Uiso   1.00
C402   C     0.83343   0.75015   0.47334   0.00000  Uiso   1.00
C403   C     0.73391   0.74991   0.23769   0.00000  Uiso   1.00
C404   C     0.93272   0.75093   0.26223   0.00000  Uiso   1.00
C405   C     0.67927   0.74761   0.23083   0.00000  Uiso   1.00
C406   C     0.98720   0.75526   0.26864   0.00000  Uiso   1.00
C407   C     0.89525   0.55321   0.27997   0.00000  Uiso   1.00
C408   C     0.88123   0.94903   0.21816   0.00000  Uiso   1.00
C409   C     0.88445   0.59907   0.27965   0.00000  Uiso   1.00
C410   C     0.87033   0.90327   0.21799   0.00000  Uiso   1.00
C411   C     0.84138   0.61582   0.24961   0.00000  Uiso   1.00
C412   C     0.84366   0.88484   0.25285   0.00000  Uiso   1.00
C413   C     0.80875   0.58715   0.21861   0.00000  Uiso   1.00
C414   C     0.82928   0.91240   0.28996   0.00000  Uiso   1.00
C415   C     0.81982   0.54146   0.21876   0.00000  Uiso   1.00
C416   C     0.84041   0.95811   0.28995   0.00000  Uiso   1.00
C417   C     0.86213   0.52465   0.24949   0.00000  Uiso   1.00
C418   C     0.86497   0.97636   0.25400   0.00000  Uiso   1.00
H419   H     0.90964   0.62194   0.30262   0.00000  Uiso   1.00
H420   H     0.88278   0.88199   0.19035   0.00000  Uiso   1.00
H421   H     0.79423   0.51840   0.19641   0.00000  Uiso   1.00
H422   H     0.82747   0.98030   0.31663   0.00000  Uiso   1.00
H423   H     0.78568   0.69012   0.02750   0.00000  Uiso   1.00
H424   H     0.91008   0.77993   0.47580   0.00000  Uiso   1.00
H425   H     0.78542   0.69226   0.11423   0.00000  Uiso   1.00
H426   H     0.90765   0.78028   0.38874   0.00000  Uiso   1.00
H427   H     0.88120   0.80785   0.12919   0.00000  Uiso   1.00
H428   H     0.75913   0.71956   0.36810   0.00000  Uiso   1.00
H429   H     0.88132   0.80999   0.04245   0.00000  Uiso   1.00
H430   H     0.75674   0.72039   0.45440   0.00000  Uiso   1.00
N431   N     0.83333   0.74999   0.12624   0.00000  Uiso   1.00
N432   N     0.83333   0.75001   0.37377   0.00000  Uiso   1.00
O433   O     0.83334   0.68454   0.28974   0.00000  Uiso   1.00
O434   O     0.83333   0.81547   0.21026   0.00000  Uiso   1.00
O435   O     0.83334   0.68453   0.21026   0.00000  Uiso   1.00
O436   O     0.83333   0.81547   0.28974   0.00000  Uiso   1.00
O437   O     0.75725   0.75000   0.28045   0.00000  Uiso   1.00
O438   O     0.90942   0.75000   0.21956   0.00000  Uiso   1.00
O439   O     0.75725   0.75000   0.20097   0.00000  Uiso   1.00
O440   O     0.90942   0.75001   0.29904   0.00000  Uiso   1.00
Zn441  Zn    0.83333   0.75001   0.30307   0.00000  Uiso   1.00
Zn442  Zn    0.83333   0.75000   0.19693   0.00000  Uiso   1.00
O443   O     0.98738   0.74099   0.18441   0.00000  Uiso   1.00
C444   C     0.98905   0.69485   0.17211   0.00000  Uiso   1.00
H445   H     0.97655   0.67297   0.20000   0.00000  Uiso   1.00
H446   H     0.69508   0.68525   0.16494   0.00000  Uiso   1.00
H447   H     0.96175   0.68879   0.13870   0.00000  Uiso   1.00
O448   O     0.67891   0.76513   0.31441   0.00000  Uiso   1.00
C449   C     0.67458   0.81176   0.32334   0.00000  Uiso   1.00
H450   H     0.96757   0.82089   0.32814   0.00000  Uiso   1.00
H451   H     0.68720   0.83214   0.29438   0.00000  Uiso   1.00
H452   H     0.70032   0.82056   0.35699   0.00000  Uiso   1.00
C453   C     0.94129   0.53517   0.31263   0.00000  Uiso   1.00
H454   H     0.92801   0.51182   0.33861   0.00000  Uiso   1.00
H455   H     0.96730   0.51679   0.29124   0.00000  Uiso   1.00
H456   H     0.96402   0.56263   0.33298   0.00000  Uiso   1.00
C457   C     0.90882   0.96735   0.17930   0.00000  Uiso   1.00
H458   H     0.88427   0.96219   0.14414   0.00000  Uiso   1.00
H459   H     0.91785   0.50376   0.18422   0.00000  Uiso   1.00
H460   H     0.94610   0.94922   0.17912   0.00000  Uiso   1.00
C461   C     0.76090   0.60416   0.18766   0.00000  Uiso   1.00
H462   H     0.77201   0.62738   0.16060   0.00000  Uiso   1.00
H463   H     0.73790   0.57625   0.16840   0.00000  Uiso   1.00
H464   H     0.73573   0.62199   0.21028   0.00000  Uiso   1.00
C465   C     0.80005   0.89493   0.32820   0.00000  Uiso   1.00
H466   H     0.76512   0.87615   0.31151   0.00000  Uiso   1.00
H467   H     0.82548   0.87274   0.35268   0.00000  Uiso   1.00
H468   H     0.78677   0.92266   0.35022   0.00000  Uiso   1.00
C469   C     0.16681   0.16371   0.74965   0.00000  Uiso   1.00
C470   C     0.16773   0.33655   0.75061   0.00000  Uiso   1.00
C471   C     0.13976   0.21693   0.54846   0.00000  Uiso   1.00
C472   C     0.20920   0.26714   0.95332   0.00000  Uiso   1.00
C473   C     0.13996   0.21768   0.59812   0.00000  Uiso   1.00
C474   C     0.20822   0.26698   0.90354   0.00000  Uiso   1.00
C475   C     0.19349   0.28235   0.60647   0.00000  Uiso   1.00
C476   C     0.12517   0.23312   0.89197   0.00000  Uiso   1.00
C477   C     0.19387   0.28315   0.55690   0.00000  Uiso   1.00
C478   C     0.12426   0.23315   0.94147   0.00000  Uiso   1.00
C479   C     0.16682   0.25008   0.52673   0.00000  Uiso   1.00
C480   C     0.16676   0.25015   0.97334   0.00000  Uiso   1.00
C481   C     0.06724   0.24991   0.73769   0.00000  Uiso   1.00
C482   C     0.26605   0.25093   0.76223   0.00000  Uiso   1.00
C483   C     0.01260   0.24761   0.73083   0.00000  Uiso   1.00
C484   C     0.32053   0.25526   0.76864   0.00000  Uiso   1.00
C485   C     0.22858   0.05321   0.77997   0.00000  Uiso   1.00
C486   C     0.21456   0.44903   0.71816   0.00000  Uiso   1.00
C487   C     0.21778   0.09907   0.77965   0.00000  Uiso   1.00
C488   C     0.20366   0.40327   0.71799   0.00000  Uiso   1.00
C489   C     0.17471   0.11582   0.74961   0.00000  Uiso   1.00
C490   C     0.17700   0.38484   0.75285   0.00000  Uiso   1.00
C491   C     0.14208   0.08715   0.71861   0.00000  Uiso   1.00
C492   C     0.16261   0.41240   0.78996   0.00000  Uiso   1.00
C493   C     0.15315   0.04146   0.71876   0.00000  Uiso   1.00
C494   C     0.17374   0.45811   0.78995   0.00000  Uiso   1.00
C495   C     0.19547   0.02465   0.74949   0.00000  Uiso   1.00
C496   C     0.19830   0.47636   0.75400   0.00000  Uiso   1.00
H497   H     0.24297   0.12194   0.80262   0.00000  Uiso   1.00
H498   H     0.21611   0.38199   0.69035   0.00000  Uiso   1.00
H499   H     0.12757   0.01840   0.69641   0.00000  Uiso   1.00
H500   H     0.16080   0.48030   0.81663   0.00000  Uiso   1.00
H501   H     0.11902   0.19012   0.52750   0.00000  Uiso   1.00
H502   H     0.24341   0.27993   0.97580   0.00000  Uiso   1.00
H503   H     0.11875   0.19226   0.61423   0.00000  Uiso   1.00
H504   H     0.24099   0.28028   0.88874   0.00000  Uiso   1.00
H505   H     0.21453   0.30785   0.62919   0.00000  Uiso   1.00
H506   H     0.09247   0.21956   0.86810   0.00000  Uiso   1.00
H507   H     0.21465   0.30999   0.54245   0.00000  Uiso   1.00
H508   H     0.09007   0.22039   0.95440   0.00000  Uiso   1.00
N509   N     0.16667   0.24999   0.62624   0.00000  Uiso   1.00
N510   N     0.16667   0.25001   0.87377   0.00000  Uiso   1.00
O511   O     0.16667   0.18454   0.78974   0.00000  Uiso   1.00
O512   O     0.16666   0.31547   0.71026   0.00000  Uiso   1.00
O513   O     0.16667   0.18453   0.71026   0.00000  Uiso   1.00
O514   O     0.16666   0.31547   0.78974   0.00000  Uiso   1.00
O515   O     0.09058   0.25000   0.78045   0.00000  Uiso   1.00
O516   O     0.24275   0.25000   0.71956   0.00000  Uiso   1.00
O517   O     0.09058   0.25000   0.70097   0.00000  Uiso   1.00
O518   O     0.24275   0.25001   0.79904   0.00000  Uiso   1.00
Zn519  Zn    0.16667   0.25001   0.80307   0.00000  Uiso   1.00
Zn520  Zn    0.16667   0.25000   0.69693   0.00000  Uiso   1.00
O521   O     0.32071   0.24099   0.68441   0.00000  Uiso   1.00
C522   C     0.32238   0.19485   0.67211   0.00000  Uiso   1.00
H523   H     0.30988   0.17297   0.70000   0.00000  Uiso   1.00
H524   H     0.02842   0.18525   0.66494   0.00000  Uiso   1.00
H525   H     0.29508   0.18879   0.63870   0.00000  Uiso   1.00
O526   O     0.01224   0.26513   0.81441   0.00000  Uiso   1.00
C527   C     0.00792   0.31176   0.82334   0.00000  Uiso   1.00
H528   H     0.30090   0.32089   0.82814   0.00000  Uiso   1.00
H529   H     0.02053   0.33214   0.79438   0.00000  Uiso   1.00
H530   H     0.03365   0.32056   0.85699   0.00000  Uiso   1.00
C531   C     0.27462   0.03517   0.81263   0.00000  Uiso   1.00
H532   H     0.26134   0.01182   0.83861   0.00000  Uiso   1.00
H533   H     0.30064   0.01679   0.79124   0.00000  Uiso   1.00
H534   H     0.29735   0.06263   0.83298   0.00000  Uiso   1.00
C535   C     0.24215   0.46735   0.67930   0.00000  Uiso   1.00
H536   H     0.21760   0.46219   0.64414   0.00000  Uiso   1.00
H537   H     0.25118   0.00376   0.68422   0.00000  Uiso   1.00
H538   H     0.27944   0.44922   0.67912   0.00000  Uiso   1.00
C539   C     0.09423   0.10416   0.68766   0.00000  Uiso   1.00
H540   H     0.10534   0.12738   0.66060   0.00000  Uiso   1.00
H541   H     0.07124   0.07625   0.66840   0.00000  Uiso   1.00
H542   H     0.06907   0.12199   0.71028   0.00000  Uiso   1.00
C543   C     0.13339   0.39493   0.82820   0.00000  Uiso   1.00
H544   H     0.09845   0.37615   0.81151   0.00000  Uiso   1.00
H545   H     0.15881   0.37274   0.85268   0.00000  Uiso   1.00
H546   H     0.12010   0.42266   0.85022   0.00000  Uiso   1.00
C547   C     0.50014   0.16371   0.74965   0.00000  Uiso   1.00
C548   C     0.50107   0.33655   0.75061   0.00000  Uiso   1.00
C549   C     0.47309   0.21693   0.54846   0.00000  Uiso   1.00
C550   C     0.54253   0.26714   0.95332   0.00000  Uiso   1.00
C551   C     0.47329   0.21768   0.59812   0.00000  Uiso   1.00
C552   C     0.54156   0.26698   0.90354   0.00000  Uiso   1.00
C553   C     0.52682   0.28235   0.60647   0.00000  Uiso   1.00
C554   C     0.45850   0.23312   0.89197   0.00000  Uiso   1.00
C555   C     0.52721   0.28315   0.55690   0.00000  Uiso   1.00
C556   C     0.45759   0.23315   0.94147   0.00000  Uiso   1.00
C557   C     0.50016   0.25008   0.52673   0.00000  Uiso   1.00
C558   C     0.50009   0.25015   0.97334   0.00000  Uiso   1.00
C559   C     0.40057   0.24991   0.73769   0.00000  Uiso   1.00
C560   C     0.59939   0.25093   0.76223   0.00000  Uiso   1.00
C561   C     0.34593   0.24761   0.73083   0.00000  Uiso   1.00
C562   C     0.65386   0.25526   0.76864   0.00000  Uiso   1.00
C563   C     0.56192   0.05321   0.77997   0.00000  Uiso   1.00
C564   C     0.54789   0.44903   0.71816   0.00000  Uiso   1.00
C565   C     0.55112   0.09907   0.77965   0.00000  Uiso   1.00
C566   C     0.53699   0.40327   0.71799   0.00000  Uiso   1.00
C567   C     0.50804   0.11582   0.74961   0.00000  Uiso   1.00
C568   C     0.51033   0.38484   0.75285   0.00000  Uiso   1.00
C569   C     0.47542   0.08715   0.71861   0.00000  Uiso   1.00
C570   C     0.49595   0.41240   0.78996   0.00000  Uiso   1.00
C571   C     0.48648   0.04146   0.71876   0.00000  Uiso   1.00
C572   C     0.50708   0.45811   0.78995   0.00000  Uiso   1.00
C573   C     0.52880   0.02465   0.74949   0.00000  Uiso   1.00
C574   C     0.53163   0.47636   0.75400   0.00000  Uiso   1.00
H575   H     0.57630   0.12194   0.80262   0.00000  Uiso   1.00
H576   H     0.54944   0.38199   0.69035   0.00000  Uiso   1.00
H577   H     0.46090   0.01840   0.69641   0.00000  Uiso   1.00
H578   H     0.49414   0.48030   0.81663   0.00000  Uiso   1.00
H579   H     0.45235   0.19012   0.52750   0.00000  Uiso   1.00
H580   H     0.57674   0.27993   0.97580   0.00000  Uiso   1.00
H581   H     0.45209   0.19226   0.61423   0.00000  Uiso   1.00
H582   H     0.57432   0.28028   0.88874   0.00000  Uiso   1.00
H583   H     0.54786   0.30785   0.62919   0.00000  Uiso   1.00
H584   H     0.42580   0.21956   0.86810   0.00000  Uiso   1.00
H585   H     0.54798   0.30999   0.54245   0.00000  Uiso   1.00
H586   H     0.42341   0.22039   0.95440   0.00000  Uiso   1.00
N587   N     0.50000   0.24999   0.62624   0.00000  Uiso   1.00
N588   N     0.50000   0.25001   0.87377   0.00000  Uiso   1.00
O589   O     0.50000   0.18454   0.78974   0.00000  Uiso   1.00
O590   O     0.50000   0.31547   0.71026   0.00000  Uiso   1.00
O591   O     0.50000   0.18453   0.71026   0.00000  Uiso   1.00
O592   O     0.50000   0.31547   0.78974   0.00000  Uiso   1.00
O593   O     0.42392   0.25000   0.78045   0.00000  Uiso   1.00
O594   O     0.57608   0.25000   0.71956   0.00000  Uiso   1.00
O595   O     0.42392   0.25000   0.70097   0.00000  Uiso   1.00
O596   O     0.57608   0.25001   0.79904   0.00000  Uiso   1.00
Zn597  Zn    0.50000   0.25001   0.80307   0.00000  Uiso   1.00
Zn598  Zn    0.50000   0.25000   0.69693   0.00000  Uiso   1.00
O599   O     0.65405   0.24099   0.68441   0.00000  Uiso   1.00
C600   C     0.65572   0.19485   0.67211   0.00000  Uiso   1.00
H601   H     0.64322   0.17297   0.70000   0.00000  Uiso   1.00
H602   H     0.36175   0.18525   0.66494   0.00000  Uiso   1.00
H603   H     0.62842   0.18879   0.63870   0.00000  Uiso   1.00
O604   O     0.34558   0.26513   0.81441   0.00000  Uiso   1.00
C605   C     0.34125   0.31176   0.82334   0.00000  Uiso   1.00
H606   H     0.63423   0.32089   0.82814   0.00000  Uiso   1.00
H607   H     0.35387   0.33214   0.79438   0.00000  Uiso   1.00
H608   H     0.36698   0.32056   0.85699   0.00000  Uiso   1.00
C609   C     0.60796   0.03517   0.81263   0.00000  Uiso   1.00
H610   H     0.59467   0.01182   0.83861   0.00000  Uiso   1.00
H611   H     0.63397   0.01679   0.79124   0.00000  Uiso   1.00
H612   H     0.63069   0.06263   0.83298   0.00000  Uiso   1.00
C613   C     0.57548   0.46735   0.67930   0.00000  Uiso   1.00
H614   H     0.55093   0.46219   0.64414   0.00000  Uiso   1.00
H615   H     0.58452   0.00376   0.68422   0.00000  Uiso   1.00
H616   H     0.61277   0.44922   0.67912   0.00000  Uiso   1.00
C617   C     0.42756   0.10416   0.68766   0.00000  Uiso   1.00
H618   H     0.43867   0.12738   0.66060   0.00000  Uiso   1.00
H619   H     0.40457   0.07625   0.66840   0.00000  Uiso   1.00
H620   H     0.40240   0.12199   0.71028   0.00000  Uiso   1.00
C621   C     0.46672   0.39493   0.82820   0.00000  Uiso   1.00
H622   H     0.43178   0.37615   0.81151   0.00000  Uiso   1.00
H623   H     0.49215   0.37274   0.85268   0.00000  Uiso   1.00
H624   H     0.45344   0.42266   0.85022   0.00000  Uiso   1.00
C625   C     0.83348   0.16371   0.74965   0.00000  Uiso   1.00
C626   C     0.83440   0.33655   0.75061   0.00000  Uiso   1.00
C627   C     0.80643   0.21693   0.54846   0.00000  Uiso   1.00
C628   C     0.87587   0.26714   0.95332   0.00000  Uiso   1.00
C629   C     0.80663   0.21768   0.59812   0.00000  Uiso   1.00
C630   C     0.87489   0.26698   0.90354   0.00000  Uiso   1.00
C631   C     0.86016   0.28235   0.60647   0.00000  Uiso   1.00
C632   C     0.79184   0.23312   0.89197   0.00000  Uiso   1.00
C633   C     0.86054   0.28315   0.55690   0.00000  Uiso   1.00
C634   C     0.79093   0.23315   0.94147   0.00000  Uiso   1.00
C635   C     0.83349   0.25008   0.52673   0.00000  Uiso   1.00
C636   C     0.83343   0.25015   0.97334   0.00000  Uiso   1.00
C637   C     0.73391   0.24991   0.73769   0.00000  Uiso   1.00
C638   C     0.93272   0.25093   0.76223   0.00000  Uiso   1.00
C639   C     0.67927   0.24761   0.73083   0.00000  Uiso   1.00
C640   C     0.98720   0.25526   0.76864   0.00000  Uiso   1.00
C641   C     0.89525   0.05321   0.77997   0.00000  Uiso   1.00
C642   C     0.88123   0.44903   0.71816   0.00000  Uiso   1.00
C643   C     0.88445   0.09907   0.77965   0.00000  Uiso   1.00
C644   C     0.87033   0.40327   0.71799   0.00000  Uiso   1.00
C645   C     0.84138   0.11582   0.74961   0.00000  Uiso   1.00
C646   C     0.84366   0.38484   0.75285   0.00000  Uiso   1.00
C647   C     0.80875   0.08715   0.71861   0.00000  Uiso   1.00
C648   C     0.82928   0.41240   0.78996   0.00000  Uiso   1.00
C649   C     0.81982   0.04146   0.71876   0.00000  Uiso   1.00
C650   C     0.84041   0.45811   0.78995   0.00000  Uiso   1.00
C651   C     0.86213   0.02465   0.74949   0.00000  Uiso   1.00
C652   C     0.86497   0.47636   0.75400   0.00000  Uiso   1.00
H653   H     0.90964   0.12194   0.80262   0.00000  Uiso   1.00
H654   H     0.88278   0.38199   0.69035   0.00000  Uiso   1.00
H655   H     0.79423   0.01840   0.69641   0.00000  Uiso   1.00
H656   H     0.82747   0.48030   0.81663   0.00000  Uiso   1.00
H657   H     0.78568   0.19012   0.52750   0.00000  Uiso   1.00
H658   H     0.91008   0.27993   0.97580   0.00000  Uiso   1.00
H659   H     0.78542   0.19226   0.61423   0.00000  Uiso   1.00
H660   H     0.90765   0.28028   0.88874   0.00000  Uiso   1.00
H661   H     0.88120   0.30785   0.62919   0.00000  Uiso   1.00
H662   H     0.75913   0.21956   0.86810   0.00000  Uiso   1.00
H663   H     0.88132   0.30999   0.54245   0.00000  Uiso   1.00
H664   H     0.75674   0.22039   0.95440   0.00000  Uiso   1.00
N665   N     0.83333   0.24999   0.62624   0.00000  Uiso   1.00
N666   N     0.83333   0.25001   0.87377   0.00000  Uiso   1.00
O667   O     0.83334   0.18454   0.78974   0.00000  Uiso   1.00
O668   O     0.83333   0.31547   0.71026   0.00000  Uiso   1.00
O669   O     0.83334   0.18453   0.71026   0.00000  Uiso   1.00
O670   O     0.83333   0.31547   0.78974   0.00000  Uiso   1.00
O671   O     0.75725   0.25000   0.78045   0.00000  Uiso   1.00
O672   O     0.90942   0.25000   0.71956   0.00000  Uiso   1.00
O673   O     0.75725   0.25000   0.70097   0.00000  Uiso   1.00
O674   O     0.90942   0.25001   0.79904   0.00000  Uiso   1.00
Zn675  Zn    0.83333   0.25001   0.80307   0.00000  Uiso   1.00
Zn676  Zn    0.83333   0.25000   0.69693   0.00000  Uiso   1.00
O677   O     0.98738   0.24099   0.68441   0.00000  Uiso   1.00
C678   C     0.98905   0.19485   0.67211   0.00000  Uiso   1.00
H679   H     0.97655   0.17297   0.70000   0.00000  Uiso   1.00
H680   H     0.69508   0.18525   0.66494   0.00000  Uiso   1.00
H681   H     0.96175   0.18879   0.63870   0.00000  Uiso   1.00
O682   O     0.67891   0.26513   0.81441   0.00000  Uiso   1.00
C683   C     0.67458   0.31176   0.82334   0.00000  Uiso   1.00
H684   H     0.96757   0.32089   0.82814   0.00000  Uiso   1.00
H685   H     0.68720   0.33214   0.79438   0.00000  Uiso   1.00
H686   H     0.70032   0.32056   0.85699   0.00000  Uiso   1.00
C687   C     0.94129   0.03517   0.81263   0.00000  Uiso   1.00
H688   H     0.92801   0.01182   0.83861   0.00000  Uiso   1.00
H689   H     0.96730   0.01679   0.79124   0.00000  Uiso   1.00
H690   H     0.96402   0.06263   0.83298   0.00000  Uiso   1.00
C691   C     0.90882   0.46735   0.67930   0.00000  Uiso   1.00
H692   H     0.88427   0.46219   0.64414   0.00000  Uiso   1.00
H693   H     0.91785   0.00376   0.68422   0.00000  Uiso   1.00
H694   H     0.94610   0.44922   0.67912   0.00000  Uiso   1.00
C695   C     0.76090   0.10416   0.68766   0.00000  Uiso   1.00
H696   H     0.77201   0.12738   0.66060   0.00000  Uiso   1.00
H697   H     0.73790   0.07625   0.66840   0.00000  Uiso   1.00
H698   H     0.73573   0.12199   0.71028   0.00000  Uiso   1.00
C699   C     0.80005   0.39493   0.82820   0.00000  Uiso   1.00
H700   H     0.76512   0.37615   0.81151   0.00000  Uiso   1.00
H701   H     0.82548   0.37274   0.85268   0.00000  Uiso   1.00
H702   H     0.78677   0.42266   0.85022   0.00000  Uiso   1.00
C703   C     0.16681   0.66371   0.74965   0.00000  Uiso   1.00
C704   C     0.16773   0.83655   0.75061   0.00000  Uiso   1.00
C705   C     0.13976   0.71693   0.54846   0.00000  Uiso   1.00
C706   C     0.20920   0.76714   0.95332   0.00000  Uiso   1.00
C707   C     0.13996   0.71768   0.59812   0.00000  Uiso   1.00
C708   C     0.20822   0.76698   0.90354   0.00000  Uiso   1.00
C709   C     0.19349   0.78235   0.60647   0.00000  Uiso   1.00
C710   C     0.12517   0.73312   0.89197   0.00000  Uiso   1.00
C711   C     0.19387   0.78315   0.55690   0.00000  Uiso   1.00
C712   C     0.12426   0.73315   0.94147   0.00000  Uiso   1.00
C713   C     0.16682   0.75008   0.52673   0.00000  Uiso   1.00
C714   C     0.16676   0.75015   0.97334   0.00000  Uiso   1.00
C715   C     0.06724   0.74991   0.73769   0.00000  Uiso   1.00
C716   C     0.26605   0.75093   0.76223   0.00000  Uiso   1.00
C717   C     0.01260   0.74761   0.73083   0.00000  Uiso   1.00
C718   C     0.32053   0.75526   0.76864   0.00000  Uiso   1.00
C719   C     0.22858   0.55321   0.77997   0.00000  Uiso   1.00
C720   C     0.21456   0.94903   0.71816   0.00000  Uiso   1.00
C721   C     0.21778   0.59907   0.77965   0.00000  Uiso   1.00
C722   C     0.20366   0.90327   0.71799   0.00000  Uiso   1.00
C723   C     0.17471   0.61582   0.74961   0.00000  Uiso   1.00
C724   C     0.17700   0.88484   0.75285   0.00000  Uiso   1.00
C725   C     0.14208   0.58715   0.71861   0.00000  Uiso   1.00
C726   C     0.16261   0.91240   0.78996   0.00000  Uiso   1.00
C727   C     0.15315   0.54146   0.71876   0.00000  Uiso   1.00
C728   C     0.17374   0.95811   0.78995   0.00000  Uiso   1.00
C729   C     0.19547   0.52465   0.74949   0.00000  Uiso   1.00
C730   C     0.19830   0.97636   0.75400   0.00000  Uiso   1.00
H731   H     0.24297   0.62194   0.80262   0.00000  Uiso   1.00
H732   H     0.21611   0.88199   0.69035   0.00000  Uiso   1.00
H733   H     0.12757   0.51840   0.69641   0.00000  Uiso   1.00
H734   H     0.16080   0.98030   0.81663   0.00000  Uiso   1.00
H735   H     0.11902   0.69012   0.52750   0.00000  Uiso   1.00
H736   H     0.24341   0.77993   0.97580   0.00000  Uiso   1.00
H737   H     0.11875   0.69226   0.61423   0.00000  Uiso   1.00
H738   H     0.24099   0.78028   0.88874   0.00000  Uiso   1.00
H739   H     0.21453   0.80785   0.62919   0.00000  Uiso   1.00
H740   H     0.09247   0.71956   0.86810   0.00000  Uiso   1.00
H741   H     0.21465   0.80999   0.54245   0.00000  Uiso   1.00
H742   H     0.09007   0.72039   0.95440   0.00000  Uiso   1.00
N743   N     0.16667   0.74999   0.62624   0.00000  Uiso   1.00
N744   N     0.16667   0.75001   0.87377   0.00000  Uiso   1.00
O745   O     0.16667   0.68454   0.78974   0.00000  Uiso   1.00
O746   O     0.16666   0.81547   0.71026   0.00000  Uiso   1.00
O747   O     0.16667   0.68453   0.71026   0.00000  Uiso   1.00
O748   O     0.16666   0.81547   0.78974   0.00000  Uiso   1.00
O749   O     0.09058   0.75000   0.78045   0.00000  Uiso   1.00
O750   O     0.24275   0.75000   0.71956   0.00000  Uiso   1.00
O751   O     0.09058   0.75000   0.70097   0.00000  Uiso   1.00
O752   O     0.24275   0.75001   0.79904   0.00000  Uiso   1.00
Zn753  Zn    0.16667   0.75001   0.80307   0.00000  Uiso   1.00
Zn754  Zn    0.16667   0.75000   0.69693   0.00000  Uiso   1.00
O755   O     0.32071   0.74099   0.68441   0.00000  Uiso   1.00
C756   C     0.32238   0.69485   0.67211   0.00000  Uiso   1.00
H757   H     0.30988   0.67297   0.70000   0.00000  Uiso   1.00
H758   H     0.02842   0.68525   0.66494   0.00000  Uiso   1.00
H759   H     0.29508   0.68879   0.63870   0.00000  Uiso   1.00
O760   O     0.01224   0.76513   0.81441   0.00000  Uiso   1.00
C761   C     0.00792   0.81176   0.82334   0.00000  Uiso   1.00
H762   H     0.30090   0.82089   0.82814   0.00000  Uiso   1.00
H763   H     0.02053   0.83214   0.79438   0.00000  Uiso   1.00
H764   H     0.03365   0.82056   0.85699   0.00000  Uiso   1.00
C765   C     0.27462   0.53517   0.81263   0.00000  Uiso   1.00
H766   H     0.26134   0.51182   0.83861   0.00000  Uiso   1.00
H767   H     0.30064   0.51679   0.79124   0.00000  Uiso   1.00
H768   H     0.29735   0.56263   0.83298   0.00000  Uiso   1.00
C769   C     0.24215   0.96735   0.67930   0.00000  Uiso   1.00
H770   H     0.21760   0.96219   0.64414   0.00000  Uiso   1.00
H771   H     0.25118   0.50376   0.68422   0.00000  Uiso   1.00
H772   H     0.27944   0.94922   0.67912   0.00000  Uiso   1.00
C773   C     0.09423   0.60416   0.68766   0.00000  Uiso   1.00
H774   H     0.10534   0.62738   0.66060   0.00000  Uiso   1.00
H775   H     0.07124   0.57625   0.66840   0.00000  Uiso   1.00
H776   H     0.06907   0.62199   0.71028   0.00000  Uiso   1.00
C777   C     0.13339   0.89493   0.82820   0.00000  Uiso   1.00
H778   H     0.09845   0.87615   0.81151   0.00000  Uiso   1.00
H779   H     0.15881   0.87274   0.85268   0.00000  Uiso   1.00
H780   H     0.12010   0.92266   0.85022   0.00000  Uiso   1.00
C781   C     0.50014   0.66371   0.74965   0.00000  Uiso   1.00
C782   C     0.50107   0.83655   0.75061   0.00000  Uiso   1.00
C783   C     0.47309   0.71693   0.54846   0.00000  Uiso   1.00
C784   C     0.54253   0.76714   0.95332   0.00000  Uiso   1.00
C785   C     0.47329   0.71768   0.59812   0.00000  Uiso   1.00
C786   C     0.54156   0.76698   0.90354   0.00000  Uiso   1.00
C787   C     0.52682   0.78235   0.60647   0.00000  Uiso   1.00
C788   C     0.45850   0.73312   0.89197   0.00000  Uiso   1.00
C789   C     0.52721   0.78315   0.55690   0.00000  Uiso   1.00
C790   C     0.45759   0.73315   0.94147   0.00000  Uiso   1.00
C791   C     0.50016   0.75008   0.52673   0.00000  Uiso   1.00
C792   C     0.50009   0.75015   0.97334   0.00000  Uiso   1.00
C793   C     0.40057   0.74991   0.73769   0.00000  Uiso   1.00
C794   C     0.59939   0.75093   0.76223   0.00000  Uiso   1.00
C795   C     0.34593   0.74761   0.73083   0.00000  Uiso   1.00
C796   C     0.65386   0.75526   0.76864   0.00000  Uiso   1.00
C797   C     0.56192   0.55321   0.77997   0.00000  Uiso   1.00
C798   C     0.54789   0.94903   0.71816   0.00000  Uiso   1.00
C799   C     0.55112   0.59907   0.77965   0.00000  Uiso   1.00
C800   C     0.53699   0.90327   0.71799   0.00000  Uiso   1.00
C801   C     0.50804   0.61582   0.74961   0.00000  Uiso   1.00
C802   C     0.51033   0.88484   0.75285   0.00000  Uiso   1.00
C803   C     0.47542   0.58715   0.71861   0.00000  Uiso   1.00
C804   C     0.49595   0.91240   0.78996   0.00000  Uiso   1.00
C805   C     0.48648   0.54146   0.71876   0.00000  Uiso   1.00
C806   C     0.50708   0.95811   0.78995   0.00000  Uiso   1.00
C807   C     0.52880   0.52465   0.74949   0.00000  Uiso   1.00
C808   C     0.53163   0.97636   0.75400   0.00000  Uiso   1.00
H809   H     0.57630   0.62194   0.80262   0.00000  Uiso   1.00
H810   H     0.54944   0.88199   0.69035   0.00000  Uiso   1.00
H811   H     0.46090   0.51840   0.69641   0.00000  Uiso   1.00
H812   H     0.49414   0.98030   0.81663   0.00000  Uiso   1.00
H813   H     0.45235   0.69012   0.52750   0.00000  Uiso   1.00
H814   H     0.57674   0.77993   0.97580   0.00000  Uiso   1.00
H815   H     0.45209   0.69226   0.61423   0.00000  Uiso   1.00
H816   H     0.57432   0.78028   0.88874   0.00000  Uiso   1.00
H817   H     0.54786   0.80785   0.62919   0.00000  Uiso   1.00
H818   H     0.42580   0.71956   0.86810   0.00000  Uiso   1.00
H819   H     0.54798   0.80999   0.54245   0.00000  Uiso   1.00
H820   H     0.42341   0.72039   0.95440   0.00000  Uiso   1.00
N821   N     0.50000   0.74999   0.62624   0.00000  Uiso   1.00
N822   N     0.50000   0.75001   0.87377   0.00000  Uiso   1.00
O823   O     0.50000   0.68454   0.78974   0.00000  Uiso   1.00
O824   O     0.50000   0.81547   0.71026   0.00000  Uiso   1.00
O825   O     0.50000   0.68453   0.71026   0.00000  Uiso   1.00
O826   O     0.50000   0.81547   0.78974   0.00000  Uiso   1.00
O827   O     0.42392   0.75000   0.78045   0.00000  Uiso   1.00
O828   O     0.57608   0.75000   0.71956   0.00000  Uiso   1.00
O829   O     0.42392   0.75000   0.70097   0.00000  Uiso   1.00
O830   O     0.57608   0.75001   0.79904   0.00000  Uiso   1.00
Zn831  Zn    0.50000   0.75001   0.80307   0.00000  Uiso   1.00
Zn832  Zn    0.50000   0.75000   0.69693   0.00000  Uiso   1.00
O833   O     0.65405   0.74099   0.68441   0.00000  Uiso   1.00
C834   C     0.65572   0.69485   0.67211   0.00000  Uiso   1.00
H835   H     0.64322   0.67297   0.70000   0.00000  Uiso   1.00
H836   H     0.36175   0.68525   0.66494   0.00000  Uiso   1.00
H837   H     0.62842   0.68879   0.63870   0.00000  Uiso   1.00
O838   O     0.34558   0.76513   0.81441   0.00000  Uiso   1.00
C839   C     0.34125   0.81176   0.82334   0.00000  Uiso   1.00
H840   H     0.63423   0.82089   0.82814   0.00000  Uiso   1.00
H841   H     0.35387   0.83214   0.79438   0.00000  Uiso   1.00
H842   H     0.36698   0.82056   0.85699   0.00000  Uiso   1.00
C843   C     0.60796   0.53517   0.81263   0.00000  Uiso   1.00
H844   H     0.59467   0.51182   0.83861   0.00000  Uiso   1.00
H845   H     0.63397   0.51679   0.79124   0.00000  Uiso   1.00
H846   H     0.63069   0.56263   0.83298   0.00000  Uiso   1.00
C847   C     0.57548   0.96735   0.67930   0.00000  Uiso   1.00
H848   H     0.55093   0.96219   0.64414   0.00000  Uiso   1.00
H849   H     0.58452   0.50376   0.68422   0.00000  Uiso   1.00
H850   H     0.61277   0.94922   0.67912   0.00000  Uiso   1.00
C851   C     0.42756   0.60416   0.68766   0.00000  Uiso   1.00
H852   H     0.43867   0.62738   0.66060   0.00000  Uiso   1.00
H853   H     0.40457   0.57625   0.66840   0.00000  Uiso   1.00
H854   H     0.40240   0.62199   0.71028   0.00000  Uiso   1.00
C855   C     0.46672   0.89493   0.82820   0.00000  Uiso   1.00
H856   H     0.43178   0.87615   0.81151   0.00000  Uiso   1.00
H857   H     0.49215   0.87274   0.85268   0.00000  Uiso   1.00
H858   H     0.45344   0.92266   0.85022   0.00000  Uiso   1.00
C859   C     0.83348   0.66371   0.74965   0.00000  Uiso   1.00
C860   C     0.83440   0.83655   0.75061   0.00000  Uiso   1.00
C861   C     0.80643   0.71693   0.54846   0.00000  Uiso   1.00
C862   C     0.87587   0.76714   0.95332   0.00000  Uiso   1.00
C863   C     0.80663   0.71768   0.59812   0.00000  Uiso   1.00
C864   C     0.87489   0.76698   0.90354   0.00000  Uiso   1.00
C865   C     0.86016   0.78235   0.60647   0.00000  Uiso   1.00
C866   C     0.79184   0.73312   0.89197   0.00000  Uiso   1.00
C867   C     0.86054   0.78315   0.55690   0.00000  Uiso   1.00
C868   C     0.79093   0.73315   0.94147   0.00000  Uiso   1.00
C869   C     0.83349   0.75008   0.52673   0.00000  Uiso   1.00
C870   C     0.83343   0.75015   0.97334   0.00000  Uiso   1.00
C871   C     0.73391   0.74991   0.73769   0.00000  Uiso   1.00
C872   C     0.93272   0.75093   0.76223   0.00000  Uiso   1.00
C873   C     0.67927   0.74761   0.73083   0.00000  Uiso   1.00
C874   C     0.98720   0.75526   0.76864   0.00000  Uiso   1.00
C875   C     0.89525   0.55321   0.77997   0.00000  Uiso   1.00
C876   C     0.88123   0.94903   0.71816   0.00000  Uiso   1.00
C877   C     0.88445   0.59907   0.77965   0.00000  Uiso   1.00
C878   C     0.87033   0.90327   0.71799   0.00000  Uiso   1.00
C879   C     0.84138   0.61582   0.74961   0.00000  Uiso   1.00
C880   C     0.84366   0.88484   0.75285   0.00000  Uiso   1.00
C881   C     0.80875   0.58715   0.71861   0.00000  Uiso   1.00
C882   C     0.82928   0.91240   0.78996   0.00000  Uiso   1.00
C883   C     0.81982   0.54146   0.71876   0.00000  Uiso   1.00
C884   C     0.84041   0.95811   0.78995   0.00000  Uiso   1.00
C885   C     0.86213   0.52465   0.74949   0.00000  Uiso   1.00
C886   C     0.86497   0.97636   0.75400   0.00000  Uiso   1.00
H887   H     0.90964   0.62194   0.80262   0.00000  Uiso   1.00
H888   H     0.88278   0.88199   0.69035   0.00000  Uiso   1.00
H889   H     0.79423   0.51840   0.69641   0.00000  Uiso   1.00
H890   H     0.82747   0.98030   0.81663   0.00000  Uiso   1.00
H891   H     0.78568   0.69012   0.52750   0.00000  Uiso   1.00
H892   H     0.91008   0.77993   0.97580   0.00000  Uiso   1.00
H893   H     0.78542   0.69226   0.61423   0.00000  Uiso   1.00
H894   H     0.90765   0.78028   0.88874   0.00000  Uiso   1.00
H895   H     0.88120   0.80785   0.62919   0.00000  Uiso   1.00
H896   H     0.75913   0.71956   0.86810   0.00000  Uiso   1.00
H897   H     0.88132   0.80999   0.54245   0.00000  Uiso   1.00
H898   H     0.75674   0.72039   0.95440   0.00000  Uiso   1.00
N899   N     0.83333   0.74999   0.62624   0.00000  Uiso   1.00
N900   N     0.83333   0.75001   0.87377   0.00000  Uiso   1.00
O901   O     0.83334   0.68454   0.78974   0.00000  Uiso   1.00
O902   O     0.83333   0.81547   0.71026   0.00000  Uiso   1.00
O903   O     0.83334   0.68453   0.71026   0.00000  Uiso   1.00
O904   O     0.83333   0.81547   0.78974   0.00000  Uiso   1.00
O905   O     0.75725   0.75000   0.78045   0.00000  Uiso   1.00
O906   O     0.90942   0.75000   0.71956   0.00000  Uiso   1.00
O907   O     0.75725   0.75000   0.70097   0.00000  Uiso   1.00
O908   O     0.90942   0.75001   0.79904   0.00000  Uiso   1.00
Zn909  Zn    0.83333   0.75001   0.80307   0.00000  Uiso   1.00
Zn910  Zn    0.83333   0.75000   0.69693   0.00000  Uiso   1.00
O911   O     0.98738   0.74099   0.68441   0.00000  Uiso   1.00
C912   C     0.98905   0.69485   0.67211   0.00000  Uiso   1.00
H913   H     0.97655   0.67297   0.70000   0.00000  Uiso   1.00
H914   H     0.69508   0.68525   0.66494   0.00000  Uiso   1.00
H915   H     0.96175   0.68879   0.63870   0.00000  Uiso   1.00
O916   O     0.67891   0.76513   0.81441   0.00000  Uiso   1.00
C917   C     0.67458   0.81176   0.82334   0.00000  Uiso   1.00
H918   H     0.96757   0.82089   0.82814   0.00000  Uiso   1.00
H919   H     0.68720   0.83214   0.79438   0.00000  Uiso   1.00
H920   H     0.70032   0.82056   0.85699   0.00000  Uiso   1.00
C921   C     0.94129   0.53517   0.81263   0.00000  Uiso   1.00
H922   H     0.92801   0.51182   0.83861   0.00000  Uiso   1.00
H923   H     0.96730   0.51679   0.79124   0.00000  Uiso   1.00
H924   H     0.96402   0.56263   0.83298   0.00000  Uiso   1.00
C925   C     0.90882   0.96735   0.67930   0.00000  Uiso   1.00
H926   H     0.88427   0.96219   0.64414   0.00000  Uiso   1.00
H927   H     0.91785   0.50376   0.68422   0.00000  Uiso   1.00
H928   H     0.94610   0.94922   0.67912   0.00000  Uiso   1.00
C929   C     0.76090   0.60416   0.68766   0.00000  Uiso   1.00
H930   H     0.77201   0.62738   0.66060   0.00000  Uiso   1.00
H931   H     0.73790   0.57625   0.66840   0.00000  Uiso   1.00
H932   H     0.73573   0.62199   0.71028   0.00000  Uiso   1.00
C933   C     0.80005   0.89493   0.82820   0.00000  Uiso   1.00
H934   H     0.76512   0.87615   0.81151   0.00000  Uiso   1.00
H935   H     0.82548   0.87274   0.85268   0.00000  Uiso   1.00
H936   H     0.78677   0.92266   0.85022   0.00000  Uiso   1.00
loop_
_geom_bond_atom_site_label_1
_geom_bond_atom_site_label_2
_geom_bond_distance
_geom_bond_site_symmetry_2
_ccdc_geom_bond_type
C1     C21     1.437   .     S
C1     O43     1.285   .     A
C1     O45     1.283   .     A
C2     O46     1.285   .     A
C2     O44     1.291   .     A
C2     C22     1.453   .     S
C3     H33     1.082   .     S
C3     C5      1.405   .     A
C3     C11     1.411   .     A
C4     C12     1.411   .     A
C4     H34     1.082   .     S
C4     C6      1.406   .     A
C5     N41     1.362   .     A
C5     H35     1.080   .     S
C6     H36     1.081   .     S
C6     N42     1.362   .     A
C7     H37     1.082   .     S
C7     C9      1.406   .     A
C7     N41     1.362   .     A
C8     N42     1.362   .     A
C8     H38     1.081   .     S
C8     C10     1.405   .     A
C9     H39     1.082   .     S
C9     C11     1.411   .     A
C10    H40     1.082   .     S
C10    C12     1.410   .     A
C11    C480    1.511   1_554 S
C12    C479    1.511   .     S
C13    O49     1.279   .     A
C13    C15     1.409   .     S
C13    O47     1.272   .     A
C14    O48     1.270   .     A
C14    C16     1.409   .     S
C14    O50     1.281   .     A
C15    C172    1.355   1_455 S
C15    O209    1.392   1_455 S
C16    C93     1.355   .     S
C16    O136    1.390   .     S
C17    C27     1.403   .     A
C17    C63     1.506   .     S
C17    C19     1.390   .     A
C18    C20     1.388   .     A
C18    C28     1.403   .     A
C18    C67     1.507   .     S
C19    C21     1.400   .     A
C19    H29     1.085   .     S
C20    H30     1.085   .     S
C20    C22     1.405   .     A
C21    C23     1.406   .     A
C22    C24     1.415   .     A
C23    C25     1.387   .     A
C23    C71     1.506   .     S
C24    C26     1.388   .     A
C24    C75     1.510   .     S
C25    H31     1.085   .     S
C25    C27     1.397   .     A
C26    H32     1.085   .     S
C26    C28     1.395   .     A
C27    C262    1.442   1_545 S
C28    C261    1.442   .     S
N41    Zn52    2.002   .     S
N42    Zn51    2.002   .     S
O43    Zn51    1.975   .     S
O44    Zn52    1.975   .     S
O45    Zn52    1.986   .     S
O46    Zn51    1.986   .     S
O47    Zn51    1.991   .     S
O48    Zn52    1.991   .     S
O49    Zn52    2.001   .     S
O50    Zn51    2.001   .     S
O53    C54     1.411   .     S
O53    C93     1.392   .     S
C54    H55     1.115   .     S
C54    H57     1.109   .     S
C54    H134    1.110   .     S
H56    C210    1.110   1_455 S
O58    C59     1.411   .     S
O58    C172    1.390   1_455 S
C59    H61     1.114   .     S
C59    H62     1.109   .     S
C59    H216    1.112   1_455 S
H60    C137    1.112   .     S
C63    H65     1.111   .     S
C63    H66     1.111   .     S
C63    H64     1.110   .     S
C67    H68     1.110   .     S
C67    H70     1.111   .     S
C67    H303    1.109   .     S
H69    C301    1.109   1_545 S
C71    H73     1.111   .     S
C71    H74     1.110   .     S
C71    H72     1.108   .     S
C75    H76     1.108   .     S
C75    H77     1.110   .     S
C75    H78     1.111   .     S
C79    C99     1.437   .     S
C79    O121    1.285   .     A
C79    O123    1.283   .     A
C80    O124    1.285   .     A
C80    O122    1.291   .     A
C80    C100    1.453   .     S
C81    H111    1.082   .     S
C81    C83     1.405   .     A
C81    C89     1.411   .     A
C82    C90     1.411   .     A
C82    H112    1.082   .     S
C82    C84     1.406   .     A
C83    N119    1.362   .     A
C83    H113    1.080   .     S
C84    H114    1.081   .     S
C84    N120    1.362   .     A
C85    H115    1.082   .     S
C85    C87     1.406   .     A
C85    N119    1.362   .     A
C86    N120    1.362   .     A
C86    H116    1.081   .     S
C86    C88     1.405   .     A
C87    H117    1.082   .     S
C87    C89     1.411   .     A
C88    H118    1.082   .     S
C88    C90     1.410   .     A
C89    C558    1.511   1_554 S
C90    C557    1.511   .     S
C91    O127    1.279   .     A
C91    C93     1.409   .     S
C91    O125    1.272   .     A
C92    O126    1.270   .     A
C92    C94     1.409   .     S
C92    O128    1.281   .     A
C94    C171    1.355   .     S
C94    O214    1.390   .     S
C95    C105    1.403   .     A
C95    C141    1.506   .     S
C95    C97     1.390   .     A
C96    C98     1.388   .     A
C96    C106    1.403   .     A
C96    C145    1.507   .     S
C97    C99     1.400   .     A
C97    H107    1.085   .     S
C98    H108    1.085   .     S
C98    C100    1.405   .     A
C99    C101    1.406   .     A
C100   C102    1.415   .     A
C101   C103    1.387   .     A
C101   C149    1.506   .     S
C102   C104    1.388   .     A
C102   C153    1.510   .     S
C103   H109    1.085   .     S
C103   C105    1.397   .     A
C104   H110    1.085   .     S
C104   C106    1.395   .     A
C105   C340    1.442   1_545 S
C106   C339    1.442   .     S
N119   Zn130   2.002   .     S
N120   Zn129   2.002   .     S
O121   Zn129   1.975   .     S
O122   Zn130   1.975   .     S
O123   Zn130   1.986   .     S
O124   Zn129   1.986   .     S
O125   Zn129   1.991   .     S
O126   Zn130   1.991   .     S
O127   Zn130   2.001   .     S
O128   Zn129   2.001   .     S
O131   C132    1.411   .     S
O131   C171    1.392   .     S
C132   H133    1.115   .     S
C132   H135    1.109   .     S
C132   H212    1.110   .     S
O136   C137    1.411   .     S
C137   H139    1.114   .     S
C137   H140    1.109   .     S
H138   C215    1.112   .     S
C141   H143    1.111   .     S
C141   H144    1.111   .     S
C141   H142    1.110   .     S
C145   H146    1.110   .     S
C145   H148    1.111   .     S
C145   H381    1.109   .     S
H147   C379    1.109   1_545 S
C149   H151    1.111   .     S
C149   H152    1.110   .     S
C149   H150    1.108   .     S
C153   H154    1.108   .     S
C153   H155    1.110   .     S
C153   H156    1.111   .     S
C157   C177    1.437   .     S
C157   O199    1.285   .     A
C157   O201    1.283   .     A
C158   O202    1.285   .     A
C158   O200    1.291   .     A
C158   C178    1.453   .     S
C159   H189    1.082   .     S
C159   C161    1.405   .     A
C159   C167    1.411   .     A
C160   C168    1.411   .     A
C160   H190    1.082   .     S
C160   C162    1.406   .     A
C161   N197    1.362   .     A
C161   H191    1.080   .     S
C162   H192    1.081   .     S
C162   N198    1.362   .     A
C163   H193    1.082   .     S
C163   C165    1.406   .     A
C163   N197    1.362   .     A
C164   N198    1.362   .     A
C164   H194    1.081   .     S
C164   C166    1.405   .     A
C165   H195    1.082   .     S
C165   C167    1.411   .     A
C166   H196    1.082   .     S
C166   C168    1.410   .     A
C167   C636    1.511   1_554 S
C168   C635    1.511   .     S
C169   O205    1.279   .     A
C169   C171    1.409   .     S
C169   O203    1.272   .     A
C170   O204    1.270   .     A
C170   C172    1.409   .     S
C170   O206    1.281   .     A
C172   C15     1.355   1_655 S
C172   O58     1.390   1_655 S
C173   C183    1.403   .     A
C173   C219    1.506   .     S
C173   C175    1.390   .     A
C174   C176    1.388   .     A
C174   C184    1.403   .     A
C174   C223    1.507   .     S
C175   C177    1.400   .     A
C175   H185    1.085   .     S
C176   H186    1.085   .     S
C176   C178    1.405   .     A
C177   C179    1.406   .     A
C178   C180    1.415   .     A
C179   C181    1.387   .     A
C179   C227    1.506   .     S
C180   C182    1.388   .     A
C180   C231    1.510   .     S
C181   H187    1.085   .     S
C181   C183    1.397   .     A
C182   H188    1.085   .     S
C182   C184    1.395   .     A
C183   C418    1.442   1_545 S
C184   C417    1.442   .     S
N197   Zn208   2.002   .     S
N198   Zn207   2.002   .     S
O199   Zn207   1.975   .     S
O200   Zn208   1.975   .     S
O201   Zn208   1.986   .     S
O202   Zn207   1.986   .     S
O203   Zn207   1.991   .     S
O204   Zn208   1.991   .     S
O205   Zn208   2.001   .     S
O206   Zn207   2.001   .     S
O209   C210    1.411   .     S
O209   C15     1.392   1_655 S
C210   H211    1.115   .     S
C210   H213    1.109   .     S
C210   H56     1.110   1_655 S
O214   C215    1.411   .     S
C215   H217    1.114   .     S
C215   H218    1.109   .     S
H216   C59     1.112   1_655 S
C219   H221    1.111   .     S
C219   H222    1.111   .     S
C219   H220    1.110   .     S
C223   H224    1.110   .     S
C223   H226    1.111   .     S
C223   H459    1.109   .     S
H225   C457    1.109   1_545 S
C227   H229    1.111   .     S
C227   H230    1.110   .     S
C227   H228    1.108   .     S
C231   H232    1.108   .     S
C231   H233    1.110   .     S
C231   H234    1.111   .     S
C235   C255    1.437   .     S
C235   O277    1.285   .     A
C235   O279    1.283   .     A
C236   O280    1.285   .     A
C236   O278    1.291   .     A
C236   C256    1.453   .     S
C237   H267    1.082   .     S
C237   C239    1.405   .     A
C237   C245    1.411   .     A
C238   C246    1.411   .     A
C238   H268    1.082   .     S
C238   C240    1.406   .     A
C239   N275    1.362   .     A
C239   H269    1.080   .     S
C240   H270    1.081   .     S
C240   N276    1.362   .     A
C241   H271    1.082   .     S
C241   C243    1.406   .     A
C241   N275    1.362   .     A
C242   N276    1.362   .     A
C242   H272    1.081   .     S
C242   C244    1.405   .     A
C243   H273    1.082   .     S
C243   C245    1.411   .     A
C244   H274    1.082   .     S
C244   C246    1.410   .     A
C245   C714    1.511   1_554 S
C246   C713    1.511   .     S
C247   O283    1.279   .     A
C247   C249    1.409   .     S
C247   O281    1.272   .     A
C248   O282    1.270   .     A
C248   C250    1.409   .     S
C248   O284    1.281   .     A
C249   C406    1.355   1_455 S
C249   O443    1.392   1_455 S
C250   C327    1.355   .     S
C250   O370    1.390   .     S
C251   C261    1.403   .     A
C251   C297    1.506   .     S
C251   C253    1.390   .     A
C252   C254    1.388   .     A
C252   C262    1.403   .     A
C252   C301    1.507   .     S
C253   C255    1.400   .     A
C253   H263    1.085   .     S
C254   H264    1.085   .     S
C254   C256    1.405   .     A
C255   C257    1.406   .     A
C256   C258    1.415   .     A
C257   C259    1.387   .     A
C257   C305    1.506   .     S
C258   C260    1.388   .     A
C258   C309    1.510   .     S
C259   H265    1.085   .     S
C259   C261    1.397   .     A
C260   H266    1.085   .     S
C260   C262    1.395   .     A
C262   C27     1.442   1_565 S
N275   Zn286   2.002   .     S
N276   Zn285   2.002   .     S
O277   Zn285   1.975   .     S
O278   Zn286   1.975   .     S
O279   Zn286   1.986   .     S
O280   Zn285   1.986   .     S
O281   Zn285   1.991   .     S
O282   Zn286   1.991   .     S
O283   Zn286   2.001   .     S
O284   Zn285   2.001   .     S
O287   C288    1.411   .     S
O287   C327    1.392   .     S
C288   H289    1.115   .     S
C288   H291    1.109   .     S
C288   H368    1.110   .     S
H290   C444    1.110   1_455 S
O292   C293    1.411   .     S
O292   C406    1.390   1_455 S
C293   H295    1.114   .     S
C293   H296    1.109   .     S
C293   H450    1.112   1_455 S
H294   C371    1.112   .     S
C297   H299    1.111   .     S
C297   H300    1.111   .     S
C297   H298    1.110   .     S
C301   H302    1.110   .     S
C301   H304    1.111   .     S
C301   H69     1.109   1_565 S
C305   H307    1.111   .     S
C305   H308    1.110   .     S
C305   H306    1.108   .     S
C309   H310    1.108   .     S
C309   H311    1.110   .     S
C309   H312    1.111   .     S
C313   C333    1.437   .     S
C313   O355    1.285   .     A
C313   O357    1.283   .     A
C314   O358    1.285   .     A
C314   O356    1.291   .     A
C314   C334    1.453   .     S
C315   H345    1.082   .     S
C315   C317    1.405   .     A
C315   C323    1.411   .     A
C316   C324    1.411   .     A
C316   H346    1.082   .     S
C316   C318    1.406   .     A
C317   N353    1.362   .     A
C317   H347    1.080   .     S
C318   H348    1.081   .     S
C318   N354    1.362   .     A
C319   H349    1.082   .     S
C319   C321    1.406   .     A
C319   N353    1.362   .     A
C320   N354    1.362   .     A
C320   H350    1.081   .     S
C320   C322    1.405   .     A
C321   H351    1.082   .     S
C321   C323    1.411   .     A
C322   H352    1.082   .     S
C322   C324    1.410   .     A
C323   C792    1.511   1_554 S
C324   C791    1.511   .     S
C325   O361    1.279   .     A
C325   C327    1.409   .     S
C325   O359    1.272   .     A
C326   O360    1.270   .     A
C326   C328    1.409   .     S
C326   O362    1.281   .     A
C328   C405    1.355   .     S
C328   O448    1.390   .     S
C329   C339    1.403   .     A
C329   C375    1.506   .     S
C329   C331    1.390   .     A
C330   C332    1.388   .     A
C330   C340    1.403   .     A
C330   C379    1.507   .     S
C331   C333    1.400   .     A
C331   H341    1.085   .     S
C332   H342    1.085   .     S
C332   C334    1.405   .     A
C333   C335    1.406   .     A
C334   C336    1.415   .     A
C335   C337    1.387   .     A
C335   C383    1.506   .     S
C336   C338    1.388   .     A
C336   C387    1.510   .     S
C337   H343    1.085   .     S
C337   C339    1.397   .     A
C338   H344    1.085   .     S
C338   C340    1.395   .     A
C340   C105    1.442   1_565 S
N353   Zn364   2.002   .     S
N354   Zn363   2.002   .     S
O355   Zn363   1.975   .     S
O356   Zn364   1.975   .     S
O357   Zn364   1.986   .     S
O358   Zn363   1.986   .     S
O359   Zn363   1.991   .     S
O360   Zn364   1.991   .     S
O361   Zn364   2.001   .     S
O362   Zn363   2.001   .     S
O365   C366    1.411   .     S
O365   C405    1.392   .     S
C366   H367    1.115   .     S
C366   H369    1.109   .     S
C366   H446    1.110   .     S
O370   C371    1.411   .     S
C371   H373    1.114   .     S
C371   H374    1.109   .     S
H372   C449    1.112   .     S
C375   H377    1.111   .     S
C375   H378    1.111   .     S
C375   H376    1.110   .     S
C379   H380    1.110   .     S
C379   H382    1.111   .     S
C379   H147    1.109   1_565 S
C383   H385    1.111   .     S
C383   H386    1.110   .     S
C383   H384    1.108   .     S
C387   H388    1.108   .     S
C387   H389    1.110   .     S
C387   H390    1.111   .     S
C391   C411    1.437   .     S
C391   O433    1.285   .     A
C391   O435    1.283   .     A
C392   O436    1.285   .     A
C392   O434    1.291   .     A
C392   C412    1.453   .     S
C393   H423    1.082   .     S
C393   C395    1.405   .     A
C393   C401    1.411   .     A
C394   C402    1.411   .     A
C394   H424    1.082   .     S
C394   C396    1.406   .     A
C395   N431    1.362   .     A
C395   H425    1.080   .     S
C396   H426    1.081   .     S
C396   N432    1.362   .     A
C397   H427    1.082   .     S
C397   C399    1.406   .     A
C397   N431    1.362   .     A
C398   N432    1.362   .     A
C398   H428    1.081   .     S
C398   C400    1.405   .     A
C399   H429    1.082   .     S
C399   C401    1.411   .     A
C400   H430    1.082   .     S
C400   C402    1.410   .     A
C401   C870    1.511   1_554 S
C402   C869    1.511   .     S
C403   O439    1.279   .     A
C403   C405    1.409   .     S
C403   O437    1.272   .     A
C404   O438    1.270   .     A
C404   C406    1.409   .     S
C404   O440    1.281   .     A
C406   C249    1.355   1_655 S
C406   O292    1.390   1_655 S
C407   C417    1.403   .     A
C407   C453    1.506   .     S
C407   C409    1.390   .     A
C408   C410    1.388   .     A
C408   C418    1.403   .     A
C408   C457    1.507   .     S
C409   C411    1.400   .     A
C409   H419    1.085   .     S
C410   H420    1.085   .     S
C410   C412    1.405   .     A
C411   C413    1.406   .     A
C412   C414    1.415   .     A
C413   C415    1.387   .     A
C413   C461    1.506   .     S
C414   C416    1.388   .     A
C414   C465    1.510   .     S
C415   H421    1.085   .     S
C415   C417    1.397   .     A
C416   H422    1.085   .     S
C416   C418    1.395   .     A
C418   C183    1.442   1_565 S
N431   Zn442   2.002   .     S
N432   Zn441   2.002   .     S
O433   Zn441   1.975   .     S
O434   Zn442   1.975   .     S
O435   Zn442   1.986   .     S
O436   Zn441   1.986   .     S
O437   Zn441   1.991   .     S
O438   Zn442   1.991   .     S
O439   Zn442   2.001   .     S
O440   Zn441   2.001   .     S
O443   C444    1.411   .     S
O443   C249    1.392   1_655 S
C444   H445    1.115   .     S
C444   H447    1.109   .     S
C444   H290    1.110   1_655 S
O448   C449    1.411   .     S
C449   H451    1.114   .     S
C449   H452    1.109   .     S
H450   C293    1.112   1_655 S
C453   H455    1.111   .     S
C453   H456    1.111   .     S
C453   H454    1.110   .     S
C457   H458    1.110   .     S
C457   H460    1.111   .     S
C457   H225    1.109   1_565 S
C461   H463    1.111   .     S
C461   H464    1.110   .     S
C461   H462    1.108   .     S
C465   H466    1.108   .     S
C465   H467    1.110   .     S
C465   H468    1.111   .     S
C469   C489    1.437   .     S
C469   O511    1.285   .     A
C469   O513    1.283   .     A
C470   O514    1.285   .     A
C470   O512    1.291   .     A
C470   C490    1.453   .     S
C471   H501    1.082   .     S
C471   C473    1.405   .     A
C471   C479    1.411   .     A
C472   C480    1.411   .     A
C472   H502    1.082   .     S
C472   C474    1.406   .     A
C473   N509    1.362   .     A
C473   H503    1.080   .     S
C474   H504    1.081   .     S
C474   N510    1.362   .     A
C475   H505    1.082   .     S
C475   C477    1.406   .     A
C475   N509    1.362   .     A
C476   N510    1.362   .     A
C476   H506    1.081   .     S
C476   C478    1.405   .     A
C477   H507    1.082   .     S
C477   C479    1.411   .     A
C478   H508    1.082   .     S
C478   C480    1.410   .     A
C480   C11     1.511   1_556 S
C481   O517    1.279   .     A
C481   C483    1.409   .     S
C481   O515    1.272   .     A
C482   O516    1.270   .     A
C482   C484    1.409   .     S
C482   O518    1.281   .     A
C483   C640    1.355   1_455 S
C483   O677    1.392   1_455 S
C484   C561    1.355   .     S
C484   O604    1.390   .     S
C485   C495    1.403   .     A
C485   C531    1.506   .     S
C485   C487    1.390   .     A
C486   C488    1.388   .     A
C486   C496    1.403   .     A
C486   C535    1.507   .     S
C487   C489    1.400   .     A
C487   H497    1.085   .     S
C488   H498    1.085   .     S
C488   C490    1.405   .     A
C489   C491    1.406   .     A
C490   C492    1.415   .     A
C491   C493    1.387   .     A
C491   C539    1.506   .     S
C492   C494    1.388   .     A
C492   C543    1.510   .     S
C493   H499    1.085   .     S
C493   C495    1.397   .     A
C494   H500    1.085   .     S
C494   C496    1.395   .     A
C495   C730    1.442   1_545 S
C496   C729    1.442   .     S
N509   Zn520   2.002   .     S
N510   Zn519   2.002   .     S
O511   Zn519   1.975   .     S
O512   Zn520   1.975   .     S
O513   Zn520   1.986   .     S
O514   Zn519   1.986   .     S
O515   Zn519   1.991   .     S
O516   Zn520   1.991   .     S
O517   Zn520   2.001   .     S
O518   Zn519   2.001   .     S
O521   C522    1.411   .     S
O521   C561    1.392   .     S
C522   H523    1.115   .     S
C522   H525    1.109   .     S
C522   H602    1.110   .     S
H524   C678    1.110   1_455 S
O526   C527    1.411   .     S
O526   C640    1.390   1_455 S
C527   H529    1.114   .     S
C527   H530    1.109   .     S
C527   H684    1.112   1_455 S
H528   C605    1.112   .     S
C531   H533    1.111   .     S
C531   H534    1.111   .     S
C531   H532    1.110   .     S
C535   H536    1.110   .     S
C535   H538    1.111   .     S
C535   H771    1.109   .     S
H537   C769    1.109   1_545 S
C539   H541    1.111   .     S
C539   H542    1.110   .     S
C539   H540    1.108   .     S
C543   H544    1.108   .     S
C543   H545    1.110   .     S
C543   H546    1.111   .     S
C547   C567    1.437   .     S
C547   O589    1.285   .     A
C547   O591    1.283   .     A
C548   O592    1.285   .     A
C548   O590    1.291   .     A
C548   C568    1.453   .     S
C549   H579    1.082   .     S
C549   C551    1.405   .     A
C549   C557    1.411   .     A
C550   C558    1.411   .     A
C550   H580    1.082   .     S
C550   C552    1.406   .     A
C551   N587    1.362   .     A
C551   H581    1.080   .     S
C552   H582    1.081   .     S
C552   N588    1.362   .     A
C553   H583    1.082   .     S
C553   C555    1.406   .     A
C553   N587    1.362   .     A
C554   N588    1.362   .     A
C554   H584    1.081   .     S
C554   C556    1.405   .     A
C555   H585    1.082   .     S
C555   C557    1.411   .     A
C556   H586    1.082   .     S
C556   C558    1.410   .     A
C558   C89     1.511   1_556 S
C559   O595    1.279   .     A
C559   C561    1.409   .     S
C559   O593    1.272   .     A
C560   O594    1.270   .     A
C560   C562    1.409   .     S
C560   O596    1.281   .     A
C562   C639    1.355   .     S
C562   O682    1.390   .     S
C563   C573    1.403   .     A
C563   C609    1.506   .     S
C563   C565    1.390   .     A
C564   C566    1.388   .     A
C564   C574    1.403   .     A
C564   C613    1.507   .     S
C565   C567    1.400   .     A
C565   H575    1.085   .     S
C566   H576    1.085   .     S
C566   C568    1.405   .     A
C567   C569    1.406   .     A
C568   C570    1.415   .     A
C569   C571    1.387   .     A
C569   C617    1.506   .     S
C570   C572    1.388   .     A
C570   C621    1.510   .     S
C571   H577    1.085   .     S
C571   C573    1.397   .     A
C572   H578    1.085   .     S
C572   C574    1.395   .     A
C573   C808    1.442   1_545 S
C574   C807    1.442   .     S
N587   Zn598   2.002   .     S
N588   Zn597   2.002   .     S
O589   Zn597   1.975   .     S
O590   Zn598   1.975   .     S
O591   Zn598   1.986   .     S
O592   Zn597   1.986   .     S
O593   Zn597   1.991   .     S
O594   Zn598   1.991   .     S
O595   Zn598   2.001   .     S
O596   Zn597   2.001   .     S
O599   C600    1.411   .     S
O599   C639    1.392   .     S
C600   H601    1.115   .     S
C600   H603    1.109   .     S
C600   H680    1.110   .     S
O604   C605    1.411   .     S
C605   H607    1.114   .     S
C605   H608    1.109   .     S
H606   C683    1.112   .     S
C609   H611    1.111   .     S
C609   H612    1.111   .     S
C609   H610    1.110   .     S
C613   H614    1.110   .     S
C613   H616    1.111   .     S
C613   H849    1.109   .     S
H615   C847    1.109   1_545 S
C617   H619    1.111   .     S
C617   H620    1.110   .     S
C617   H618    1.108   .     S
C621   H622    1.108   .     S
C621   H623    1.110   .     S
C621   H624    1.111   .     S
C625   C645    1.437   .     S
C625   O667    1.285   .     A
C625   O669    1.283   .     A
C626   O670    1.285   .     A
C626   O668    1.291   .     A
C626   C646    1.453   .     S
C627   H657    1.082   .     S
C627   C629    1.405   .     A
C627   C635    1.411   .     A
C628   C636    1.411   .     A
C628   H658    1.082   .     S
C628   C630    1.406   .     A
C629   N665    1.362   .     A
C629   H659    1.080   .     S
C630   H660    1.081   .     S
C630   N666    1.362   .     A
C631   H661    1.082   .     S
C631   C633    1.406   .     A
C631   N665    1.362   .     A
C632   N666    1.362   .     A
C632   H662    1.081   .     S
C632   C634    1.405   .     A
C633   H663    1.082   .     S
C633   C635    1.411   .     A
C634   H664    1.082   .     S
C634   C636    1.410   .     A
C636   C167    1.511   1_556 S
C637   O673    1.279   .     A
C637   C639    1.409   .     S
C637   O671    1.272   .     A
C638   O672    1.270   .     A
C638   C640    1.409   .     S
C638   O674    1.281   .     A
C640   C483    1.355   1_655 S
C640   O526    1.390   1_655 S
C641   C651    1.403   .     A
C641   C687    1.506   .     S
C641   C643    1.390   .     A
C642   C644    1.388   .     A
C642   C652    1.403   .     A
C642   C691    1.507   .     S
C643   C645    1.400   .     A
C643   H653    1.085   .     S
C644   H654    1.085   .     S
C644   C646    1.405   .     A
C645   C647    1.406   .     A
C646   C648    1.415   .     A
C647   C649    1.387   .     A
C647   C695    1.506   .     S
C648   C650    1.388   .     A
C648   C699    1.510   .     S
C649   H655    1.085   .     S
C649   C651    1.397   .     A
C650   H656    1.085   .     S
C650   C652    1.395   .     A
C651   C886    1.442   1_545 S
C652   C885    1.442   .     S
N665   Zn676   2.002   .     S
N666   Zn675   2.002   .     S
O667   Zn675   1.975   .     S
O668   Zn676   1.975   .     S
O669   Zn676   1.986   .     S
O670   Zn675   1.986   .     S
O671   Zn675   1.991   .     S
O672   Zn676   1.991   .     S
O673   Zn676   2.001   .     S
O674   Zn675   2.001   .     S
O677   C678    1.411   .     S
O677   C483    1.392   1_655 S
C678   H679    1.115   .     S
C678   H681    1.109   .     S
C678   H524    1.110   1_655 S
O682   C683    1.411   .     S
C683   H685    1.114   .     S
C683   H686    1.109   .     S
H684   C527    1.112   1_655 S
C687   H689    1.111   .     S
C687   H690    1.111   .     S
C687   H688    1.110   .     S
C691   H692    1.110   .     S
C691   H694    1.111   .     S
C691   H927    1.109   .     S
H693   C925    1.109   1_545 S
C695   H697    1.111   .     S
C695   H698    1.110   .     S
C695   H696    1.108   .     S
C699   H700    1.108   .     S
C699   H701    1.110   .     S
C699   H702    1.111   .     S
C703   C723    1.437   .     S
C703   O745    1.285   .     A
C703   O747    1.283   .     A
C704   O748    1.285   .     A
C704   O746    1.291   .     A
C704   C724    1.453   .     S
C705   H735    1.082   .     S
C705   C707    1.405   .     A
C705   C713    1.411   .     A
C706   C714    1.411   .     A
C706   H736    1.082   .     S
C706   C708    1.406   .     A
C707   N743    1.362   .     A
C707   H737    1.080   .     S
C708   H738    1.081   .     S
C708   N744    1.362   .     A
C709   H739    1.082   .     S
C709   C711    1.406   .     A
C709   N743    1.362   .     A
C710   N744    1.362   .     A
C710   H740    1.081   .     S
C710   C712    1.405   .     A
C711   H741    1.082   .     S
C711   C713    1.411   .     A
C712   H742    1.082   .     S
C712   C714    1.410   .     A
C714   C245    1.511   1_556 S
C715   O751    1.279   .     A
C715   C717    1.409   .     S
C715   O749    1.272   .     A
C716   O750    1.270   .     A
C716   C718    1.409   .     S
C716   O752    1.281   .     A
C717   C874    1.355   1_455 S
C717   O911    1.392   1_455 S
C718   C795    1.355   .     S
C718   O838    1.390   .     S
C719   C729    1.403   .     A
C719   C765    1.506   .     S
C719   C721    1.390   .     A
C720   C722    1.388   .     A
C720   C730    1.403   .     A
C720   C769    1.507   .     S
C721   C723    1.400   .     A
C721   H731    1.085   .     S
C722   H732    1.085   .     S
C722   C724    1.405   .     A
C723   C725    1.406   .     A
C724   C726    1.415   .     A
C725   C727    1.387   .     A
C725   C773    1.506   .     S
C726   C728    1.388   .     A
C726   C777    1.510   .     S
C727   H733    1.085   .     S
C727   C729    1.397   .     A
C728   H734    1.085   .     S
C728   C730    1.395   .     A
C730   C495    1.442   1_565 S
N743   Zn754   2.002   .     S
N744   Zn753   2.002   .     S
O745   Zn753   1.975   .     S
O746   Zn754   1.975   .     S
O747   Zn754   1.986   .     S
O748   Zn753   1.986   .     S
O749   Zn753   1.991   .     S
O750   Zn754   1.991   .     S
O751   Zn754   2.001   .     S
O752   Zn753   2.001   .     S
O755   C756    1.411   .     S
O755   C795    1.392   .     S
C756   H757    1.115   .     S
C756   H759    1.109   .     S
C756   H836    1.110   .     S
H758   C912    1.110   1_455 S
O760   C761    1.411   .     S
O760   C874    1.390   1_455 S
C761   H763    1.114   .     S
C761   H764    1.109   .     S
C761   H918    1.112   1_455 S
H762   C839    1.112   .     S
C765   H767    1.111   .     S
C765   H768    1.111   .     S
C765   H766    1.110   .     S
C769   H770    1.110   .     S
C769   H772    1.111   .     S
C769   H537    1.109   1_565 S
C773   H775    1.111   .     S
C773   H776    1.110   .     S
C773   H774    1.108   .     S
C777   H778    1.108   .     S
C777   H779    1.110   .     S
C777   H780    1.111   .     S
C781   C801    1.437   .     S
C781   O823    1.285   .     A
C781   O825    1.283   .     A
C782   O826    1.285   .     A
C782   O824    1.291   .     A
C782   C802    1.453   .     S
C783   H813    1.082   .     S
C783   C785    1.405   .     A
C783   C791    1.411   .     A
C784   C792    1.411   .     A
C784   H814    1.082   .     S
C784   C786    1.406   .     A
C785   N821    1.362   .     A
C785   H815    1.080   .     S
C786   H816    1.081   .     S
C786   N822    1.362   .     A
C787   H817    1.082   .     S
C787   C789    1.406   .     A
C787   N821    1.362   .     A
C788   N822    1.362   .     A
C788   H818    1.081   .     S
C788   C790    1.405   .     A
C789   H819    1.082   .     S
C789   C791    1.411   .     A
C790   H820    1.082   .     S
C790   C792    1.410   .     A
C792   C323    1.511   1_556 S
C793   O829    1.279   .     A
C793   C795    1.409   .     S
C793   O827    1.272   .     A
C794   O828    1.270   .     A
C794   C796    1.409   .     S
C794   O830    1.281   .     A
C796   C873    1.355   .     S
C796   O916    1.390   .     S
C797   C807    1.403   .     A
C797   C843    1.506   .     S
C797   C799    1.390   .     A
C798   C800    1.388   .     A
C798   C808    1.403   .     A
C798   C847    1.507   .     S
C799   C801    1.400   .     A
C799   H809    1.085   .     S
C800   H810    1.085   .     S
C800   C802    1.405   .     A
C801   C803    1.406   .     A
C802   C804    1.415   .     A
C803   C805    1.387   .     A
C803   C851    1.506   .     S
C804   C806    1.388   .     A
C804   C855    1.510   .     S
C805   H811    1.085   .     S
C805   C807    1.397   .     A
C806   H812    1.085   .     S
C806   C808    1.395   .     A
C808   C573    1.442   1_565 S
N821   Zn832   2.002   .     S
N822   Zn831   2.002   .     S
O823   Zn831   1.975   .     S
O824   Zn832   1.975   .     S
O825   Zn832   1.986   .     S
O826   Zn831   1.986   .     S
O827   Zn831   1.991   .     S
O828   Zn832   1.991   .     S
O829   Zn832   2.001   .     S
O830   Zn831   2.001   .     S
O833   C834    1.411   .     S
O833   C873    1.392   .     S
C834   H835    1.115   .     S
C834   H837    1.109   .     S
C834   H914    1.110   .     S
O838   C839    1.411   .     S
C839   H841    1.114   .     S
C839   H842    1.109   .     S
H840   C917    1.112   .     S
C843   H845    1.111   .     S
C843   H846    1.111   .     S
C843   H844    1.110   .     S
C847   H848    1.110   .     S
C847   H850    1.111   .     S
C847   H615    1.109   1_565 S
C851   H853    1.111   .     S
C851   H854    1.110   .     S
C851   H852    1.108   .     S
C855   H856    1.108   .     S
C855   H857    1.110   .     S
C855   H858    1.111   .     S
C859   C879    1.437   .     S
C859   O901    1.285   .     A
C859   O903    1.283   .     A
C860   O904    1.285   .     A
C860   O902    1.291   .     A
C860   C880    1.453   .     S
C861   H891    1.082   .     S
C861   C863    1.405   .     A
C861   C869    1.411   .     A
C862   C870    1.411   .     A
C862   H892    1.082   .     S
C862   C864    1.406   .     A
C863   N899    1.362   .     A
C863   H893    1.080   .     S
C864   H894    1.081   .     S
C864   N900    1.362   .     A
C865   H895    1.082   .     S
C865   C867    1.406   .     A
C865   N899    1.362   .     A
C866   N900    1.362   .     A
C866   H896    1.081   .     S
C866   C868    1.405   .     A
C867   H897    1.082   .     S
C867   C869    1.411   .     A
C868   H898    1.082   .     S
C868   C870    1.410   .     A
C870   C401    1.511   1_556 S
C871   O907    1.279   .     A
C871   C873    1.409   .     S
C871   O905    1.272   .     A
C872   O906    1.270   .     A
C872   C874    1.409   .     S
C872   O908    1.281   .     A
C874   C717    1.355   1_655 S
C874   O760    1.390   1_655 S
C875   C885    1.403   .     A
C875   C921    1.506   .     S
C875   C877    1.390   .     A
C876   C878    1.388   .     A
C876   C886    1.403   .     A
C876   C925    1.507   .     S
C877   C879    1.400   .     A
C877   H887    1.085   .     S
C878   H888    1.085   .     S
C878   C880    1.405   .     A
C879   C881    1.406   .     A
C880   C882    1.415   .     A
C881   C883    1.387   .     A
C881   C929    1.506   .     S
C882   C884    1.388   .     A
C882   C933    1.510   .     S
C883   H889    1.085   .     S
C883   C885    1.397   .     A
C884   H890    1.085   .     S
C884   C886    1.395   .     A
C886   C651    1.442   1_565 S
N899   Zn910   2.002   .     S
N900   Zn909   2.002   .     S
O901   Zn909   1.975   .     S
O902   Zn910   1.975   .     S
O903   Zn910   1.986   .     S
O904   Zn909   1.986   .     S
O905   Zn909   1.991   .     S
O906   Zn910   1.991   .     S
O907   Zn910   2.001   .     S
O908   Zn909   2.001   .     S
O911   C912    1.411   .     S
O911   C717    1.392   1_655 S
C912   H913    1.115   .     S
C912   H915    1.109   .     S
C912   H758    1.110   1_655 S
O916   C917    1.411   .     S
C917   H919    1.114   .     S
C917   H920    1.109   .     S
H918   C761    1.112   1_655 S
C921   H923    1.111   .     S
C921   H924    1.111   .     S
C921   H922    1.110   .     S
C925   H926    1.110   .     S
C925   H928    1.111   .     S
C925   H693    1.109   1_565 S
C929   H931    1.111   .     S
C929   H932    1.110   .     S
C929   H930    1.108   .     S
C933   H934    1.108   .     S
C933   H935    1.110   .     S
C933   H936    1.111   .     S
