data_str_m3_o2_o10_pcu_sym.109
_audit_creation_date              2020-01-03
_audit_creation_method            'Materials Studio'
_symmetry_space_group_name_H-M    'P1'
_symmetry_Int_Tables_number       1
_symmetry_cell_setting            triclinic
loop_
_symmetry_equiv_pos_as_xyz
  x,y,z
_cell_length_a                    25.7344
_cell_length_b                    29.9674
_cell_length_c                    28.2856
_cell_angle_alpha                 90.1112
_cell_angle_beta                  98.6410
_cell_angle_gamma                 89.8585
loop_
_atom_site_label
_atom_site_type_symbol
_atom_site_fract_x
_atom_site_fract_y
_atom_site_fract_z
_atom_site_U_iso_or_equiv
_atom_site_adp_type
_atom_site_occupancy
C1     C     0.16832   0.16386   0.25007   0.00000  Uiso   1.00
C2     C     0.12437   0.26851   0.44179   0.00000  Uiso   1.00
C3     C     0.16693   0.25023   0.02664   0.00000  Uiso   1.00
C4     C     0.16671   0.25037   0.47338   0.00000  Uiso   1.00
C5     C     0.06698   0.25040   0.23753   0.00000  Uiso   1.00
C6     C     0.26636   0.25011   0.26248   0.00000  Uiso   1.00
C7     C     0.01197   0.25149   0.23083   0.00000  Uiso   1.00
C8     C     0.32136   0.25015   0.26927   0.00000  Uiso   1.00
C9     C     0.15289   0.04632   0.28551   0.00000  Uiso   1.00
C10    C     0.15321   0.45384   0.21146   0.00000  Uiso   1.00
C11    C     0.15030   0.09225   0.28460   0.00000  Uiso   1.00
C12    C     0.16847   0.33612   0.25039   0.00000  Uiso   1.00
C13    C     0.15097   0.40793   0.21123   0.00000  Uiso   1.00
C14    C     0.17290   0.11589   0.25028   0.00000  Uiso   1.00
C15    C     0.17359   0.38403   0.25157   0.00000  Uiso   1.00
C16    C     0.19959   0.09329   0.21702   0.00000  Uiso   1.00
C17    C     0.20016   0.40630   0.29238   0.00000  Uiso   1.00
C18    C     0.20173   0.04700   0.21816   0.00000  Uiso   1.00
C19    C     0.20170   0.45266   0.29231   0.00000  Uiso   1.00
C20    C     0.17819   0.02391   0.25217   0.00000  Uiso   1.00
C21    C     0.17814   0.47599   0.25197   0.00000  Uiso   1.00
C22    C     0.22709   0.11696   0.18218   0.00000  Uiso   1.00
C23    C     0.12368   0.23385   0.04636   0.00000  Uiso   1.00
C24    C     0.20279   0.12220   0.13465   0.00000  Uiso   1.00
C25    C     0.22861   0.14503   0.10192   0.00000  Uiso   1.00
C26    C     0.27899   0.16219   0.11631   0.00000  Uiso   1.00
C27    C     0.30359   0.15659   0.16346   0.00000  Uiso   1.00
C28    C     0.27761   0.13435   0.19649   0.00000  Uiso   1.00
C29    C     0.22773   0.38211   0.33453   0.00000  Uiso   1.00
C30    C     0.20778   0.38304   0.37809   0.00000  Uiso   1.00
C31    C     0.23254   0.35862   0.41724   0.00000  Uiso   1.00
C32    C     0.27751   0.33349   0.41325   0.00000  Uiso   1.00
C33    C     0.29779   0.33269   0.37010   0.00000  Uiso   1.00
C34    C     0.20900   0.23223   0.45339   0.00000  Uiso   1.00
C35    C     0.27301   0.35686   0.33078   0.00000  Uiso   1.00
C36    C     0.12446   0.23380   0.09622   0.00000  Uiso   1.00
C37    C     0.20809   0.23218   0.40352   0.00000  Uiso   1.00
C38    C     0.20907   0.26616   0.10808   0.00000  Uiso   1.00
C39    C     0.12538   0.26823   0.39218   0.00000  Uiso   1.00
C40    C     0.21022   0.26634   0.05848   0.00000  Uiso   1.00
F41    F     0.22739   0.02441   0.18683   0.00000  Uiso   1.00
F42    F     0.22717   0.47506   0.33080   0.00000  Uiso   1.00
F43    F     0.25284   0.28324   0.04178   0.00000  Uiso   1.00
F44    F     0.08288   0.28741   0.45877   0.00000  Uiso   1.00
H45    H     0.32467   0.25312   0.19437   0.00000  Uiso   1.00
H46    H     0.24070   0.21787   0.38863   0.00000  Uiso   1.00
H47    H     0.24227   0.27914   0.13208   0.00000  Uiso   1.00
H48    H     0.09305   0.28279   0.36833   0.00000  Uiso   1.00
H49    H     0.16375   0.10906   0.12319   0.00000  Uiso   1.00
H50    H     0.20958   0.14947   0.06542   0.00000  Uiso   1.00
H51    H     0.29897   0.17979   0.09093   0.00000  Uiso   1.00
H52    H     0.00945   0.16950   0.17441   0.00000  Uiso   1.00
H53    H     0.29683   0.13051   0.23304   0.00000  Uiso   1.00
H54    H     0.17267   0.40207   0.38142   0.00000  Uiso   1.00
H55    H     0.21671   0.35898   0.45060   0.00000  Uiso   1.00
H56    H     0.00866   0.24865   0.30574   0.00000  Uiso   1.00
H57    H     0.29652   0.31449   0.44354   0.00000  Uiso   1.00
H58    H     0.33251   0.31313   0.36705   0.00000  Uiso   1.00
H59    H     0.28872   0.35562   0.29736   0.00000  Uiso   1.00
H60    H     0.13439   0.02812   0.31155   0.00000  Uiso   1.00
H61    H     0.13472   0.47223   0.18044   0.00000  Uiso   1.00
H62    H     0.12977   0.10929   0.31016   0.00000  Uiso   1.00
H63    H     0.13058   0.39111   0.17990   0.00000  Uiso   1.00
H64    H     0.08972   0.22065   0.02339   0.00000  Uiso   1.00
H65    H     0.24227   0.21763   0.47615   0.00000  Uiso   1.00
H66    H     0.09115   0.22071   0.11088   0.00000  Uiso   1.00
N67    N     0.16667   0.24999   0.12623   0.00000  Uiso   1.00
N68    N     0.16667   0.25001   0.37376   0.00000  Uiso   1.00
O69    O     0.16667   0.18453   0.28974   0.00000  Uiso   1.00
O70    O     0.16666   0.31547   0.21026   0.00000  Uiso   1.00
O71    O     0.16667   0.18453   0.21026   0.00000  Uiso   1.00
O72    O     0.16666   0.31547   0.28974   0.00000  Uiso   1.00
O73    O     0.09058   0.25000   0.28044   0.00000  Uiso   1.00
O74    O     0.24275   0.25000   0.21955   0.00000  Uiso   1.00
O75    O     0.09058   0.25000   0.20096   0.00000  Uiso   1.00
O76    O     0.24275   0.25000   0.29903   0.00000  Uiso   1.00
Zn77   Zn    0.16667   0.25001   0.30307   0.00000  Uiso   1.00
Zn78   Zn    0.16667   0.25000   0.19693   0.00000  Uiso   1.00
C79    C     0.50165   0.16386   0.25007   0.00000  Uiso   1.00
C80    C     0.45771   0.26851   0.44179   0.00000  Uiso   1.00
C81    C     0.50026   0.25023   0.02664   0.00000  Uiso   1.00
C82    C     0.50004   0.25037   0.47338   0.00000  Uiso   1.00
C83    C     0.40031   0.25040   0.23753   0.00000  Uiso   1.00
C84    C     0.59969   0.25011   0.26248   0.00000  Uiso   1.00
C85    C     0.34531   0.25149   0.23083   0.00000  Uiso   1.00
C86    C     0.65470   0.25015   0.26927   0.00000  Uiso   1.00
C87    C     0.48623   0.04632   0.28551   0.00000  Uiso   1.00
C88    C     0.48654   0.45384   0.21146   0.00000  Uiso   1.00
C89    C     0.48363   0.09225   0.28460   0.00000  Uiso   1.00
C90    C     0.50180   0.33612   0.25039   0.00000  Uiso   1.00
C91    C     0.48430   0.40793   0.21123   0.00000  Uiso   1.00
C92    C     0.50624   0.11589   0.25028   0.00000  Uiso   1.00
C93    C     0.50693   0.38403   0.25157   0.00000  Uiso   1.00
C94    C     0.53292   0.09329   0.21702   0.00000  Uiso   1.00
C95    C     0.53349   0.40630   0.29238   0.00000  Uiso   1.00
C96    C     0.53507   0.04700   0.21816   0.00000  Uiso   1.00
C97    C     0.53503   0.45266   0.29231   0.00000  Uiso   1.00
C98    C     0.51152   0.02391   0.25217   0.00000  Uiso   1.00
C99    C     0.51147   0.47599   0.25197   0.00000  Uiso   1.00
C100   C     0.56042   0.11696   0.18218   0.00000  Uiso   1.00
C101   C     0.45701   0.23385   0.04636   0.00000  Uiso   1.00
C102   C     0.53612   0.12220   0.13465   0.00000  Uiso   1.00
C103   C     0.56195   0.14503   0.10192   0.00000  Uiso   1.00
C104   C     0.61232   0.16219   0.11631   0.00000  Uiso   1.00
C105   C     0.63692   0.15659   0.16346   0.00000  Uiso   1.00
C106   C     0.61094   0.13435   0.19649   0.00000  Uiso   1.00
C107   C     0.56106   0.38211   0.33453   0.00000  Uiso   1.00
C108   C     0.54112   0.38304   0.37809   0.00000  Uiso   1.00
C109   C     0.56588   0.35862   0.41724   0.00000  Uiso   1.00
C110   C     0.61085   0.33349   0.41325   0.00000  Uiso   1.00
C111   C     0.63112   0.33269   0.37010   0.00000  Uiso   1.00
C112   C     0.54233   0.23223   0.45339   0.00000  Uiso   1.00
C113   C     0.60634   0.35686   0.33078   0.00000  Uiso   1.00
C114   C     0.45779   0.23380   0.09622   0.00000  Uiso   1.00
C115   C     0.54142   0.23218   0.40352   0.00000  Uiso   1.00
C116   C     0.54241   0.26616   0.10808   0.00000  Uiso   1.00
C117   C     0.45872   0.26823   0.39218   0.00000  Uiso   1.00
C118   C     0.54356   0.26634   0.05848   0.00000  Uiso   1.00
F119   F     0.56072   0.02441   0.18683   0.00000  Uiso   1.00
F120   F     0.56050   0.47506   0.33080   0.00000  Uiso   1.00
F121   F     0.58617   0.28324   0.04178   0.00000  Uiso   1.00
F122   F     0.41621   0.28741   0.45877   0.00000  Uiso   1.00
H123   H     0.65800   0.25312   0.19437   0.00000  Uiso   1.00
H124   H     0.57403   0.21787   0.38863   0.00000  Uiso   1.00
H125   H     0.57561   0.27914   0.13208   0.00000  Uiso   1.00
H126   H     0.42638   0.28279   0.36833   0.00000  Uiso   1.00
H127   H     0.49708   0.10906   0.12319   0.00000  Uiso   1.00
H128   H     0.54291   0.14947   0.06542   0.00000  Uiso   1.00
H129   H     0.63230   0.17979   0.09093   0.00000  Uiso   1.00
H130   H     0.34279   0.16950   0.17441   0.00000  Uiso   1.00
H131   H     0.63016   0.13051   0.23304   0.00000  Uiso   1.00
H132   H     0.50601   0.40207   0.38142   0.00000  Uiso   1.00
H133   H     0.55005   0.35898   0.45060   0.00000  Uiso   1.00
H134   H     0.34199   0.24865   0.30574   0.00000  Uiso   1.00
H135   H     0.62985   0.31449   0.44354   0.00000  Uiso   1.00
H136   H     0.66585   0.31313   0.36705   0.00000  Uiso   1.00
H137   H     0.62206   0.35562   0.29736   0.00000  Uiso   1.00
H138   H     0.46772   0.02812   0.31155   0.00000  Uiso   1.00
H139   H     0.46806   0.47223   0.18044   0.00000  Uiso   1.00
H140   H     0.46310   0.10929   0.31016   0.00000  Uiso   1.00
H141   H     0.46391   0.39111   0.17990   0.00000  Uiso   1.00
H142   H     0.42305   0.22065   0.02339   0.00000  Uiso   1.00
H143   H     0.57560   0.21763   0.47615   0.00000  Uiso   1.00
H144   H     0.42448   0.22071   0.11088   0.00000  Uiso   1.00
N145   N     0.50000   0.24999   0.12623   0.00000  Uiso   1.00
N146   N     0.50000   0.25001   0.37376   0.00000  Uiso   1.00
O147   O     0.50000   0.18453   0.28974   0.00000  Uiso   1.00
O148   O     0.50000   0.31547   0.21026   0.00000  Uiso   1.00
O149   O     0.50000   0.18453   0.21026   0.00000  Uiso   1.00
O150   O     0.50000   0.31547   0.28974   0.00000  Uiso   1.00
O151   O     0.42392   0.25000   0.28044   0.00000  Uiso   1.00
O152   O     0.57608   0.25000   0.21955   0.00000  Uiso   1.00
O153   O     0.42392   0.25000   0.20096   0.00000  Uiso   1.00
O154   O     0.57608   0.25000   0.29903   0.00000  Uiso   1.00
Zn155  Zn    0.50000   0.25001   0.30307   0.00000  Uiso   1.00
Zn156  Zn    0.50000   0.25000   0.19693   0.00000  Uiso   1.00
C157   C     0.83499   0.16386   0.25007   0.00000  Uiso   1.00
C158   C     0.79104   0.26851   0.44179   0.00000  Uiso   1.00
C159   C     0.83359   0.25023   0.02664   0.00000  Uiso   1.00
C160   C     0.83337   0.25037   0.47338   0.00000  Uiso   1.00
C161   C     0.73364   0.25040   0.23753   0.00000  Uiso   1.00
C162   C     0.93302   0.25011   0.26248   0.00000  Uiso   1.00
C163   C     0.67864   0.25149   0.23083   0.00000  Uiso   1.00
C164   C     0.98803   0.25015   0.26927   0.00000  Uiso   1.00
C165   C     0.81956   0.04632   0.28551   0.00000  Uiso   1.00
C166   C     0.81987   0.45384   0.21146   0.00000  Uiso   1.00
C167   C     0.81696   0.09225   0.28460   0.00000  Uiso   1.00
C168   C     0.83514   0.33612   0.25039   0.00000  Uiso   1.00
C169   C     0.81763   0.40793   0.21123   0.00000  Uiso   1.00
C170   C     0.83957   0.11589   0.25028   0.00000  Uiso   1.00
C171   C     0.84026   0.38403   0.25157   0.00000  Uiso   1.00
C172   C     0.86626   0.09329   0.21702   0.00000  Uiso   1.00
C173   C     0.86682   0.40630   0.29238   0.00000  Uiso   1.00
C174   C     0.86840   0.04700   0.21816   0.00000  Uiso   1.00
C175   C     0.86836   0.45266   0.29231   0.00000  Uiso   1.00
C176   C     0.84485   0.02391   0.25217   0.00000  Uiso   1.00
C177   C     0.84480   0.47599   0.25197   0.00000  Uiso   1.00
C178   C     0.89376   0.11696   0.18218   0.00000  Uiso   1.00
C179   C     0.79035   0.23385   0.04636   0.00000  Uiso   1.00
C180   C     0.86946   0.12220   0.13465   0.00000  Uiso   1.00
C181   C     0.89528   0.14503   0.10192   0.00000  Uiso   1.00
C182   C     0.94565   0.16219   0.11631   0.00000  Uiso   1.00
C183   C     0.97025   0.15659   0.16346   0.00000  Uiso   1.00
C184   C     0.94427   0.13435   0.19649   0.00000  Uiso   1.00
C185   C     0.89440   0.38211   0.33453   0.00000  Uiso   1.00
C186   C     0.87445   0.38304   0.37809   0.00000  Uiso   1.00
C187   C     0.89921   0.35862   0.41724   0.00000  Uiso   1.00
C188   C     0.94418   0.33349   0.41325   0.00000  Uiso   1.00
C189   C     0.96446   0.33269   0.37010   0.00000  Uiso   1.00
C190   C     0.87566   0.23223   0.45339   0.00000  Uiso   1.00
C191   C     0.93967   0.35686   0.33078   0.00000  Uiso   1.00
C192   C     0.79112   0.23380   0.09622   0.00000  Uiso   1.00
C193   C     0.87475   0.23218   0.40352   0.00000  Uiso   1.00
C194   C     0.87574   0.26616   0.10808   0.00000  Uiso   1.00
C195   C     0.79205   0.26823   0.39218   0.00000  Uiso   1.00
C196   C     0.87689   0.26634   0.05848   0.00000  Uiso   1.00
F197   F     0.89405   0.02441   0.18683   0.00000  Uiso   1.00
F198   F     0.89384   0.47506   0.33080   0.00000  Uiso   1.00
F199   F     0.91951   0.28324   0.04178   0.00000  Uiso   1.00
F200   F     0.74954   0.28741   0.45877   0.00000  Uiso   1.00
H201   H     0.99133   0.25312   0.19437   0.00000  Uiso   1.00
H202   H     0.90737   0.21787   0.38863   0.00000  Uiso   1.00
H203   H     0.90894   0.27914   0.13208   0.00000  Uiso   1.00
H204   H     0.75971   0.28279   0.36833   0.00000  Uiso   1.00
H205   H     0.83042   0.10906   0.12319   0.00000  Uiso   1.00
H206   H     0.87625   0.14947   0.06542   0.00000  Uiso   1.00
H207   H     0.96563   0.17979   0.09093   0.00000  Uiso   1.00
H208   H     0.67612   0.16950   0.17441   0.00000  Uiso   1.00
H209   H     0.96350   0.13051   0.23304   0.00000  Uiso   1.00
H210   H     0.83934   0.40207   0.38142   0.00000  Uiso   1.00
H211   H     0.88338   0.35898   0.45060   0.00000  Uiso   1.00
H212   H     0.67533   0.24865   0.30574   0.00000  Uiso   1.00
H213   H     0.96318   0.31449   0.44354   0.00000  Uiso   1.00
H214   H     0.99918   0.31313   0.36705   0.00000  Uiso   1.00
H215   H     0.95539   0.35562   0.29736   0.00000  Uiso   1.00
H216   H     0.80105   0.02812   0.31155   0.00000  Uiso   1.00
H217   H     0.80139   0.47223   0.18044   0.00000  Uiso   1.00
H218   H     0.79644   0.10929   0.31016   0.00000  Uiso   1.00
H219   H     0.79724   0.39111   0.17990   0.00000  Uiso   1.00
H220   H     0.75639   0.22065   0.02339   0.00000  Uiso   1.00
H221   H     0.90894   0.21763   0.47615   0.00000  Uiso   1.00
H222   H     0.75781   0.22071   0.11088   0.00000  Uiso   1.00
N223   N     0.83333   0.24999   0.12623   0.00000  Uiso   1.00
N224   N     0.83333   0.25001   0.37376   0.00000  Uiso   1.00
O225   O     0.83334   0.18453   0.28974   0.00000  Uiso   1.00
O226   O     0.83333   0.31547   0.21026   0.00000  Uiso   1.00
O227   O     0.83334   0.18453   0.21026   0.00000  Uiso   1.00
O228   O     0.83333   0.31547   0.28974   0.00000  Uiso   1.00
O229   O     0.75725   0.25000   0.28044   0.00000  Uiso   1.00
O230   O     0.90942   0.25000   0.21955   0.00000  Uiso   1.00
O231   O     0.75725   0.25000   0.20096   0.00000  Uiso   1.00
O232   O     0.90942   0.25000   0.29903   0.00000  Uiso   1.00
Zn233  Zn    0.83333   0.25001   0.30307   0.00000  Uiso   1.00
Zn234  Zn    0.83333   0.25000   0.19693   0.00000  Uiso   1.00
C235   C     0.16832   0.66386   0.25007   0.00000  Uiso   1.00
C236   C     0.12437   0.76851   0.44179   0.00000  Uiso   1.00
C237   C     0.16693   0.75023   0.02664   0.00000  Uiso   1.00
C238   C     0.16671   0.75037   0.47338   0.00000  Uiso   1.00
C239   C     0.06698   0.75040   0.23753   0.00000  Uiso   1.00
C240   C     0.26636   0.75011   0.26248   0.00000  Uiso   1.00
C241   C     0.01197   0.75149   0.23083   0.00000  Uiso   1.00
C242   C     0.32136   0.75015   0.26927   0.00000  Uiso   1.00
C243   C     0.15289   0.54632   0.28551   0.00000  Uiso   1.00
C244   C     0.15321   0.95384   0.21146   0.00000  Uiso   1.00
C245   C     0.15030   0.59225   0.28460   0.00000  Uiso   1.00
C246   C     0.16847   0.83612   0.25039   0.00000  Uiso   1.00
C247   C     0.15097   0.90793   0.21123   0.00000  Uiso   1.00
C248   C     0.17290   0.61589   0.25028   0.00000  Uiso   1.00
C249   C     0.17359   0.88403   0.25157   0.00000  Uiso   1.00
C250   C     0.19959   0.59329   0.21702   0.00000  Uiso   1.00
C251   C     0.20016   0.90630   0.29238   0.00000  Uiso   1.00
C252   C     0.20173   0.54700   0.21816   0.00000  Uiso   1.00
C253   C     0.20170   0.95266   0.29231   0.00000  Uiso   1.00
C254   C     0.17819   0.52391   0.25217   0.00000  Uiso   1.00
C255   C     0.17814   0.97599   0.25197   0.00000  Uiso   1.00
C256   C     0.22709   0.61696   0.18218   0.00000  Uiso   1.00
C257   C     0.12368   0.73385   0.04636   0.00000  Uiso   1.00
C258   C     0.20279   0.62220   0.13465   0.00000  Uiso   1.00
C259   C     0.22861   0.64503   0.10192   0.00000  Uiso   1.00
C260   C     0.27899   0.66219   0.11631   0.00000  Uiso   1.00
C261   C     0.30359   0.65659   0.16346   0.00000  Uiso   1.00
C262   C     0.27761   0.63435   0.19649   0.00000  Uiso   1.00
C263   C     0.22773   0.88211   0.33453   0.00000  Uiso   1.00
C264   C     0.20778   0.88304   0.37809   0.00000  Uiso   1.00
C265   C     0.23254   0.85862   0.41724   0.00000  Uiso   1.00
C266   C     0.27751   0.83349   0.41325   0.00000  Uiso   1.00
C267   C     0.29779   0.83269   0.37010   0.00000  Uiso   1.00
C268   C     0.20900   0.73223   0.45339   0.00000  Uiso   1.00
C269   C     0.27301   0.85686   0.33078   0.00000  Uiso   1.00
C270   C     0.12446   0.73380   0.09622   0.00000  Uiso   1.00
C271   C     0.20809   0.73218   0.40352   0.00000  Uiso   1.00
C272   C     0.20907   0.76616   0.10808   0.00000  Uiso   1.00
C273   C     0.12538   0.76823   0.39218   0.00000  Uiso   1.00
C274   C     0.21022   0.76634   0.05848   0.00000  Uiso   1.00
F275   F     0.22739   0.52441   0.18683   0.00000  Uiso   1.00
F276   F     0.22717   0.97506   0.33080   0.00000  Uiso   1.00
F277   F     0.25284   0.78324   0.04178   0.00000  Uiso   1.00
F278   F     0.08288   0.78741   0.45877   0.00000  Uiso   1.00
H279   H     0.32467   0.75312   0.19437   0.00000  Uiso   1.00
H280   H     0.24070   0.71787   0.38863   0.00000  Uiso   1.00
H281   H     0.24227   0.77914   0.13208   0.00000  Uiso   1.00
H282   H     0.09305   0.78279   0.36833   0.00000  Uiso   1.00
H283   H     0.16375   0.60906   0.12319   0.00000  Uiso   1.00
H284   H     0.20958   0.64947   0.06542   0.00000  Uiso   1.00
H285   H     0.29897   0.67979   0.09093   0.00000  Uiso   1.00
H286   H     0.00945   0.66950   0.17441   0.00000  Uiso   1.00
H287   H     0.29683   0.63051   0.23304   0.00000  Uiso   1.00
H288   H     0.17267   0.90207   0.38142   0.00000  Uiso   1.00
H289   H     0.21671   0.85898   0.45060   0.00000  Uiso   1.00
H290   H     0.00866   0.74865   0.30574   0.00000  Uiso   1.00
H291   H     0.29652   0.81449   0.44354   0.00000  Uiso   1.00
H292   H     0.33251   0.81313   0.36705   0.00000  Uiso   1.00
H293   H     0.28872   0.85562   0.29736   0.00000  Uiso   1.00
H294   H     0.13439   0.52812   0.31155   0.00000  Uiso   1.00
H295   H     0.13472   0.97223   0.18044   0.00000  Uiso   1.00
H296   H     0.12977   0.60929   0.31016   0.00000  Uiso   1.00
H297   H     0.13058   0.89111   0.17990   0.00000  Uiso   1.00
H298   H     0.08972   0.72065   0.02339   0.00000  Uiso   1.00
H299   H     0.24227   0.71763   0.47615   0.00000  Uiso   1.00
H300   H     0.09115   0.72071   0.11088   0.00000  Uiso   1.00
N301   N     0.16667   0.74999   0.12623   0.00000  Uiso   1.00
N302   N     0.16667   0.75001   0.37376   0.00000  Uiso   1.00
O303   O     0.16667   0.68453   0.28974   0.00000  Uiso   1.00
O304   O     0.16666   0.81547   0.21026   0.00000  Uiso   1.00
O305   O     0.16667   0.68453   0.21026   0.00000  Uiso   1.00
O306   O     0.16666   0.81547   0.28974   0.00000  Uiso   1.00
O307   O     0.09058   0.75000   0.28044   0.00000  Uiso   1.00
O308   O     0.24275   0.75000   0.21955   0.00000  Uiso   1.00
O309   O     0.09058   0.75000   0.20096   0.00000  Uiso   1.00
O310   O     0.24275   0.75000   0.29903   0.00000  Uiso   1.00
Zn311  Zn    0.16667   0.75001   0.30307   0.00000  Uiso   1.00
Zn312  Zn    0.16667   0.75000   0.19693   0.00000  Uiso   1.00
C313   C     0.50165   0.66386   0.25007   0.00000  Uiso   1.00
C314   C     0.45771   0.76851   0.44179   0.00000  Uiso   1.00
C315   C     0.50026   0.75023   0.02664   0.00000  Uiso   1.00
C316   C     0.50004   0.75037   0.47338   0.00000  Uiso   1.00
C317   C     0.40031   0.75040   0.23753   0.00000  Uiso   1.00
C318   C     0.59969   0.75011   0.26248   0.00000  Uiso   1.00
C319   C     0.34531   0.75149   0.23083   0.00000  Uiso   1.00
C320   C     0.65470   0.75015   0.26927   0.00000  Uiso   1.00
C321   C     0.48623   0.54632   0.28551   0.00000  Uiso   1.00
C322   C     0.48654   0.95384   0.21146   0.00000  Uiso   1.00
C323   C     0.48363   0.59225   0.28460   0.00000  Uiso   1.00
C324   C     0.50180   0.83612   0.25039   0.00000  Uiso   1.00
C325   C     0.48430   0.90793   0.21123   0.00000  Uiso   1.00
C326   C     0.50624   0.61589   0.25028   0.00000  Uiso   1.00
C327   C     0.50693   0.88403   0.25157   0.00000  Uiso   1.00
C328   C     0.53292   0.59329   0.21702   0.00000  Uiso   1.00
C329   C     0.53349   0.90630   0.29238   0.00000  Uiso   1.00
C330   C     0.53507   0.54700   0.21816   0.00000  Uiso   1.00
C331   C     0.53503   0.95266   0.29231   0.00000  Uiso   1.00
C332   C     0.51152   0.52391   0.25217   0.00000  Uiso   1.00
C333   C     0.51147   0.97599   0.25197   0.00000  Uiso   1.00
C334   C     0.56042   0.61696   0.18218   0.00000  Uiso   1.00
C335   C     0.45701   0.73385   0.04636   0.00000  Uiso   1.00
C336   C     0.53612   0.62220   0.13465   0.00000  Uiso   1.00
C337   C     0.56195   0.64503   0.10192   0.00000  Uiso   1.00
C338   C     0.61232   0.66219   0.11631   0.00000  Uiso   1.00
C339   C     0.63692   0.65659   0.16346   0.00000  Uiso   1.00
C340   C     0.61094   0.63435   0.19649   0.00000  Uiso   1.00
C341   C     0.56106   0.88211   0.33453   0.00000  Uiso   1.00
C342   C     0.54112   0.88304   0.37809   0.00000  Uiso   1.00
C343   C     0.56588   0.85862   0.41724   0.00000  Uiso   1.00
C344   C     0.61085   0.83349   0.41325   0.00000  Uiso   1.00
C345   C     0.63112   0.83269   0.37010   0.00000  Uiso   1.00
C346   C     0.54233   0.73223   0.45339   0.00000  Uiso   1.00
C347   C     0.60634   0.85686   0.33078   0.00000  Uiso   1.00
C348   C     0.45779   0.73380   0.09622   0.00000  Uiso   1.00
C349   C     0.54142   0.73218   0.40352   0.00000  Uiso   1.00
C350   C     0.54241   0.76616   0.10808   0.00000  Uiso   1.00
C351   C     0.45872   0.76823   0.39218   0.00000  Uiso   1.00
C352   C     0.54356   0.76634   0.05848   0.00000  Uiso   1.00
F353   F     0.56072   0.52441   0.18683   0.00000  Uiso   1.00
F354   F     0.56050   0.97506   0.33080   0.00000  Uiso   1.00
F355   F     0.58617   0.78324   0.04178   0.00000  Uiso   1.00
F356   F     0.41621   0.78741   0.45877   0.00000  Uiso   1.00
H357   H     0.65800   0.75312   0.19437   0.00000  Uiso   1.00
H358   H     0.57403   0.71787   0.38863   0.00000  Uiso   1.00
H359   H     0.57561   0.77914   0.13208   0.00000  Uiso   1.00
H360   H     0.42638   0.78279   0.36833   0.00000  Uiso   1.00
H361   H     0.49708   0.60906   0.12319   0.00000  Uiso   1.00
H362   H     0.54291   0.64947   0.06542   0.00000  Uiso   1.00
H363   H     0.63230   0.67979   0.09093   0.00000  Uiso   1.00
H364   H     0.34279   0.66950   0.17441   0.00000  Uiso   1.00
H365   H     0.63016   0.63051   0.23304   0.00000  Uiso   1.00
H366   H     0.50601   0.90207   0.38142   0.00000  Uiso   1.00
H367   H     0.55005   0.85898   0.45060   0.00000  Uiso   1.00
H368   H     0.34199   0.74865   0.30574   0.00000  Uiso   1.00
H369   H     0.62985   0.81449   0.44354   0.00000  Uiso   1.00
H370   H     0.66585   0.81313   0.36705   0.00000  Uiso   1.00
H371   H     0.62206   0.85562   0.29736   0.00000  Uiso   1.00
H372   H     0.46772   0.52812   0.31155   0.00000  Uiso   1.00
H373   H     0.46806   0.97223   0.18044   0.00000  Uiso   1.00
H374   H     0.46310   0.60929   0.31016   0.00000  Uiso   1.00
H375   H     0.46391   0.89111   0.17990   0.00000  Uiso   1.00
H376   H     0.42305   0.72065   0.02339   0.00000  Uiso   1.00
H377   H     0.57560   0.71763   0.47615   0.00000  Uiso   1.00
H378   H     0.42448   0.72071   0.11088   0.00000  Uiso   1.00
N379   N     0.50000   0.74999   0.12623   0.00000  Uiso   1.00
N380   N     0.50000   0.75001   0.37376   0.00000  Uiso   1.00
O381   O     0.50000   0.68453   0.28974   0.00000  Uiso   1.00
O382   O     0.50000   0.81547   0.21026   0.00000  Uiso   1.00
O383   O     0.50000   0.68453   0.21026   0.00000  Uiso   1.00
O384   O     0.50000   0.81547   0.28974   0.00000  Uiso   1.00
O385   O     0.42392   0.75000   0.28044   0.00000  Uiso   1.00
O386   O     0.57608   0.75000   0.21955   0.00000  Uiso   1.00
O387   O     0.42392   0.75000   0.20096   0.00000  Uiso   1.00
O388   O     0.57608   0.75000   0.29903   0.00000  Uiso   1.00
Zn389  Zn    0.50000   0.75001   0.30307   0.00000  Uiso   1.00
Zn390  Zn    0.50000   0.75000   0.19693   0.00000  Uiso   1.00
C391   C     0.83499   0.66386   0.25007   0.00000  Uiso   1.00
C392   C     0.79104   0.76851   0.44179   0.00000  Uiso   1.00
C393   C     0.83359   0.75023   0.02664   0.00000  Uiso   1.00
C394   C     0.83337   0.75037   0.47338   0.00000  Uiso   1.00
C395   C     0.73364   0.75040   0.23753   0.00000  Uiso   1.00
C396   C     0.93302   0.75011   0.26248   0.00000  Uiso   1.00
C397   C     0.67864   0.75149   0.23083   0.00000  Uiso   1.00
C398   C     0.98803   0.75015   0.26927   0.00000  Uiso   1.00
C399   C     0.81956   0.54632   0.28551   0.00000  Uiso   1.00
C400   C     0.81987   0.95384   0.21146   0.00000  Uiso   1.00
C401   C     0.81696   0.59225   0.28460   0.00000  Uiso   1.00
C402   C     0.83514   0.83612   0.25039   0.00000  Uiso   1.00
C403   C     0.81763   0.90793   0.21123   0.00000  Uiso   1.00
C404   C     0.83957   0.61589   0.25028   0.00000  Uiso   1.00
C405   C     0.84026   0.88403   0.25157   0.00000  Uiso   1.00
C406   C     0.86626   0.59329   0.21702   0.00000  Uiso   1.00
C407   C     0.86682   0.90630   0.29238   0.00000  Uiso   1.00
C408   C     0.86840   0.54700   0.21816   0.00000  Uiso   1.00
C409   C     0.86836   0.95266   0.29231   0.00000  Uiso   1.00
C410   C     0.84485   0.52391   0.25217   0.00000  Uiso   1.00
C411   C     0.84480   0.97599   0.25197   0.00000  Uiso   1.00
C412   C     0.89376   0.61696   0.18218   0.00000  Uiso   1.00
C413   C     0.79035   0.73385   0.04636   0.00000  Uiso   1.00
C414   C     0.86946   0.62220   0.13465   0.00000  Uiso   1.00
C415   C     0.89528   0.64503   0.10192   0.00000  Uiso   1.00
C416   C     0.94565   0.66219   0.11631   0.00000  Uiso   1.00
C417   C     0.97025   0.65659   0.16346   0.00000  Uiso   1.00
C418   C     0.94427   0.63435   0.19649   0.00000  Uiso   1.00
C419   C     0.89440   0.88211   0.33453   0.00000  Uiso   1.00
C420   C     0.87445   0.88304   0.37809   0.00000  Uiso   1.00
C421   C     0.89921   0.85862   0.41724   0.00000  Uiso   1.00
C422   C     0.94418   0.83349   0.41325   0.00000  Uiso   1.00
C423   C     0.96446   0.83269   0.37010   0.00000  Uiso   1.00
C424   C     0.87566   0.73223   0.45339   0.00000  Uiso   1.00
C425   C     0.93967   0.85686   0.33078   0.00000  Uiso   1.00
C426   C     0.79112   0.73380   0.09622   0.00000  Uiso   1.00
C427   C     0.87475   0.73218   0.40352   0.00000  Uiso   1.00
C428   C     0.87574   0.76616   0.10808   0.00000  Uiso   1.00
C429   C     0.79205   0.76823   0.39218   0.00000  Uiso   1.00
C430   C     0.87689   0.76634   0.05848   0.00000  Uiso   1.00
F431   F     0.89405   0.52441   0.18683   0.00000  Uiso   1.00
F432   F     0.89384   0.97506   0.33080   0.00000  Uiso   1.00
F433   F     0.91951   0.78324   0.04178   0.00000  Uiso   1.00
F434   F     0.74954   0.78741   0.45877   0.00000  Uiso   1.00
H435   H     0.99133   0.75312   0.19437   0.00000  Uiso   1.00
H436   H     0.90737   0.71787   0.38863   0.00000  Uiso   1.00
H437   H     0.90894   0.77914   0.13208   0.00000  Uiso   1.00
H438   H     0.75971   0.78279   0.36833   0.00000  Uiso   1.00
H439   H     0.83042   0.60906   0.12319   0.00000  Uiso   1.00
H440   H     0.87625   0.64947   0.06542   0.00000  Uiso   1.00
H441   H     0.96563   0.67979   0.09093   0.00000  Uiso   1.00
H442   H     0.67612   0.66950   0.17441   0.00000  Uiso   1.00
H443   H     0.96350   0.63051   0.23304   0.00000  Uiso   1.00
H444   H     0.83934   0.90207   0.38142   0.00000  Uiso   1.00
H445   H     0.88338   0.85898   0.45060   0.00000  Uiso   1.00
H446   H     0.67533   0.74865   0.30574   0.00000  Uiso   1.00
H447   H     0.96318   0.81449   0.44354   0.00000  Uiso   1.00
H448   H     0.99918   0.81313   0.36705   0.00000  Uiso   1.00
H449   H     0.95539   0.85562   0.29736   0.00000  Uiso   1.00
H450   H     0.80105   0.52812   0.31155   0.00000  Uiso   1.00
H451   H     0.80139   0.97223   0.18044   0.00000  Uiso   1.00
H452   H     0.79644   0.60929   0.31016   0.00000  Uiso   1.00
H453   H     0.79724   0.89111   0.17990   0.00000  Uiso   1.00
H454   H     0.75639   0.72065   0.02339   0.00000  Uiso   1.00
H455   H     0.90894   0.71763   0.47615   0.00000  Uiso   1.00
H456   H     0.75781   0.72071   0.11088   0.00000  Uiso   1.00
N457   N     0.83333   0.74999   0.12623   0.00000  Uiso   1.00
N458   N     0.83333   0.75001   0.37376   0.00000  Uiso   1.00
O459   O     0.83334   0.68453   0.28974   0.00000  Uiso   1.00
O460   O     0.83333   0.81547   0.21026   0.00000  Uiso   1.00
O461   O     0.83334   0.68453   0.21026   0.00000  Uiso   1.00
O462   O     0.83333   0.81547   0.28974   0.00000  Uiso   1.00
O463   O     0.75725   0.75000   0.28044   0.00000  Uiso   1.00
O464   O     0.90942   0.75000   0.21955   0.00000  Uiso   1.00
O465   O     0.75725   0.75000   0.20096   0.00000  Uiso   1.00
O466   O     0.90942   0.75000   0.29903   0.00000  Uiso   1.00
Zn467  Zn    0.83333   0.75001   0.30307   0.00000  Uiso   1.00
Zn468  Zn    0.83333   0.75000   0.19693   0.00000  Uiso   1.00
C469   C     0.16832   0.16386   0.75007   0.00000  Uiso   1.00
C470   C     0.12437   0.26851   0.94179   0.00000  Uiso   1.00
C471   C     0.16693   0.25023   0.52664   0.00000  Uiso   1.00
C472   C     0.16671   0.25037   0.97338   0.00000  Uiso   1.00
C473   C     0.06698   0.25040   0.73753   0.00000  Uiso   1.00
C474   C     0.26636   0.25011   0.76248   0.00000  Uiso   1.00
C475   C     0.01197   0.25149   0.73083   0.00000  Uiso   1.00
C476   C     0.32136   0.25015   0.76927   0.00000  Uiso   1.00
C477   C     0.15289   0.04632   0.78551   0.00000  Uiso   1.00
C478   C     0.15321   0.45384   0.71146   0.00000  Uiso   1.00
C479   C     0.15030   0.09225   0.78460   0.00000  Uiso   1.00
C480   C     0.16847   0.33612   0.75039   0.00000  Uiso   1.00
C481   C     0.15097   0.40793   0.71123   0.00000  Uiso   1.00
C482   C     0.17290   0.11589   0.75028   0.00000  Uiso   1.00
C483   C     0.17359   0.38403   0.75157   0.00000  Uiso   1.00
C484   C     0.19959   0.09329   0.71702   0.00000  Uiso   1.00
C485   C     0.20016   0.40630   0.79238   0.00000  Uiso   1.00
C486   C     0.20173   0.04700   0.71816   0.00000  Uiso   1.00
C487   C     0.20170   0.45266   0.79231   0.00000  Uiso   1.00
C488   C     0.17819   0.02391   0.75217   0.00000  Uiso   1.00
C489   C     0.17814   0.47599   0.75197   0.00000  Uiso   1.00
C490   C     0.22709   0.11696   0.68218   0.00000  Uiso   1.00
C491   C     0.12368   0.23385   0.54636   0.00000  Uiso   1.00
C492   C     0.20279   0.12220   0.63465   0.00000  Uiso   1.00
C493   C     0.22861   0.14503   0.60192   0.00000  Uiso   1.00
C494   C     0.27899   0.16219   0.61631   0.00000  Uiso   1.00
C495   C     0.30359   0.15659   0.66346   0.00000  Uiso   1.00
C496   C     0.27761   0.13435   0.69649   0.00000  Uiso   1.00
C497   C     0.22773   0.38211   0.83453   0.00000  Uiso   1.00
C498   C     0.20778   0.38304   0.87809   0.00000  Uiso   1.00
C499   C     0.23254   0.35862   0.91724   0.00000  Uiso   1.00
C500   C     0.27751   0.33349   0.91325   0.00000  Uiso   1.00
C501   C     0.29779   0.33269   0.87010   0.00000  Uiso   1.00
C502   C     0.20900   0.23223   0.95339   0.00000  Uiso   1.00
C503   C     0.27301   0.35686   0.83078   0.00000  Uiso   1.00
C504   C     0.12446   0.23380   0.59622   0.00000  Uiso   1.00
C505   C     0.20809   0.23218   0.90352   0.00000  Uiso   1.00
C506   C     0.20907   0.26616   0.60808   0.00000  Uiso   1.00
C507   C     0.12538   0.26823   0.89218   0.00000  Uiso   1.00
C508   C     0.21022   0.26634   0.55848   0.00000  Uiso   1.00
F509   F     0.22739   0.02441   0.68683   0.00000  Uiso   1.00
F510   F     0.22717   0.47506   0.83080   0.00000  Uiso   1.00
F511   F     0.25284   0.28324   0.54178   0.00000  Uiso   1.00
F512   F     0.08288   0.28741   0.95877   0.00000  Uiso   1.00
H513   H     0.32467   0.25312   0.69437   0.00000  Uiso   1.00
H514   H     0.24070   0.21787   0.88863   0.00000  Uiso   1.00
H515   H     0.24227   0.27914   0.63208   0.00000  Uiso   1.00
H516   H     0.09305   0.28279   0.86833   0.00000  Uiso   1.00
H517   H     0.16375   0.10906   0.62319   0.00000  Uiso   1.00
H518   H     0.20958   0.14947   0.56542   0.00000  Uiso   1.00
H519   H     0.29897   0.17979   0.59093   0.00000  Uiso   1.00
H520   H     0.00945   0.16950   0.67441   0.00000  Uiso   1.00
H521   H     0.29683   0.13051   0.73304   0.00000  Uiso   1.00
H522   H     0.17267   0.40207   0.88142   0.00000  Uiso   1.00
H523   H     0.21671   0.35898   0.95060   0.00000  Uiso   1.00
H524   H     0.00866   0.24865   0.80574   0.00000  Uiso   1.00
H525   H     0.29652   0.31449   0.94354   0.00000  Uiso   1.00
H526   H     0.33251   0.31313   0.86705   0.00000  Uiso   1.00
H527   H     0.28872   0.35562   0.79736   0.00000  Uiso   1.00
H528   H     0.13439   0.02812   0.81155   0.00000  Uiso   1.00
H529   H     0.13472   0.47223   0.68044   0.00000  Uiso   1.00
H530   H     0.12977   0.10929   0.81016   0.00000  Uiso   1.00
H531   H     0.13058   0.39111   0.67990   0.00000  Uiso   1.00
H532   H     0.08972   0.22065   0.52339   0.00000  Uiso   1.00
H533   H     0.24227   0.21763   0.97615   0.00000  Uiso   1.00
H534   H     0.09115   0.22071   0.61088   0.00000  Uiso   1.00
N535   N     0.16667   0.24999   0.62623   0.00000  Uiso   1.00
N536   N     0.16667   0.25001   0.87376   0.00000  Uiso   1.00
O537   O     0.16667   0.18453   0.78974   0.00000  Uiso   1.00
O538   O     0.16666   0.31547   0.71026   0.00000  Uiso   1.00
O539   O     0.16667   0.18453   0.71026   0.00000  Uiso   1.00
O540   O     0.16666   0.31547   0.78974   0.00000  Uiso   1.00
O541   O     0.09058   0.25000   0.78044   0.00000  Uiso   1.00
O542   O     0.24275   0.25000   0.71955   0.00000  Uiso   1.00
O543   O     0.09058   0.25000   0.70096   0.00000  Uiso   1.00
O544   O     0.24275   0.25000   0.79903   0.00000  Uiso   1.00
Zn545  Zn    0.16667   0.25001   0.80307   0.00000  Uiso   1.00
Zn546  Zn    0.16667   0.25000   0.69693   0.00000  Uiso   1.00
C547   C     0.50165   0.16386   0.75007   0.00000  Uiso   1.00
C548   C     0.45771   0.26851   0.94179   0.00000  Uiso   1.00
C549   C     0.50026   0.25023   0.52664   0.00000  Uiso   1.00
C550   C     0.50004   0.25037   0.97338   0.00000  Uiso   1.00
C551   C     0.40031   0.25040   0.73753   0.00000  Uiso   1.00
C552   C     0.59969   0.25011   0.76248   0.00000  Uiso   1.00
C553   C     0.34531   0.25149   0.73083   0.00000  Uiso   1.00
C554   C     0.65470   0.25015   0.76927   0.00000  Uiso   1.00
C555   C     0.48623   0.04632   0.78551   0.00000  Uiso   1.00
C556   C     0.48654   0.45384   0.71146   0.00000  Uiso   1.00
C557   C     0.48363   0.09225   0.78460   0.00000  Uiso   1.00
C558   C     0.50180   0.33612   0.75039   0.00000  Uiso   1.00
C559   C     0.48430   0.40793   0.71123   0.00000  Uiso   1.00
C560   C     0.50624   0.11589   0.75028   0.00000  Uiso   1.00
C561   C     0.50693   0.38403   0.75157   0.00000  Uiso   1.00
C562   C     0.53292   0.09329   0.71702   0.00000  Uiso   1.00
C563   C     0.53349   0.40630   0.79238   0.00000  Uiso   1.00
C564   C     0.53507   0.04700   0.71816   0.00000  Uiso   1.00
C565   C     0.53503   0.45266   0.79231   0.00000  Uiso   1.00
C566   C     0.51152   0.02391   0.75217   0.00000  Uiso   1.00
C567   C     0.51147   0.47599   0.75197   0.00000  Uiso   1.00
C568   C     0.56042   0.11696   0.68218   0.00000  Uiso   1.00
C569   C     0.45701   0.23385   0.54636   0.00000  Uiso   1.00
C570   C     0.53612   0.12220   0.63465   0.00000  Uiso   1.00
C571   C     0.56195   0.14503   0.60192   0.00000  Uiso   1.00
C572   C     0.61232   0.16219   0.61631   0.00000  Uiso   1.00
C573   C     0.63692   0.15659   0.66346   0.00000  Uiso   1.00
C574   C     0.61094   0.13435   0.69649   0.00000  Uiso   1.00
C575   C     0.56106   0.38211   0.83453   0.00000  Uiso   1.00
C576   C     0.54112   0.38304   0.87809   0.00000  Uiso   1.00
C577   C     0.56588   0.35862   0.91724   0.00000  Uiso   1.00
C578   C     0.61085   0.33349   0.91325   0.00000  Uiso   1.00
C579   C     0.63112   0.33269   0.87010   0.00000  Uiso   1.00
C580   C     0.54233   0.23223   0.95339   0.00000  Uiso   1.00
C581   C     0.60634   0.35686   0.83078   0.00000  Uiso   1.00
C582   C     0.45779   0.23380   0.59622   0.00000  Uiso   1.00
C583   C     0.54142   0.23218   0.90352   0.00000  Uiso   1.00
C584   C     0.54241   0.26616   0.60808   0.00000  Uiso   1.00
C585   C     0.45872   0.26823   0.89218   0.00000  Uiso   1.00
C586   C     0.54356   0.26634   0.55848   0.00000  Uiso   1.00
F587   F     0.56072   0.02441   0.68683   0.00000  Uiso   1.00
F588   F     0.56050   0.47506   0.83080   0.00000  Uiso   1.00
F589   F     0.58617   0.28324   0.54178   0.00000  Uiso   1.00
F590   F     0.41621   0.28741   0.95877   0.00000  Uiso   1.00
H591   H     0.65800   0.25312   0.69437   0.00000  Uiso   1.00
H592   H     0.57403   0.21787   0.88863   0.00000  Uiso   1.00
H593   H     0.57561   0.27914   0.63208   0.00000  Uiso   1.00
H594   H     0.42638   0.28279   0.86833   0.00000  Uiso   1.00
H595   H     0.49708   0.10906   0.62319   0.00000  Uiso   1.00
H596   H     0.54291   0.14947   0.56542   0.00000  Uiso   1.00
H597   H     0.63230   0.17979   0.59093   0.00000  Uiso   1.00
H598   H     0.34279   0.16950   0.67441   0.00000  Uiso   1.00
H599   H     0.63016   0.13051   0.73304   0.00000  Uiso   1.00
H600   H     0.50601   0.40207   0.88142   0.00000  Uiso   1.00
H601   H     0.55005   0.35898   0.95060   0.00000  Uiso   1.00
H602   H     0.34199   0.24865   0.80574   0.00000  Uiso   1.00
H603   H     0.62985   0.31449   0.94354   0.00000  Uiso   1.00
H604   H     0.66585   0.31313   0.86705   0.00000  Uiso   1.00
H605   H     0.62206   0.35562   0.79736   0.00000  Uiso   1.00
H606   H     0.46772   0.02812   0.81155   0.00000  Uiso   1.00
H607   H     0.46806   0.47223   0.68044   0.00000  Uiso   1.00
H608   H     0.46310   0.10929   0.81016   0.00000  Uiso   1.00
H609   H     0.46391   0.39111   0.67990   0.00000  Uiso   1.00
H610   H     0.42305   0.22065   0.52339   0.00000  Uiso   1.00
H611   H     0.57560   0.21763   0.97615   0.00000  Uiso   1.00
H612   H     0.42448   0.22071   0.61088   0.00000  Uiso   1.00
N613   N     0.50000   0.24999   0.62623   0.00000  Uiso   1.00
N614   N     0.50000   0.25001   0.87376   0.00000  Uiso   1.00
O615   O     0.50000   0.18453   0.78974   0.00000  Uiso   1.00
O616   O     0.50000   0.31547   0.71026   0.00000  Uiso   1.00
O617   O     0.50000   0.18453   0.71026   0.00000  Uiso   1.00
O618   O     0.50000   0.31547   0.78974   0.00000  Uiso   1.00
O619   O     0.42392   0.25000   0.78044   0.00000  Uiso   1.00
O620   O     0.57608   0.25000   0.71955   0.00000  Uiso   1.00
O621   O     0.42392   0.25000   0.70096   0.00000  Uiso   1.00
O622   O     0.57608   0.25000   0.79903   0.00000  Uiso   1.00
Zn623  Zn    0.50000   0.25001   0.80307   0.00000  Uiso   1.00
Zn624  Zn    0.50000   0.25000   0.69693   0.00000  Uiso   1.00
C625   C     0.83499   0.16386   0.75007   0.00000  Uiso   1.00
C626   C     0.79104   0.26851   0.94179   0.00000  Uiso   1.00
C627   C     0.83359   0.25023   0.52664   0.00000  Uiso   1.00
C628   C     0.83337   0.25037   0.97338   0.00000  Uiso   1.00
C629   C     0.73364   0.25040   0.73753   0.00000  Uiso   1.00
C630   C     0.93302   0.25011   0.76248   0.00000  Uiso   1.00
C631   C     0.67864   0.25149   0.73083   0.00000  Uiso   1.00
C632   C     0.98803   0.25015   0.76927   0.00000  Uiso   1.00
C633   C     0.81956   0.04632   0.78551   0.00000  Uiso   1.00
C634   C     0.81987   0.45384   0.71146   0.00000  Uiso   1.00
C635   C     0.81696   0.09225   0.78460   0.00000  Uiso   1.00
C636   C     0.83514   0.33612   0.75039   0.00000  Uiso   1.00
C637   C     0.81763   0.40793   0.71123   0.00000  Uiso   1.00
C638   C     0.83957   0.11589   0.75028   0.00000  Uiso   1.00
C639   C     0.84026   0.38403   0.75157   0.00000  Uiso   1.00
C640   C     0.86626   0.09329   0.71702   0.00000  Uiso   1.00
C641   C     0.86682   0.40630   0.79238   0.00000  Uiso   1.00
C642   C     0.86840   0.04700   0.71816   0.00000  Uiso   1.00
C643   C     0.86836   0.45266   0.79231   0.00000  Uiso   1.00
C644   C     0.84485   0.02391   0.75217   0.00000  Uiso   1.00
C645   C     0.84480   0.47599   0.75197   0.00000  Uiso   1.00
C646   C     0.89376   0.11696   0.68218   0.00000  Uiso   1.00
C647   C     0.79035   0.23385   0.54636   0.00000  Uiso   1.00
C648   C     0.86946   0.12220   0.63465   0.00000  Uiso   1.00
C649   C     0.89528   0.14503   0.60192   0.00000  Uiso   1.00
C650   C     0.94565   0.16219   0.61631   0.00000  Uiso   1.00
C651   C     0.97025   0.15659   0.66346   0.00000  Uiso   1.00
C652   C     0.94427   0.13435   0.69649   0.00000  Uiso   1.00
C653   C     0.89440   0.38211   0.83453   0.00000  Uiso   1.00
C654   C     0.87445   0.38304   0.87809   0.00000  Uiso   1.00
C655   C     0.89921   0.35862   0.91724   0.00000  Uiso   1.00
C656   C     0.94418   0.33349   0.91325   0.00000  Uiso   1.00
C657   C     0.96446   0.33269   0.87010   0.00000  Uiso   1.00
C658   C     0.87566   0.23223   0.95339   0.00000  Uiso   1.00
C659   C     0.93967   0.35686   0.83078   0.00000  Uiso   1.00
C660   C     0.79112   0.23380   0.59622   0.00000  Uiso   1.00
C661   C     0.87475   0.23218   0.90352   0.00000  Uiso   1.00
C662   C     0.87574   0.26616   0.60808   0.00000  Uiso   1.00
C663   C     0.79205   0.26823   0.89218   0.00000  Uiso   1.00
C664   C     0.87689   0.26634   0.55848   0.00000  Uiso   1.00
F665   F     0.89405   0.02441   0.68683   0.00000  Uiso   1.00
F666   F     0.89384   0.47506   0.83080   0.00000  Uiso   1.00
F667   F     0.91951   0.28324   0.54178   0.00000  Uiso   1.00
F668   F     0.74954   0.28741   0.95877   0.00000  Uiso   1.00
H669   H     0.99133   0.25312   0.69437   0.00000  Uiso   1.00
H670   H     0.90737   0.21787   0.88863   0.00000  Uiso   1.00
H671   H     0.90894   0.27914   0.63208   0.00000  Uiso   1.00
H672   H     0.75971   0.28279   0.86833   0.00000  Uiso   1.00
H673   H     0.83042   0.10906   0.62319   0.00000  Uiso   1.00
H674   H     0.87625   0.14947   0.56542   0.00000  Uiso   1.00
H675   H     0.96563   0.17979   0.59093   0.00000  Uiso   1.00
H676   H     0.67612   0.16950   0.67441   0.00000  Uiso   1.00
H677   H     0.96350   0.13051   0.73304   0.00000  Uiso   1.00
H678   H     0.83934   0.40207   0.88142   0.00000  Uiso   1.00
H679   H     0.88338   0.35898   0.95060   0.00000  Uiso   1.00
H680   H     0.67533   0.24865   0.80574   0.00000  Uiso   1.00
H681   H     0.96318   0.31449   0.94354   0.00000  Uiso   1.00
H682   H     0.99918   0.31313   0.86705   0.00000  Uiso   1.00
H683   H     0.95539   0.35562   0.79736   0.00000  Uiso   1.00
H684   H     0.80105   0.02812   0.81155   0.00000  Uiso   1.00
H685   H     0.80139   0.47223   0.68044   0.00000  Uiso   1.00
H686   H     0.79644   0.10929   0.81016   0.00000  Uiso   1.00
H687   H     0.79724   0.39111   0.67990   0.00000  Uiso   1.00
H688   H     0.75639   0.22065   0.52339   0.00000  Uiso   1.00
H689   H     0.90894   0.21763   0.97615   0.00000  Uiso   1.00
H690   H     0.75781   0.22071   0.61088   0.00000  Uiso   1.00
N691   N     0.83333   0.24999   0.62623   0.00000  Uiso   1.00
N692   N     0.83333   0.25001   0.87376   0.00000  Uiso   1.00
O693   O     0.83334   0.18453   0.78974   0.00000  Uiso   1.00
O694   O     0.83333   0.31547   0.71026   0.00000  Uiso   1.00
O695   O     0.83334   0.18453   0.71026   0.00000  Uiso   1.00
O696   O     0.83333   0.31547   0.78974   0.00000  Uiso   1.00
O697   O     0.75725   0.25000   0.78044   0.00000  Uiso   1.00
O698   O     0.90942   0.25000   0.71955   0.00000  Uiso   1.00
O699   O     0.75725   0.25000   0.70096   0.00000  Uiso   1.00
O700   O     0.90942   0.25000   0.79903   0.00000  Uiso   1.00
Zn701  Zn    0.83333   0.25001   0.80307   0.00000  Uiso   1.00
Zn702  Zn    0.83333   0.25000   0.69693   0.00000  Uiso   1.00
C703   C     0.16832   0.66386   0.75007   0.00000  Uiso   1.00
C704   C     0.12437   0.76851   0.94179   0.00000  Uiso   1.00
C705   C     0.16693   0.75023   0.52664   0.00000  Uiso   1.00
C706   C     0.16671   0.75037   0.97338   0.00000  Uiso   1.00
C707   C     0.06698   0.75040   0.73753   0.00000  Uiso   1.00
C708   C     0.26636   0.75011   0.76248   0.00000  Uiso   1.00
C709   C     0.01197   0.75149   0.73083   0.00000  Uiso   1.00
C710   C     0.32136   0.75015   0.76927   0.00000  Uiso   1.00
C711   C     0.15289   0.54632   0.78551   0.00000  Uiso   1.00
C712   C     0.15321   0.95384   0.71146   0.00000  Uiso   1.00
C713   C     0.15030   0.59225   0.78460   0.00000  Uiso   1.00
C714   C     0.16847   0.83612   0.75039   0.00000  Uiso   1.00
C715   C     0.15097   0.90793   0.71123   0.00000  Uiso   1.00
C716   C     0.17290   0.61589   0.75028   0.00000  Uiso   1.00
C717   C     0.17359   0.88403   0.75157   0.00000  Uiso   1.00
C718   C     0.19959   0.59329   0.71702   0.00000  Uiso   1.00
C719   C     0.20016   0.90630   0.79238   0.00000  Uiso   1.00
C720   C     0.20173   0.54700   0.71816   0.00000  Uiso   1.00
C721   C     0.20170   0.95266   0.79231   0.00000  Uiso   1.00
C722   C     0.17819   0.52391   0.75217   0.00000  Uiso   1.00
C723   C     0.17814   0.97599   0.75197   0.00000  Uiso   1.00
C724   C     0.22709   0.61696   0.68218   0.00000  Uiso   1.00
C725   C     0.12368   0.73385   0.54636   0.00000  Uiso   1.00
C726   C     0.20279   0.62220   0.63465   0.00000  Uiso   1.00
C727   C     0.22861   0.64503   0.60192   0.00000  Uiso   1.00
C728   C     0.27899   0.66219   0.61631   0.00000  Uiso   1.00
C729   C     0.30359   0.65659   0.66346   0.00000  Uiso   1.00
C730   C     0.27761   0.63435   0.69649   0.00000  Uiso   1.00
C731   C     0.22773   0.88211   0.83453   0.00000  Uiso   1.00
C732   C     0.20778   0.88304   0.87809   0.00000  Uiso   1.00
C733   C     0.23254   0.85862   0.91724   0.00000  Uiso   1.00
C734   C     0.27751   0.83349   0.91325   0.00000  Uiso   1.00
C735   C     0.29779   0.83269   0.87010   0.00000  Uiso   1.00
C736   C     0.20900   0.73223   0.95339   0.00000  Uiso   1.00
C737   C     0.27301   0.85686   0.83078   0.00000  Uiso   1.00
C738   C     0.12446   0.73380   0.59622   0.00000  Uiso   1.00
C739   C     0.20809   0.73218   0.90352   0.00000  Uiso   1.00
C740   C     0.20907   0.76616   0.60808   0.00000  Uiso   1.00
C741   C     0.12538   0.76823   0.89218   0.00000  Uiso   1.00
C742   C     0.21022   0.76634   0.55848   0.00000  Uiso   1.00
F743   F     0.22739   0.52441   0.68683   0.00000  Uiso   1.00
F744   F     0.22717   0.97506   0.83080   0.00000  Uiso   1.00
F745   F     0.25284   0.78324   0.54178   0.00000  Uiso   1.00
F746   F     0.08288   0.78741   0.95877   0.00000  Uiso   1.00
H747   H     0.32467   0.75312   0.69437   0.00000  Uiso   1.00
H748   H     0.24070   0.71787   0.88863   0.00000  Uiso   1.00
H749   H     0.24227   0.77914   0.63208   0.00000  Uiso   1.00
H750   H     0.09305   0.78279   0.86833   0.00000  Uiso   1.00
H751   H     0.16375   0.60906   0.62319   0.00000  Uiso   1.00
H752   H     0.20958   0.64947   0.56542   0.00000  Uiso   1.00
H753   H     0.29897   0.67979   0.59093   0.00000  Uiso   1.00
H754   H     0.00945   0.66950   0.67441   0.00000  Uiso   1.00
H755   H     0.29683   0.63051   0.73304   0.00000  Uiso   1.00
H756   H     0.17267   0.90207   0.88142   0.00000  Uiso   1.00
H757   H     0.21671   0.85898   0.95060   0.00000  Uiso   1.00
H758   H     0.00866   0.74865   0.80574   0.00000  Uiso   1.00
H759   H     0.29652   0.81449   0.94354   0.00000  Uiso   1.00
H760   H     0.33251   0.81313   0.86705   0.00000  Uiso   1.00
H761   H     0.28872   0.85562   0.79736   0.00000  Uiso   1.00
H762   H     0.13439   0.52812   0.81155   0.00000  Uiso   1.00
H763   H     0.13472   0.97223   0.68044   0.00000  Uiso   1.00
H764   H     0.12977   0.60929   0.81016   0.00000  Uiso   1.00
H765   H     0.13058   0.89111   0.67990   0.00000  Uiso   1.00
H766   H     0.08972   0.72065   0.52339   0.00000  Uiso   1.00
H767   H     0.24227   0.71763   0.97615   0.00000  Uiso   1.00
H768   H     0.09115   0.72071   0.61088   0.00000  Uiso   1.00
N769   N     0.16667   0.74999   0.62623   0.00000  Uiso   1.00
N770   N     0.16667   0.75001   0.87376   0.00000  Uiso   1.00
O771   O     0.16667   0.68453   0.78974   0.00000  Uiso   1.00
O772   O     0.16666   0.81547   0.71026   0.00000  Uiso   1.00
O773   O     0.16667   0.68453   0.71026   0.00000  Uiso   1.00
O774   O     0.16666   0.81547   0.78974   0.00000  Uiso   1.00
O775   O     0.09058   0.75000   0.78044   0.00000  Uiso   1.00
O776   O     0.24275   0.75000   0.71955   0.00000  Uiso   1.00
O777   O     0.09058   0.75000   0.70096   0.00000  Uiso   1.00
O778   O     0.24275   0.75000   0.79903   0.00000  Uiso   1.00
Zn779  Zn    0.16667   0.75001   0.80307   0.00000  Uiso   1.00
Zn780  Zn    0.16667   0.75000   0.69693   0.00000  Uiso   1.00
C781   C     0.50165   0.66386   0.75007   0.00000  Uiso   1.00
C782   C     0.45771   0.76851   0.94179   0.00000  Uiso   1.00
C783   C     0.50026   0.75023   0.52664   0.00000  Uiso   1.00
C784   C     0.50004   0.75037   0.97338   0.00000  Uiso   1.00
C785   C     0.40031   0.75040   0.73753   0.00000  Uiso   1.00
C786   C     0.59969   0.75011   0.76248   0.00000  Uiso   1.00
C787   C     0.34531   0.75149   0.73083   0.00000  Uiso   1.00
C788   C     0.65470   0.75015   0.76927   0.00000  Uiso   1.00
C789   C     0.48623   0.54632   0.78551   0.00000  Uiso   1.00
C790   C     0.48654   0.95384   0.71146   0.00000  Uiso   1.00
C791   C     0.48363   0.59225   0.78460   0.00000  Uiso   1.00
C792   C     0.50180   0.83612   0.75039   0.00000  Uiso   1.00
C793   C     0.48430   0.90793   0.71123   0.00000  Uiso   1.00
C794   C     0.50624   0.61589   0.75028   0.00000  Uiso   1.00
C795   C     0.50693   0.88403   0.75157   0.00000  Uiso   1.00
C796   C     0.53292   0.59329   0.71702   0.00000  Uiso   1.00
C797   C     0.53349   0.90630   0.79238   0.00000  Uiso   1.00
C798   C     0.53507   0.54700   0.71816   0.00000  Uiso   1.00
C799   C     0.53503   0.95266   0.79231   0.00000  Uiso   1.00
C800   C     0.51152   0.52391   0.75217   0.00000  Uiso   1.00
C801   C     0.51147   0.97599   0.75197   0.00000  Uiso   1.00
C802   C     0.56042   0.61696   0.68218   0.00000  Uiso   1.00
C803   C     0.45701   0.73385   0.54636   0.00000  Uiso   1.00
C804   C     0.53612   0.62220   0.63465   0.00000  Uiso   1.00
C805   C     0.56195   0.64503   0.60192   0.00000  Uiso   1.00
C806   C     0.61232   0.66219   0.61631   0.00000  Uiso   1.00
C807   C     0.63692   0.65659   0.66346   0.00000  Uiso   1.00
C808   C     0.61094   0.63435   0.69649   0.00000  Uiso   1.00
C809   C     0.56106   0.88211   0.83453   0.00000  Uiso   1.00
C810   C     0.54112   0.88304   0.87809   0.00000  Uiso   1.00
C811   C     0.56588   0.85862   0.91724   0.00000  Uiso   1.00
C812   C     0.61085   0.83349   0.91325   0.00000  Uiso   1.00
C813   C     0.63112   0.83269   0.87010   0.00000  Uiso   1.00
C814   C     0.54233   0.73223   0.95339   0.00000  Uiso   1.00
C815   C     0.60634   0.85686   0.83078   0.00000  Uiso   1.00
C816   C     0.45779   0.73380   0.59622   0.00000  Uiso   1.00
C817   C     0.54142   0.73218   0.90352   0.00000  Uiso   1.00
C818   C     0.54241   0.76616   0.60808   0.00000  Uiso   1.00
C819   C     0.45872   0.76823   0.89218   0.00000  Uiso   1.00
C820   C     0.54356   0.76634   0.55848   0.00000  Uiso   1.00
F821   F     0.56072   0.52441   0.68683   0.00000  Uiso   1.00
F822   F     0.56050   0.97506   0.83080   0.00000  Uiso   1.00
F823   F     0.58617   0.78324   0.54178   0.00000  Uiso   1.00
F824   F     0.41621   0.78741   0.95877   0.00000  Uiso   1.00
H825   H     0.65800   0.75312   0.69437   0.00000  Uiso   1.00
H826   H     0.57403   0.71787   0.88863   0.00000  Uiso   1.00
H827   H     0.57561   0.77914   0.63208   0.00000  Uiso   1.00
H828   H     0.42638   0.78279   0.86833   0.00000  Uiso   1.00
H829   H     0.49708   0.60906   0.62319   0.00000  Uiso   1.00
H830   H     0.54291   0.64947   0.56542   0.00000  Uiso   1.00
H831   H     0.63230   0.67979   0.59093   0.00000  Uiso   1.00
H832   H     0.34279   0.66950   0.67441   0.00000  Uiso   1.00
H833   H     0.63016   0.63051   0.73304   0.00000  Uiso   1.00
H834   H     0.50601   0.90207   0.88142   0.00000  Uiso   1.00
H835   H     0.55005   0.85898   0.95060   0.00000  Uiso   1.00
H836   H     0.34199   0.74865   0.80574   0.00000  Uiso   1.00
H837   H     0.62985   0.81449   0.94354   0.00000  Uiso   1.00
H838   H     0.66585   0.81313   0.86705   0.00000  Uiso   1.00
H839   H     0.62206   0.85562   0.79736   0.00000  Uiso   1.00
H840   H     0.46772   0.52812   0.81155   0.00000  Uiso   1.00
H841   H     0.46806   0.97223   0.68044   0.00000  Uiso   1.00
H842   H     0.46310   0.60929   0.81016   0.00000  Uiso   1.00
H843   H     0.46391   0.89111   0.67990   0.00000  Uiso   1.00
H844   H     0.42305   0.72065   0.52339   0.00000  Uiso   1.00
H845   H     0.57560   0.71763   0.97615   0.00000  Uiso   1.00
H846   H     0.42448   0.72071   0.61088   0.00000  Uiso   1.00
N847   N     0.50000   0.74999   0.62623   0.00000  Uiso   1.00
N848   N     0.50000   0.75001   0.87376   0.00000  Uiso   1.00
O849   O     0.50000   0.68453   0.78974   0.00000  Uiso   1.00
O850   O     0.50000   0.81547   0.71026   0.00000  Uiso   1.00
O851   O     0.50000   0.68453   0.71026   0.00000  Uiso   1.00
O852   O     0.50000   0.81547   0.78974   0.00000  Uiso   1.00
O853   O     0.42392   0.75000   0.78044   0.00000  Uiso   1.00
O854   O     0.57608   0.75000   0.71955   0.00000  Uiso   1.00
O855   O     0.42392   0.75000   0.70096   0.00000  Uiso   1.00
O856   O     0.57608   0.75000   0.79903   0.00000  Uiso   1.00
Zn857  Zn    0.50000   0.75001   0.80307   0.00000  Uiso   1.00
Zn858  Zn    0.50000   0.75000   0.69693   0.00000  Uiso   1.00
C859   C     0.83499   0.66386   0.75007   0.00000  Uiso   1.00
C860   C     0.79104   0.76851   0.94179   0.00000  Uiso   1.00
C861   C     0.83359   0.75023   0.52664   0.00000  Uiso   1.00
C862   C     0.83337   0.75037   0.97338   0.00000  Uiso   1.00
C863   C     0.73364   0.75040   0.73753   0.00000  Uiso   1.00
C864   C     0.93302   0.75011   0.76248   0.00000  Uiso   1.00
C865   C     0.67864   0.75149   0.73083   0.00000  Uiso   1.00
C866   C     0.98803   0.75015   0.76927   0.00000  Uiso   1.00
C867   C     0.81956   0.54632   0.78551   0.00000  Uiso   1.00
C868   C     0.81987   0.95384   0.71146   0.00000  Uiso   1.00
C869   C     0.81696   0.59225   0.78460   0.00000  Uiso   1.00
C870   C     0.83514   0.83612   0.75039   0.00000  Uiso   1.00
C871   C     0.81763   0.90793   0.71123   0.00000  Uiso   1.00
C872   C     0.83957   0.61589   0.75028   0.00000  Uiso   1.00
C873   C     0.84026   0.88403   0.75157   0.00000  Uiso   1.00
C874   C     0.86626   0.59329   0.71702   0.00000  Uiso   1.00
C875   C     0.86682   0.90630   0.79238   0.00000  Uiso   1.00
C876   C     0.86840   0.54700   0.71816   0.00000  Uiso   1.00
C877   C     0.86836   0.95266   0.79231   0.00000  Uiso   1.00
C878   C     0.84485   0.52391   0.75217   0.00000  Uiso   1.00
C879   C     0.84480   0.97599   0.75197   0.00000  Uiso   1.00
C880   C     0.89376   0.61696   0.68218   0.00000  Uiso   1.00
C881   C     0.79035   0.73385   0.54636   0.00000  Uiso   1.00
C882   C     0.86946   0.62220   0.63465   0.00000  Uiso   1.00
C883   C     0.89528   0.64503   0.60192   0.00000  Uiso   1.00
C884   C     0.94565   0.66219   0.61631   0.00000  Uiso   1.00
C885   C     0.97025   0.65659   0.66346   0.00000  Uiso   1.00
C886   C     0.94427   0.63435   0.69649   0.00000  Uiso   1.00
C887   C     0.89440   0.88211   0.83453   0.00000  Uiso   1.00
C888   C     0.87445   0.88304   0.87809   0.00000  Uiso   1.00
C889   C     0.89921   0.85862   0.91724   0.00000  Uiso   1.00
C890   C     0.94418   0.83349   0.91325   0.00000  Uiso   1.00
C891   C     0.96446   0.83269   0.87010   0.00000  Uiso   1.00
C892   C     0.87566   0.73223   0.95339   0.00000  Uiso   1.00
C893   C     0.93967   0.85686   0.83078   0.00000  Uiso   1.00
C894   C     0.79112   0.73380   0.59622   0.00000  Uiso   1.00
C895   C     0.87475   0.73218   0.90352   0.00000  Uiso   1.00
C896   C     0.87574   0.76616   0.60808   0.00000  Uiso   1.00
C897   C     0.79205   0.76823   0.89218   0.00000  Uiso   1.00
C898   C     0.87689   0.76634   0.55848   0.00000  Uiso   1.00
F899   F     0.89405   0.52441   0.68683   0.00000  Uiso   1.00
F900   F     0.89384   0.97506   0.83080   0.00000  Uiso   1.00
F901   F     0.91951   0.78324   0.54178   0.00000  Uiso   1.00
F902   F     0.74954   0.78741   0.95877   0.00000  Uiso   1.00
H903   H     0.99133   0.75312   0.69437   0.00000  Uiso   1.00
H904   H     0.90737   0.71787   0.88863   0.00000  Uiso   1.00
H905   H     0.90894   0.77914   0.63208   0.00000  Uiso   1.00
H906   H     0.75971   0.78279   0.86833   0.00000  Uiso   1.00
H907   H     0.83042   0.60906   0.62319   0.00000  Uiso   1.00
H908   H     0.87625   0.64947   0.56542   0.00000  Uiso   1.00
H909   H     0.96563   0.67979   0.59093   0.00000  Uiso   1.00
H910   H     0.67612   0.66950   0.67441   0.00000  Uiso   1.00
H911   H     0.96350   0.63051   0.73304   0.00000  Uiso   1.00
H912   H     0.83934   0.90207   0.88142   0.00000  Uiso   1.00
H913   H     0.88338   0.85898   0.95060   0.00000  Uiso   1.00
H914   H     0.67533   0.74865   0.80574   0.00000  Uiso   1.00
H915   H     0.96318   0.81449   0.94354   0.00000  Uiso   1.00
H916   H     0.99918   0.81313   0.86705   0.00000  Uiso   1.00
H917   H     0.95539   0.85562   0.79736   0.00000  Uiso   1.00
H918   H     0.80105   0.52812   0.81155   0.00000  Uiso   1.00
H919   H     0.80139   0.97223   0.68044   0.00000  Uiso   1.00
H920   H     0.79644   0.60929   0.81016   0.00000  Uiso   1.00
H921   H     0.79724   0.89111   0.67990   0.00000  Uiso   1.00
H922   H     0.75639   0.72065   0.52339   0.00000  Uiso   1.00
H923   H     0.90894   0.71763   0.97615   0.00000  Uiso   1.00
H924   H     0.75781   0.72071   0.61088   0.00000  Uiso   1.00
N925   N     0.83333   0.74999   0.62623   0.00000  Uiso   1.00
N926   N     0.83333   0.75001   0.87376   0.00000  Uiso   1.00
O927   O     0.83334   0.68453   0.78974   0.00000  Uiso   1.00
O928   O     0.83333   0.81547   0.71026   0.00000  Uiso   1.00
O929   O     0.83334   0.68453   0.71026   0.00000  Uiso   1.00
O930   O     0.83333   0.81547   0.78974   0.00000  Uiso   1.00
O931   O     0.75725   0.75000   0.78044   0.00000  Uiso   1.00
O932   O     0.90942   0.75000   0.71955   0.00000  Uiso   1.00
O933   O     0.75725   0.75000   0.70096   0.00000  Uiso   1.00
O934   O     0.90942   0.75000   0.79903   0.00000  Uiso   1.00
Zn935  Zn    0.83333   0.75001   0.80307   0.00000  Uiso   1.00
Zn936  Zn    0.83333   0.75000   0.69693   0.00000  Uiso   1.00
loop_
_geom_bond_atom_site_label_1
_geom_bond_atom_site_label_2
_geom_bond_distance
_geom_bond_site_symmetry_2
_ccdc_geom_bond_type
C1     O71     1.281   .     A
C1     O69     1.287   .     A
C1     C14     1.442   .     S
C2     C39     1.408   .     A
C2     F44     1.357   .     S
C2     C4      1.410   .     A
C3     C23     1.408   .     A
C3     C40     1.409   .     A
C3     C472    1.506   1_554 S
C4     C34     1.407   .     A
C4     C471    1.506   .     S
C5     C7      1.400   .     S
C5     O75     1.276   .     A
C5     O73     1.273   .     A
C6     O74     1.274   .     A
C6     C8      1.400   .     S
C6     O76     1.275   .     A
C7     C164    1.329   1_455 S
C7     H201    1.088   1_455 S
C8     C85     1.329   .     S
C8     H134    1.088   .     S
C9     C20     1.394   .     A
C9     C11     1.378   .     A
C9     H60     1.084   .     S
C10    C21     1.394   .     A
C10    H61     1.084   .     S
C10    C13     1.377   .     A
C11    H62     1.084   .     S
C11    C14     1.399   .     A
C12    O72     1.281   .     A
C12    C15     1.442   .     S
C12    O70     1.287   .     A
C13    H63     1.084   .     S
C13    C15     1.398   .     A
C14    C16     1.416   .     A
C15    C17     1.417   .     A
C16    C22     1.480   .     S
C16    C18     1.389   .     A
C17    C29     1.482   .     S
C17    C19     1.390   .     A
C18    C20     1.397   .     A
C18    F41     1.360   .     S
C19    C21     1.397   .     A
C19    F42     1.360   .     S
C20    C255    1.436   1_545 S
C21    C254    1.436   .     S
C22    C28     1.404   .     A
C22    C24     1.404   .     A
C23    H64     1.083   .     S
C23    C36     1.407   .     A
C24    C25     1.399   .     A
C24    H49     1.083   .     S
C25    H50     1.082   .     S
C25    C26     1.398   .     A
C26    C27     1.398   .     A
C26    H51     1.082   .     S
C27    C28     1.399   .     A
C27    H130    1.082   .     S
C28    H53     1.083   .     S
C29    C30     1.404   .     A
C29    C35     1.405   .     A
C30    H54     1.083   .     S
C30    C31     1.399   .     A
C31    C32     1.398   .     A
C31    H55     1.082   .     S
C32    H57     1.082   .     S
C32    C33     1.398   .     A
C33    H58     1.082   .     S
C33    C35     1.399   .     A
C34    C37     1.407   .     A
C34    H65     1.083   .     S
C35    H59     1.083   .     S
C36    N67     1.364   .     A
C36    H66     1.082   .     S
C37    N68     1.364   .     A
C37    H46     1.081   .     S
C38    N67     1.364   .     A
C38    H47     1.081   .     S
C38    C40     1.408   .     A
C39    N68     1.364   .     A
C39    H48     1.081   .     S
C40    F43     1.357   .     S
H45    C85     1.088   .     S
H52    C183    1.082   1_455 S
H56    C164    1.088   1_455 S
N67    Zn78    2.000   .     S
N68    Zn77    2.000   .     S
O69    Zn77    1.997   .     S
O70    Zn78    1.997   .     S
O71    Zn78    1.998   .     S
O72    Zn77    1.998   .     S
O73    Zn77    1.966   .     S
O74    Zn78    1.966   .     S
O75    Zn78    1.978   .     S
O76    Zn77    1.978   .     S
C79    O149    1.281   .     A
C79    O147    1.287   .     A
C79    C92     1.442   .     S
C80    C117    1.408   .     A
C80    F122    1.357   .     S
C80    C82     1.410   .     A
C81    C101    1.408   .     A
C81    C118    1.409   .     A
C81    C550    1.506   1_554 S
C82    C112    1.407   .     A
C82    C549    1.506   .     S
C83    C85     1.400   .     S
C83    O153    1.276   .     A
C83    O151    1.273   .     A
C84    O152    1.274   .     A
C84    C86     1.400   .     S
C84    O154    1.275   .     A
C86    C163    1.329   .     S
C86    H212    1.088   .     S
C87    C98     1.394   .     A
C87    C89     1.378   .     A
C87    H138    1.084   .     S
C88    C99     1.394   .     A
C88    H139    1.084   .     S
C88    C91     1.377   .     A
C89    H140    1.084   .     S
C89    C92     1.399   .     A
C90    O150    1.281   .     A
C90    C93     1.442   .     S
C90    O148    1.287   .     A
C91    H141    1.084   .     S
C91    C93     1.398   .     A
C92    C94     1.416   .     A
C93    C95     1.417   .     A
C94    C100    1.480   .     S
C94    C96     1.389   .     A
C95    C107    1.482   .     S
C95    C97     1.390   .     A
C96    C98     1.397   .     A
C96    F119    1.360   .     S
C97    C99     1.397   .     A
C97    F120    1.360   .     S
C98    C333    1.436   1_545 S
C99    C332    1.436   .     S
C100   C106    1.404   .     A
C100   C102    1.404   .     A
C101   H142    1.083   .     S
C101   C114    1.407   .     A
C102   C103    1.399   .     A
C102   H127    1.083   .     S
C103   H128    1.082   .     S
C103   C104    1.398   .     A
C104   C105    1.398   .     A
C104   H129    1.082   .     S
C105   C106    1.399   .     A
C105   H208    1.082   .     S
C106   H131    1.083   .     S
C107   C108    1.404   .     A
C107   C113    1.405   .     A
C108   H132    1.083   .     S
C108   C109    1.399   .     A
C109   C110    1.398   .     A
C109   H133    1.082   .     S
C110   H135    1.082   .     S
C110   C111    1.398   .     A
C111   H136    1.082   .     S
C111   C113    1.399   .     A
C112   C115    1.407   .     A
C112   H143    1.083   .     S
C113   H137    1.083   .     S
C114   N145    1.364   .     A
C114   H144    1.082   .     S
C115   N146    1.364   .     A
C115   H124    1.081   .     S
C116   N145    1.364   .     A
C116   H125    1.081   .     S
C116   C118    1.408   .     A
C117   N146    1.364   .     A
C117   H126    1.081   .     S
C118   F121    1.357   .     S
H123   C163    1.088   .     S
N145   Zn156   2.000   .     S
N146   Zn155   2.000   .     S
O147   Zn155   1.997   .     S
O148   Zn156   1.997   .     S
O149   Zn156   1.998   .     S
O150   Zn155   1.998   .     S
O151   Zn155   1.966   .     S
O152   Zn156   1.966   .     S
O153   Zn156   1.978   .     S
O154   Zn155   1.978   .     S
C157   O227    1.281   .     A
C157   O225    1.287   .     A
C157   C170    1.442   .     S
C158   C195    1.408   .     A
C158   F200    1.357   .     S
C158   C160    1.410   .     A
C159   C179    1.408   .     A
C159   C196    1.409   .     A
C159   C628    1.506   1_554 S
C160   C190    1.407   .     A
C160   C627    1.506   .     S
C161   C163    1.400   .     S
C161   O231    1.276   .     A
C161   O229    1.273   .     A
C162   O230    1.274   .     A
C162   C164    1.400   .     S
C162   O232    1.275   .     A
C164   C7      1.329   1_655 S
C164   H56     1.088   1_655 S
C165   C176    1.394   .     A
C165   C167    1.378   .     A
C165   H216    1.084   .     S
C166   C177    1.394   .     A
C166   H217    1.084   .     S
C166   C169    1.377   .     A
C167   H218    1.084   .     S
C167   C170    1.399   .     A
C168   O228    1.281   .     A
C168   C171    1.442   .     S
C168   O226    1.287   .     A
C169   H219    1.084   .     S
C169   C171    1.398   .     A
C170   C172    1.416   .     A
C171   C173    1.417   .     A
C172   C178    1.480   .     S
C172   C174    1.389   .     A
C173   C185    1.482   .     S
C173   C175    1.390   .     A
C174   C176    1.397   .     A
C174   F197    1.360   .     S
C175   C177    1.397   .     A
C175   F198    1.360   .     S
C176   C411    1.436   1_545 S
C177   C410    1.436   .     S
C178   C184    1.404   .     A
C178   C180    1.404   .     A
C179   H220    1.083   .     S
C179   C192    1.407   .     A
C180   C181    1.399   .     A
C180   H205    1.083   .     S
C181   H206    1.082   .     S
C181   C182    1.398   .     A
C182   C183    1.398   .     A
C182   H207    1.082   .     S
C183   C184    1.399   .     A
C183   H52     1.082   1_655 S
C184   H209    1.083   .     S
C185   C186    1.404   .     A
C185   C191    1.405   .     A
C186   H210    1.083   .     S
C186   C187    1.399   .     A
C187   C188    1.398   .     A
C187   H211    1.082   .     S
C188   H213    1.082   .     S
C188   C189    1.398   .     A
C189   H214    1.082   .     S
C189   C191    1.399   .     A
C190   C193    1.407   .     A
C190   H221    1.083   .     S
C191   H215    1.083   .     S
C192   N223    1.364   .     A
C192   H222    1.082   .     S
C193   N224    1.364   .     A
C193   H202    1.081   .     S
C194   N223    1.364   .     A
C194   H203    1.081   .     S
C194   C196    1.408   .     A
C195   N224    1.364   .     A
C195   H204    1.081   .     S
C196   F199    1.357   .     S
H201   C7      1.088   1_655 S
N223   Zn234   2.000   .     S
N224   Zn233   2.000   .     S
O225   Zn233   1.997   .     S
O226   Zn234   1.997   .     S
O227   Zn234   1.998   .     S
O228   Zn233   1.998   .     S
O229   Zn233   1.966   .     S
O230   Zn234   1.966   .     S
O231   Zn234   1.978   .     S
O232   Zn233   1.978   .     S
C235   O305    1.281   .     A
C235   O303    1.287   .     A
C235   C248    1.442   .     S
C236   C273    1.408   .     A
C236   F278    1.357   .     S
C236   C238    1.410   .     A
C237   C257    1.408   .     A
C237   C274    1.409   .     A
C237   C706    1.506   1_554 S
C238   C268    1.407   .     A
C238   C705    1.506   .     S
C239   C241    1.400   .     S
C239   O309    1.276   .     A
C239   O307    1.273   .     A
C240   O308    1.274   .     A
C240   C242    1.400   .     S
C240   O310    1.275   .     A
C241   C398    1.329   1_455 S
C241   H435    1.088   1_455 S
C242   C319    1.329   .     S
C242   H368    1.088   .     S
C243   C254    1.394   .     A
C243   C245    1.378   .     A
C243   H294    1.084   .     S
C244   C255    1.394   .     A
C244   H295    1.084   .     S
C244   C247    1.377   .     A
C245   H296    1.084   .     S
C245   C248    1.399   .     A
C246   O306    1.281   .     A
C246   C249    1.442   .     S
C246   O304    1.287   .     A
C247   H297    1.084   .     S
C247   C249    1.398   .     A
C248   C250    1.416   .     A
C249   C251    1.417   .     A
C250   C256    1.480   .     S
C250   C252    1.389   .     A
C251   C263    1.482   .     S
C251   C253    1.390   .     A
C252   C254    1.397   .     A
C252   F275    1.360   .     S
C253   C255    1.397   .     A
C253   F276    1.360   .     S
C255   C20     1.436   1_565 S
C256   C262    1.404   .     A
C256   C258    1.404   .     A
C257   H298    1.083   .     S
C257   C270    1.407   .     A
C258   C259    1.399   .     A
C258   H283    1.083   .     S
C259   H284    1.082   .     S
C259   C260    1.398   .     A
C260   C261    1.398   .     A
C260   H285    1.082   .     S
C261   C262    1.399   .     A
C261   H364    1.082   .     S
C262   H287    1.083   .     S
C263   C264    1.404   .     A
C263   C269    1.405   .     A
C264   H288    1.083   .     S
C264   C265    1.399   .     A
C265   C266    1.398   .     A
C265   H289    1.082   .     S
C266   H291    1.082   .     S
C266   C267    1.398   .     A
C267   H292    1.082   .     S
C267   C269    1.399   .     A
C268   C271    1.407   .     A
C268   H299    1.083   .     S
C269   H293    1.083   .     S
C270   N301    1.364   .     A
C270   H300    1.082   .     S
C271   N302    1.364   .     A
C271   H280    1.081   .     S
C272   N301    1.364   .     A
C272   H281    1.081   .     S
C272   C274    1.408   .     A
C273   N302    1.364   .     A
C273   H282    1.081   .     S
C274   F277    1.357   .     S
H279   C319    1.088   .     S
H286   C417    1.082   1_455 S
H290   C398    1.088   1_455 S
N301   Zn312   2.000   .     S
N302   Zn311   2.000   .     S
O303   Zn311   1.997   .     S
O304   Zn312   1.997   .     S
O305   Zn312   1.998   .     S
O306   Zn311   1.998   .     S
O307   Zn311   1.966   .     S
O308   Zn312   1.966   .     S
O309   Zn312   1.978   .     S
O310   Zn311   1.978   .     S
C313   O383    1.281   .     A
C313   O381    1.287   .     A
C313   C326    1.442   .     S
C314   C351    1.408   .     A
C314   F356    1.357   .     S
C314   C316    1.410   .     A
C315   C335    1.408   .     A
C315   C352    1.409   .     A
C315   C784    1.506   1_554 S
C316   C346    1.407   .     A
C316   C783    1.506   .     S
C317   C319    1.400   .     S
C317   O387    1.276   .     A
C317   O385    1.273   .     A
C318   O386    1.274   .     A
C318   C320    1.400   .     S
C318   O388    1.275   .     A
C320   C397    1.329   .     S
C320   H446    1.088   .     S
C321   C332    1.394   .     A
C321   C323    1.378   .     A
C321   H372    1.084   .     S
C322   C333    1.394   .     A
C322   H373    1.084   .     S
C322   C325    1.377   .     A
C323   H374    1.084   .     S
C323   C326    1.399   .     A
C324   O384    1.281   .     A
C324   C327    1.442   .     S
C324   O382    1.287   .     A
C325   H375    1.084   .     S
C325   C327    1.398   .     A
C326   C328    1.416   .     A
C327   C329    1.417   .     A
C328   C334    1.480   .     S
C328   C330    1.389   .     A
C329   C341    1.482   .     S
C329   C331    1.390   .     A
C330   C332    1.397   .     A
C330   F353    1.360   .     S
C331   C333    1.397   .     A
C331   F354    1.360   .     S
C333   C98     1.436   1_565 S
C334   C340    1.404   .     A
C334   C336    1.404   .     A
C335   H376    1.083   .     S
C335   C348    1.407   .     A
C336   C337    1.399   .     A
C336   H361    1.083   .     S
C337   H362    1.082   .     S
C337   C338    1.398   .     A
C338   C339    1.398   .     A
C338   H363    1.082   .     S
C339   C340    1.399   .     A
C339   H442    1.082   .     S
C340   H365    1.083   .     S
C341   C342    1.404   .     A
C341   C347    1.405   .     A
C342   H366    1.083   .     S
C342   C343    1.399   .     A
C343   C344    1.398   .     A
C343   H367    1.082   .     S
C344   H369    1.082   .     S
C344   C345    1.398   .     A
C345   H370    1.082   .     S
C345   C347    1.399   .     A
C346   C349    1.407   .     A
C346   H377    1.083   .     S
C347   H371    1.083   .     S
C348   N379    1.364   .     A
C348   H378    1.082   .     S
C349   N380    1.364   .     A
C349   H358    1.081   .     S
C350   N379    1.364   .     A
C350   H359    1.081   .     S
C350   C352    1.408   .     A
C351   N380    1.364   .     A
C351   H360    1.081   .     S
C352   F355    1.357   .     S
H357   C397    1.088   .     S
N379   Zn390   2.000   .     S
N380   Zn389   2.000   .     S
O381   Zn389   1.997   .     S
O382   Zn390   1.997   .     S
O383   Zn390   1.998   .     S
O384   Zn389   1.998   .     S
O385   Zn389   1.966   .     S
O386   Zn390   1.966   .     S
O387   Zn390   1.978   .     S
O388   Zn389   1.978   .     S
C391   O461    1.281   .     A
C391   O459    1.287   .     A
C391   C404    1.442   .     S
C392   C429    1.408   .     A
C392   F434    1.357   .     S
C392   C394    1.410   .     A
C393   C413    1.408   .     A
C393   C430    1.409   .     A
C393   C862    1.506   1_554 S
C394   C424    1.407   .     A
C394   C861    1.506   .     S
C395   C397    1.400   .     S
C395   O465    1.276   .     A
C395   O463    1.273   .     A
C396   O464    1.274   .     A
C396   C398    1.400   .     S
C396   O466    1.275   .     A
C398   C241    1.329   1_655 S
C398   H290    1.088   1_655 S
C399   C410    1.394   .     A
C399   C401    1.378   .     A
C399   H450    1.084   .     S
C400   C411    1.394   .     A
C400   H451    1.084   .     S
C400   C403    1.377   .     A
C401   H452    1.084   .     S
C401   C404    1.399   .     A
C402   O462    1.281   .     A
C402   C405    1.442   .     S
C402   O460    1.287   .     A
C403   H453    1.084   .     S
C403   C405    1.398   .     A
C404   C406    1.416   .     A
C405   C407    1.417   .     A
C406   C412    1.480   .     S
C406   C408    1.389   .     A
C407   C419    1.482   .     S
C407   C409    1.390   .     A
C408   C410    1.397   .     A
C408   F431    1.360   .     S
C409   C411    1.397   .     A
C409   F432    1.360   .     S
C411   C176    1.436   1_565 S
C412   C418    1.404   .     A
C412   C414    1.404   .     A
C413   H454    1.083   .     S
C413   C426    1.407   .     A
C414   C415    1.399   .     A
C414   H439    1.083   .     S
C415   H440    1.082   .     S
C415   C416    1.398   .     A
C416   C417    1.398   .     A
C416   H441    1.082   .     S
C417   C418    1.399   .     A
C417   H286    1.082   1_655 S
C418   H443    1.083   .     S
C419   C420    1.404   .     A
C419   C425    1.405   .     A
C420   H444    1.083   .     S
C420   C421    1.399   .     A
C421   C422    1.398   .     A
C421   H445    1.082   .     S
C422   H447    1.082   .     S
C422   C423    1.398   .     A
C423   H448    1.082   .     S
C423   C425    1.399   .     A
C424   C427    1.407   .     A
C424   H455    1.083   .     S
C425   H449    1.083   .     S
C426   N457    1.364   .     A
C426   H456    1.082   .     S
C427   N458    1.364   .     A
C427   H436    1.081   .     S
C428   N457    1.364   .     A
C428   H437    1.081   .     S
C428   C430    1.408   .     A
C429   N458    1.364   .     A
C429   H438    1.081   .     S
C430   F433    1.357   .     S
H435   C241    1.088   1_655 S
N457   Zn468   2.000   .     S
N458   Zn467   2.000   .     S
O459   Zn467   1.997   .     S
O460   Zn468   1.997   .     S
O461   Zn468   1.998   .     S
O462   Zn467   1.998   .     S
O463   Zn467   1.966   .     S
O464   Zn468   1.966   .     S
O465   Zn468   1.978   .     S
O466   Zn467   1.978   .     S
C469   O539    1.281   .     A
C469   O537    1.287   .     A
C469   C482    1.442   .     S
C470   C507    1.408   .     A
C470   F512    1.357   .     S
C470   C472    1.410   .     A
C471   C491    1.408   .     A
C471   C508    1.409   .     A
C472   C502    1.407   .     A
C472   C3      1.506   1_556 S
C473   C475    1.400   .     S
C473   O543    1.276   .     A
C473   O541    1.273   .     A
C474   O542    1.274   .     A
C474   C476    1.400   .     S
C474   O544    1.275   .     A
C475   C632    1.329   1_455 S
C475   H669    1.088   1_455 S
C476   C553    1.329   .     S
C476   H602    1.088   .     S
C477   C488    1.394   .     A
C477   C479    1.378   .     A
C477   H528    1.084   .     S
C478   C489    1.394   .     A
C478   H529    1.084   .     S
C478   C481    1.377   .     A
C479   H530    1.084   .     S
C479   C482    1.399   .     A
C480   O540    1.281   .     A
C480   C483    1.442   .     S
C480   O538    1.287   .     A
C481   H531    1.084   .     S
C481   C483    1.398   .     A
C482   C484    1.416   .     A
C483   C485    1.417   .     A
C484   C490    1.480   .     S
C484   C486    1.389   .     A
C485   C497    1.482   .     S
C485   C487    1.390   .     A
C486   C488    1.397   .     A
C486   F509    1.360   .     S
C487   C489    1.397   .     A
C487   F510    1.360   .     S
C488   C723    1.436   1_545 S
C489   C722    1.436   .     S
C490   C496    1.404   .     A
C490   C492    1.404   .     A
C491   H532    1.083   .     S
C491   C504    1.407   .     A
C492   C493    1.399   .     A
C492   H517    1.083   .     S
C493   H518    1.082   .     S
C493   C494    1.398   .     A
C494   C495    1.398   .     A
C494   H519    1.082   .     S
C495   C496    1.399   .     A
C495   H598    1.082   .     S
C496   H521    1.083   .     S
C497   C498    1.404   .     A
C497   C503    1.405   .     A
C498   H522    1.083   .     S
C498   C499    1.399   .     A
C499   C500    1.398   .     A
C499   H523    1.082   .     S
C500   H525    1.082   .     S
C500   C501    1.398   .     A
C501   H526    1.082   .     S
C501   C503    1.399   .     A
C502   C505    1.407   .     A
C502   H533    1.083   .     S
C503   H527    1.083   .     S
C504   N535    1.364   .     A
C504   H534    1.082   .     S
C505   N536    1.364   .     A
C505   H514    1.081   .     S
C506   N535    1.364   .     A
C506   H515    1.081   .     S
C506   C508    1.408   .     A
C507   N536    1.364   .     A
C507   H516    1.081   .     S
C508   F511    1.357   .     S
H513   C553    1.088   .     S
H520   C651    1.082   1_455 S
H524   C632    1.088   1_455 S
N535   Zn546   2.000   .     S
N536   Zn545   2.000   .     S
O537   Zn545   1.997   .     S
O538   Zn546   1.997   .     S
O539   Zn546   1.998   .     S
O540   Zn545   1.998   .     S
O541   Zn545   1.966   .     S
O542   Zn546   1.966   .     S
O543   Zn546   1.978   .     S
O544   Zn545   1.978   .     S
C547   O617    1.281   .     A
C547   O615    1.287   .     A
C547   C560    1.442   .     S
C548   C585    1.408   .     A
C548   F590    1.357   .     S
C548   C550    1.410   .     A
C549   C569    1.408   .     A
C549   C586    1.409   .     A
C550   C580    1.407   .     A
C550   C81     1.506   1_556 S
C551   C553    1.400   .     S
C551   O621    1.276   .     A
C551   O619    1.273   .     A
C552   O620    1.274   .     A
C552   C554    1.400   .     S
C552   O622    1.275   .     A
C554   C631    1.329   .     S
C554   H680    1.088   .     S
C555   C566    1.394   .     A
C555   C557    1.378   .     A
C555   H606    1.084   .     S
C556   C567    1.394   .     A
C556   H607    1.084   .     S
C556   C559    1.377   .     A
C557   H608    1.084   .     S
C557   C560    1.399   .     A
C558   O618    1.281   .     A
C558   C561    1.442   .     S
C558   O616    1.287   .     A
C559   H609    1.084   .     S
C559   C561    1.398   .     A
C560   C562    1.416   .     A
C561   C563    1.417   .     A
C562   C568    1.480   .     S
C562   C564    1.389   .     A
C563   C575    1.482   .     S
C563   C565    1.390   .     A
C564   C566    1.397   .     A
C564   F587    1.360   .     S
C565   C567    1.397   .     A
C565   F588    1.360   .     S
C566   C801    1.436   1_545 S
C567   C800    1.436   .     S
C568   C574    1.404   .     A
C568   C570    1.404   .     A
C569   H610    1.083   .     S
C569   C582    1.407   .     A
C570   C571    1.399   .     A
C570   H595    1.083   .     S
C571   H596    1.082   .     S
C571   C572    1.398   .     A
C572   C573    1.398   .     A
C572   H597    1.082   .     S
C573   C574    1.399   .     A
C573   H676    1.082   .     S
C574   H599    1.083   .     S
C575   C576    1.404   .     A
C575   C581    1.405   .     A
C576   H600    1.083   .     S
C576   C577    1.399   .     A
C577   C578    1.398   .     A
C577   H601    1.082   .     S
C578   H603    1.082   .     S
C578   C579    1.398   .     A
C579   H604    1.082   .     S
C579   C581    1.399   .     A
C580   C583    1.407   .     A
C580   H611    1.083   .     S
C581   H605    1.083   .     S
C582   N613    1.364   .     A
C582   H612    1.082   .     S
C583   N614    1.364   .     A
C583   H592    1.081   .     S
C584   N613    1.364   .     A
C584   H593    1.081   .     S
C584   C586    1.408   .     A
C585   N614    1.364   .     A
C585   H594    1.081   .     S
C586   F589    1.357   .     S
H591   C631    1.088   .     S
N613   Zn624   2.000   .     S
N614   Zn623   2.000   .     S
O615   Zn623   1.997   .     S
O616   Zn624   1.997   .     S
O617   Zn624   1.998   .     S
O618   Zn623   1.998   .     S
O619   Zn623   1.966   .     S
O620   Zn624   1.966   .     S
O621   Zn624   1.978   .     S
O622   Zn623   1.978   .     S
C625   O695    1.281   .     A
C625   O693    1.287   .     A
C625   C638    1.442   .     S
C626   C663    1.408   .     A
C626   F668    1.357   .     S
C626   C628    1.410   .     A
C627   C647    1.408   .     A
C627   C664    1.409   .     A
C628   C658    1.407   .     A
C628   C159    1.506   1_556 S
C629   C631    1.400   .     S
C629   O699    1.276   .     A
C629   O697    1.273   .     A
C630   O698    1.274   .     A
C630   C632    1.400   .     S
C630   O700    1.275   .     A
C632   C475    1.329   1_655 S
C632   H524    1.088   1_655 S
C633   C644    1.394   .     A
C633   C635    1.378   .     A
C633   H684    1.084   .     S
C634   C645    1.394   .     A
C634   H685    1.084   .     S
C634   C637    1.377   .     A
C635   H686    1.084   .     S
C635   C638    1.399   .     A
C636   O696    1.281   .     A
C636   C639    1.442   .     S
C636   O694    1.287   .     A
C637   H687    1.084   .     S
C637   C639    1.398   .     A
C638   C640    1.416   .     A
C639   C641    1.417   .     A
C640   C646    1.480   .     S
C640   C642    1.389   .     A
C641   C653    1.482   .     S
C641   C643    1.390   .     A
C642   C644    1.397   .     A
C642   F665    1.360   .     S
C643   C645    1.397   .     A
C643   F666    1.360   .     S
C644   C879    1.436   1_545 S
C645   C878    1.436   .     S
C646   C652    1.404   .     A
C646   C648    1.404   .     A
C647   H688    1.083   .     S
C647   C660    1.407   .     A
C648   C649    1.399   .     A
C648   H673    1.083   .     S
C649   H674    1.082   .     S
C649   C650    1.398   .     A
C650   C651    1.398   .     A
C650   H675    1.082   .     S
C651   C652    1.399   .     A
C651   H520    1.082   1_655 S
C652   H677    1.083   .     S
C653   C654    1.404   .     A
C653   C659    1.405   .     A
C654   H678    1.083   .     S
C654   C655    1.399   .     A
C655   C656    1.398   .     A
C655   H679    1.082   .     S
C656   H681    1.082   .     S
C656   C657    1.398   .     A
C657   H682    1.082   .     S
C657   C659    1.399   .     A
C658   C661    1.407   .     A
C658   H689    1.083   .     S
C659   H683    1.083   .     S
C660   N691    1.364   .     A
C660   H690    1.082   .     S
C661   N692    1.364   .     A
C661   H670    1.081   .     S
C662   N691    1.364   .     A
C662   H671    1.081   .     S
C662   C664    1.408   .     A
C663   N692    1.364   .     A
C663   H672    1.081   .     S
C664   F667    1.357   .     S
H669   C475    1.088   1_655 S
N691   Zn702   2.000   .     S
N692   Zn701   2.000   .     S
O693   Zn701   1.997   .     S
O694   Zn702   1.997   .     S
O695   Zn702   1.998   .     S
O696   Zn701   1.998   .     S
O697   Zn701   1.966   .     S
O698   Zn702   1.966   .     S
O699   Zn702   1.978   .     S
O700   Zn701   1.978   .     S
C703   O773    1.281   .     A
C703   O771    1.287   .     A
C703   C716    1.442   .     S
C704   C741    1.408   .     A
C704   F746    1.357   .     S
C704   C706    1.410   .     A
C705   C725    1.408   .     A
C705   C742    1.409   .     A
C706   C736    1.407   .     A
C706   C237    1.506   1_556 S
C707   C709    1.400   .     S
C707   O777    1.276   .     A
C707   O775    1.273   .     A
C708   O776    1.274   .     A
C708   C710    1.400   .     S
C708   O778    1.275   .     A
C709   C866    1.329   1_455 S
C709   H903    1.088   1_455 S
C710   C787    1.329   .     S
C710   H836    1.088   .     S
C711   C722    1.394   .     A
C711   C713    1.378   .     A
C711   H762    1.084   .     S
C712   C723    1.394   .     A
C712   H763    1.084   .     S
C712   C715    1.377   .     A
C713   H764    1.084   .     S
C713   C716    1.399   .     A
C714   O774    1.281   .     A
C714   C717    1.442   .     S
C714   O772    1.287   .     A
C715   H765    1.084   .     S
C715   C717    1.398   .     A
C716   C718    1.416   .     A
C717   C719    1.417   .     A
C718   C724    1.480   .     S
C718   C720    1.389   .     A
C719   C731    1.482   .     S
C719   C721    1.390   .     A
C720   C722    1.397   .     A
C720   F743    1.360   .     S
C721   C723    1.397   .     A
C721   F744    1.360   .     S
C723   C488    1.436   1_565 S
C724   C730    1.404   .     A
C724   C726    1.404   .     A
C725   H766    1.083   .     S
C725   C738    1.407   .     A
C726   C727    1.399   .     A
C726   H751    1.083   .     S
C727   H752    1.082   .     S
C727   C728    1.398   .     A
C728   C729    1.398   .     A
C728   H753    1.082   .     S
C729   C730    1.399   .     A
C729   H832    1.082   .     S
C730   H755    1.083   .     S
C731   C732    1.404   .     A
C731   C737    1.405   .     A
C732   H756    1.083   .     S
C732   C733    1.399   .     A
C733   C734    1.398   .     A
C733   H757    1.082   .     S
C734   H759    1.082   .     S
C734   C735    1.398   .     A
C735   H760    1.082   .     S
C735   C737    1.399   .     A
C736   C739    1.407   .     A
C736   H767    1.083   .     S
C737   H761    1.083   .     S
C738   N769    1.364   .     A
C738   H768    1.082   .     S
C739   N770    1.364   .     A
C739   H748    1.081   .     S
C740   N769    1.364   .     A
C740   H749    1.081   .     S
C740   C742    1.408   .     A
C741   N770    1.364   .     A
C741   H750    1.081   .     S
C742   F745    1.357   .     S
H747   C787    1.088   .     S
H754   C885    1.082   1_455 S
H758   C866    1.088   1_455 S
N769   Zn780   2.000   .     S
N770   Zn779   2.000   .     S
O771   Zn779   1.997   .     S
O772   Zn780   1.997   .     S
O773   Zn780   1.998   .     S
O774   Zn779   1.998   .     S
O775   Zn779   1.966   .     S
O776   Zn780   1.966   .     S
O777   Zn780   1.978   .     S
O778   Zn779   1.978   .     S
C781   O851    1.281   .     A
C781   O849    1.287   .     A
C781   C794    1.442   .     S
C782   C819    1.408   .     A
C782   F824    1.357   .     S
C782   C784    1.410   .     A
C783   C803    1.408   .     A
C783   C820    1.409   .     A
C784   C814    1.407   .     A
C784   C315    1.506   1_556 S
C785   C787    1.400   .     S
C785   O855    1.276   .     A
C785   O853    1.273   .     A
C786   O854    1.274   .     A
C786   C788    1.400   .     S
C786   O856    1.275   .     A
C788   C865    1.329   .     S
C788   H914    1.088   .     S
C789   C800    1.394   .     A
C789   C791    1.378   .     A
C789   H840    1.084   .     S
C790   C801    1.394   .     A
C790   H841    1.084   .     S
C790   C793    1.377   .     A
C791   H842    1.084   .     S
C791   C794    1.399   .     A
C792   O852    1.281   .     A
C792   C795    1.442   .     S
C792   O850    1.287   .     A
C793   H843    1.084   .     S
C793   C795    1.398   .     A
C794   C796    1.416   .     A
C795   C797    1.417   .     A
C796   C802    1.480   .     S
C796   C798    1.389   .     A
C797   C809    1.482   .     S
C797   C799    1.390   .     A
C798   C800    1.397   .     A
C798   F821    1.360   .     S
C799   C801    1.397   .     A
C799   F822    1.360   .     S
C801   C566    1.436   1_565 S
C802   C808    1.404   .     A
C802   C804    1.404   .     A
C803   H844    1.083   .     S
C803   C816    1.407   .     A
C804   C805    1.399   .     A
C804   H829    1.083   .     S
C805   H830    1.082   .     S
C805   C806    1.398   .     A
C806   C807    1.398   .     A
C806   H831    1.082   .     S
C807   C808    1.399   .     A
C807   H910    1.082   .     S
C808   H833    1.083   .     S
C809   C810    1.404   .     A
C809   C815    1.405   .     A
C810   H834    1.083   .     S
C810   C811    1.399   .     A
C811   C812    1.398   .     A
C811   H835    1.082   .     S
C812   H837    1.082   .     S
C812   C813    1.398   .     A
C813   H838    1.082   .     S
C813   C815    1.399   .     A
C814   C817    1.407   .     A
C814   H845    1.083   .     S
C815   H839    1.083   .     S
C816   N847    1.364   .     A
C816   H846    1.082   .     S
C817   N848    1.364   .     A
C817   H826    1.081   .     S
C818   N847    1.364   .     A
C818   H827    1.081   .     S
C818   C820    1.408   .     A
C819   N848    1.364   .     A
C819   H828    1.081   .     S
C820   F823    1.357   .     S
H825   C865    1.088   .     S
N847   Zn858   2.000   .     S
N848   Zn857   2.000   .     S
O849   Zn857   1.997   .     S
O850   Zn858   1.997   .     S
O851   Zn858   1.998   .     S
O852   Zn857   1.998   .     S
O853   Zn857   1.966   .     S
O854   Zn858   1.966   .     S
O855   Zn858   1.978   .     S
O856   Zn857   1.978   .     S
C859   O929    1.281   .     A
C859   O927    1.287   .     A
C859   C872    1.442   .     S
C860   C897    1.408   .     A
C860   F902    1.357   .     S
C860   C862    1.410   .     A
C861   C881    1.408   .     A
C861   C898    1.409   .     A
C862   C892    1.407   .     A
C862   C393    1.506   1_556 S
C863   C865    1.400   .     S
C863   O933    1.276   .     A
C863   O931    1.273   .     A
C864   O932    1.274   .     A
C864   C866    1.400   .     S
C864   O934    1.275   .     A
C866   C709    1.329   1_655 S
C866   H758    1.088   1_655 S
C867   C878    1.394   .     A
C867   C869    1.378   .     A
C867   H918    1.084   .     S
C868   C879    1.394   .     A
C868   H919    1.084   .     S
C868   C871    1.377   .     A
C869   H920    1.084   .     S
C869   C872    1.399   .     A
C870   O930    1.281   .     A
C870   C873    1.442   .     S
C870   O928    1.287   .     A
C871   H921    1.084   .     S
C871   C873    1.398   .     A
C872   C874    1.416   .     A
C873   C875    1.417   .     A
C874   C880    1.480   .     S
C874   C876    1.389   .     A
C875   C887    1.482   .     S
C875   C877    1.390   .     A
C876   C878    1.397   .     A
C876   F899    1.360   .     S
C877   C879    1.397   .     A
C877   F900    1.360   .     S
C879   C644    1.436   1_565 S
C880   C886    1.404   .     A
C880   C882    1.404   .     A
C881   H922    1.083   .     S
C881   C894    1.407   .     A
C882   C883    1.399   .     A
C882   H907    1.083   .     S
C883   H908    1.082   .     S
C883   C884    1.398   .     A
C884   C885    1.398   .     A
C884   H909    1.082   .     S
C885   C886    1.399   .     A
C885   H754    1.082   1_655 S
C886   H911    1.083   .     S
C887   C888    1.404   .     A
C887   C893    1.405   .     A
C888   H912    1.083   .     S
C888   C889    1.399   .     A
C889   C890    1.398   .     A
C889   H913    1.082   .     S
C890   H915    1.082   .     S
C890   C891    1.398   .     A
C891   H916    1.082   .     S
C891   C893    1.399   .     A
C892   C895    1.407   .     A
C892   H923    1.083   .     S
C893   H917    1.083   .     S
C894   N925    1.364   .     A
C894   H924    1.082   .     S
C895   N926    1.364   .     A
C895   H904    1.081   .     S
C896   N925    1.364   .     A
C896   H905    1.081   .     S
C896   C898    1.408   .     A
C897   N926    1.364   .     A
C897   H906    1.081   .     S
C898   F901    1.357   .     S
H903   C709    1.088   1_655 S
N925   Zn936   2.000   .     S
N926   Zn935   2.000   .     S
O927   Zn935   1.997   .     S
O928   Zn936   1.997   .     S
O929   Zn936   1.998   .     S
O930   Zn935   1.998   .     S
O931   Zn935   1.966   .     S
O932   Zn936   1.966   .     S
O933   Zn936   1.978   .     S
O934   Zn935   1.978   .     S
