data_str_m3_o2_o10_pcu_sym.194
_audit_creation_date              2020-01-03
_audit_creation_method            'Materials Studio'
_symmetry_space_group_name_H-M    'P1'
_symmetry_Int_Tables_number       1
_symmetry_cell_setting            triclinic
loop_
_symmetry_equiv_pos_as_xyz
  x,y,z
_cell_length_a                    25.7779
_cell_length_b                    29.9337
_cell_length_c                    28.3312
_cell_angle_alpha                 89.4253
_cell_angle_beta                  98.6596
_cell_angle_gamma                 90.1031
loop_
_atom_site_label
_atom_site_type_symbol
_atom_site_fract_x
_atom_site_fract_y
_atom_site_fract_z
_atom_site_U_iso_or_equiv
_atom_site_adp_type
_atom_site_occupancy
C1     C     0.16608   0.16378   0.25022   0.00000  Uiso   1.00
C2     C     0.16616   0.33626   0.24961   0.00000  Uiso   1.00
C3     C     0.14282   0.21533   0.04968   0.00000  Uiso   1.00
C4     C     0.20849   0.26881   0.45291   0.00000  Uiso   1.00
C5     C     0.14312   0.21602   0.09934   0.00000  Uiso   1.00
C6     C     0.20762   0.26853   0.40315   0.00000  Uiso   1.00
C7     C     0.19023   0.28400   0.10515   0.00000  Uiso   1.00
C8     C     0.12571   0.23156   0.39239   0.00000  Uiso   1.00
C9     C     0.19057   0.28476   0.05555   0.00000  Uiso   1.00
C10    C     0.12487   0.23135   0.44190   0.00000  Uiso   1.00
C11    C     0.16670   0.25006   0.02669   0.00000  Uiso   1.00
C12    C     0.16669   0.25008   0.47333   0.00000  Uiso   1.00
C13    C     0.06699   0.24998   0.23753   0.00000  Uiso   1.00
C14    C     0.26634   0.24999   0.26248   0.00000  Uiso   1.00
C15    C     0.01198   0.24997   0.23080   0.00000  Uiso   1.00
C16    C     0.32136   0.24992   0.26922   0.00000  Uiso   1.00
C17    C     0.15276   0.04437   0.28597   0.00000  Uiso   1.00
C18    C     0.15504   0.45573   0.20970   0.00000  Uiso   1.00
C19    C     0.14652   0.09027   0.28506   0.00000  Uiso   1.00
C20    C     0.14882   0.40983   0.20864   0.00000  Uiso   1.00
C21    C     0.16923   0.11573   0.25135   0.00000  Uiso   1.00
C22    C     0.16941   0.38436   0.24933   0.00000  Uiso   1.00
C23    C     0.19718   0.09496   0.21887   0.00000  Uiso   1.00
C24    C     0.19534   0.40523   0.29035   0.00000  Uiso   1.00
C25    C     0.20250   0.04907   0.21968   0.00000  Uiso   1.00
C26    C     0.20060   0.45112   0.29120   0.00000  Uiso   1.00
C27    C     0.18031   0.02401   0.25323   0.00000  Uiso   1.00
C28    C     0.18044   0.47613   0.25089   0.00000  Uiso   1.00
H29    H     0.32467   0.25005   0.19435   0.00000  Uiso   1.00
H30    H     0.00866   0.24985   0.30567   0.00000  Uiso   1.00
H31    H     0.13430   0.02432   0.31086   0.00000  Uiso   1.00
H32    H     0.13817   0.47576   0.17914   0.00000  Uiso   1.00
H33    H     0.21509   0.11423   0.19303   0.00000  Uiso   1.00
H34    H     0.21170   0.38604   0.32170   0.00000  Uiso   1.00
H35    H     0.22334   0.03301   0.19400   0.00000  Uiso   1.00
H36    H     0.21980   0.46721   0.32326   0.00000  Uiso   1.00
H37    H     0.12461   0.18737   0.02967   0.00000  Uiso   1.00
H38    H     0.24214   0.28306   0.47514   0.00000  Uiso   1.00
H39    H     0.12457   0.18916   0.11643   0.00000  Uiso   1.00
H40    H     0.23994   0.28309   0.38804   0.00000  Uiso   1.00
H41    H     0.20873   0.31084   0.12682   0.00000  Uiso   1.00
H42    H     0.09334   0.21701   0.36881   0.00000  Uiso   1.00
H43    H     0.20880   0.31275   0.03999   0.00000  Uiso   1.00
H44    H     0.09122   0.21713   0.45523   0.00000  Uiso   1.00
N45    N     0.16667   0.24999   0.12623   0.00000  Uiso   1.00
N46    N     0.16667   0.25001   0.37376   0.00000  Uiso   1.00
O47    O     0.16667   0.18454   0.28974   0.00000  Uiso   1.00
O48    O     0.16666   0.31547   0.21026   0.00000  Uiso   1.00
O49    O     0.16667   0.18453   0.21026   0.00000  Uiso   1.00
O50    O     0.16666   0.31547   0.28974   0.00000  Uiso   1.00
O51    O     0.09058   0.25000   0.28044   0.00000  Uiso   1.00
O52    O     0.24275   0.25000   0.21955   0.00000  Uiso   1.00
O53    O     0.09058   0.25000   0.20096   0.00000  Uiso   1.00
O54    O     0.24275   0.25001   0.29903   0.00000  Uiso   1.00
Zn55   Zn    0.16667   0.25001   0.30307   0.00000  Uiso   1.00
Zn56   Zn    0.16667   0.25000   0.19693   0.00000  Uiso   1.00
Br57   Br    0.10315   0.11510   0.32785   0.00000  Uiso   1.00
Br58   Br    0.10840   0.38516   0.15224   0.00000  Uiso   1.00
C59    C     0.49941   0.16378   0.25022   0.00000  Uiso   1.00
C60    C     0.49949   0.33626   0.24961   0.00000  Uiso   1.00
C61    C     0.47616   0.21533   0.04968   0.00000  Uiso   1.00
C62    C     0.54182   0.26881   0.45291   0.00000  Uiso   1.00
C63    C     0.47646   0.21602   0.09934   0.00000  Uiso   1.00
C64    C     0.54095   0.26853   0.40315   0.00000  Uiso   1.00
C65    C     0.52356   0.28400   0.10515   0.00000  Uiso   1.00
C66    C     0.45905   0.23156   0.39239   0.00000  Uiso   1.00
C67    C     0.52390   0.28476   0.05555   0.00000  Uiso   1.00
C68    C     0.45821   0.23135   0.44190   0.00000  Uiso   1.00
C69    C     0.50004   0.25006   0.02669   0.00000  Uiso   1.00
C70    C     0.50003   0.25008   0.47333   0.00000  Uiso   1.00
C71    C     0.40033   0.24998   0.23753   0.00000  Uiso   1.00
C72    C     0.59967   0.24999   0.26248   0.00000  Uiso   1.00
C73    C     0.34531   0.24997   0.23080   0.00000  Uiso   1.00
C74    C     0.65469   0.24992   0.26922   0.00000  Uiso   1.00
C75    C     0.48609   0.04437   0.28597   0.00000  Uiso   1.00
C76    C     0.48838   0.45573   0.20970   0.00000  Uiso   1.00
C77    C     0.47985   0.09027   0.28506   0.00000  Uiso   1.00
C78    C     0.48215   0.40983   0.20864   0.00000  Uiso   1.00
C79    C     0.50256   0.11573   0.25135   0.00000  Uiso   1.00
C80    C     0.50274   0.38436   0.24933   0.00000  Uiso   1.00
C81    C     0.53051   0.09496   0.21887   0.00000  Uiso   1.00
C82    C     0.52867   0.40523   0.29035   0.00000  Uiso   1.00
C83    C     0.53584   0.04907   0.21968   0.00000  Uiso   1.00
C84    C     0.53394   0.45112   0.29120   0.00000  Uiso   1.00
C85    C     0.51364   0.02401   0.25323   0.00000  Uiso   1.00
C86    C     0.51377   0.47613   0.25089   0.00000  Uiso   1.00
H87    H     0.65800   0.25005   0.19435   0.00000  Uiso   1.00
H88    H     0.34199   0.24985   0.30567   0.00000  Uiso   1.00
H89    H     0.46763   0.02432   0.31086   0.00000  Uiso   1.00
H90    H     0.47150   0.47576   0.17914   0.00000  Uiso   1.00
H91    H     0.54843   0.11423   0.19303   0.00000  Uiso   1.00
H92    H     0.54503   0.38604   0.32170   0.00000  Uiso   1.00
H93    H     0.55667   0.03301   0.19400   0.00000  Uiso   1.00
H94    H     0.55313   0.46721   0.32326   0.00000  Uiso   1.00
H95    H     0.45794   0.18737   0.02967   0.00000  Uiso   1.00
H96    H     0.57547   0.28306   0.47514   0.00000  Uiso   1.00
H97    H     0.45790   0.18916   0.11643   0.00000  Uiso   1.00
H98    H     0.57327   0.28309   0.38804   0.00000  Uiso   1.00
H99    H     0.54207   0.31084   0.12682   0.00000  Uiso   1.00
H100   H     0.42667   0.21701   0.36881   0.00000  Uiso   1.00
H101   H     0.54213   0.31275   0.03999   0.00000  Uiso   1.00
H102   H     0.42455   0.21713   0.45523   0.00000  Uiso   1.00
N103   N     0.50000   0.24999   0.12623   0.00000  Uiso   1.00
N104   N     0.50000   0.25001   0.37376   0.00000  Uiso   1.00
O105   O     0.50000   0.18454   0.28974   0.00000  Uiso   1.00
O106   O     0.50000   0.31547   0.21026   0.00000  Uiso   1.00
O107   O     0.50000   0.18453   0.21026   0.00000  Uiso   1.00
O108   O     0.50000   0.31547   0.28974   0.00000  Uiso   1.00
O109   O     0.42392   0.25000   0.28044   0.00000  Uiso   1.00
O110   O     0.57608   0.25000   0.21955   0.00000  Uiso   1.00
O111   O     0.42392   0.25000   0.20096   0.00000  Uiso   1.00
O112   O     0.57608   0.25001   0.29903   0.00000  Uiso   1.00
Zn113  Zn    0.50000   0.25001   0.30307   0.00000  Uiso   1.00
Zn114  Zn    0.50000   0.25000   0.19693   0.00000  Uiso   1.00
Br115  Br    0.43649   0.11510   0.32785   0.00000  Uiso   1.00
Br116  Br    0.44173   0.38516   0.15224   0.00000  Uiso   1.00
C117   C     0.83274   0.16378   0.25022   0.00000  Uiso   1.00
C118   C     0.83282   0.33626   0.24961   0.00000  Uiso   1.00
C119   C     0.80949   0.21533   0.04968   0.00000  Uiso   1.00
C120   C     0.87516   0.26881   0.45291   0.00000  Uiso   1.00
C121   C     0.80979   0.21602   0.09934   0.00000  Uiso   1.00
C122   C     0.87428   0.26853   0.40315   0.00000  Uiso   1.00
C123   C     0.85689   0.28400   0.10515   0.00000  Uiso   1.00
C124   C     0.79238   0.23156   0.39239   0.00000  Uiso   1.00
C125   C     0.85724   0.28476   0.05555   0.00000  Uiso   1.00
C126   C     0.79154   0.23135   0.44190   0.00000  Uiso   1.00
C127   C     0.83337   0.25006   0.02669   0.00000  Uiso   1.00
C128   C     0.83336   0.25008   0.47333   0.00000  Uiso   1.00
C129   C     0.73366   0.24998   0.23753   0.00000  Uiso   1.00
C130   C     0.93301   0.24999   0.26248   0.00000  Uiso   1.00
C131   C     0.67865   0.24997   0.23080   0.00000  Uiso   1.00
C132   C     0.98802   0.24992   0.26922   0.00000  Uiso   1.00
C133   C     0.81942   0.04437   0.28597   0.00000  Uiso   1.00
C134   C     0.82171   0.45573   0.20970   0.00000  Uiso   1.00
C135   C     0.81318   0.09027   0.28506   0.00000  Uiso   1.00
C136   C     0.81549   0.40983   0.20864   0.00000  Uiso   1.00
C137   C     0.83590   0.11573   0.25135   0.00000  Uiso   1.00
C138   C     0.83608   0.38436   0.24933   0.00000  Uiso   1.00
C139   C     0.86384   0.09496   0.21887   0.00000  Uiso   1.00
C140   C     0.86200   0.40523   0.29035   0.00000  Uiso   1.00
C141   C     0.86917   0.04907   0.21968   0.00000  Uiso   1.00
C142   C     0.86727   0.45112   0.29120   0.00000  Uiso   1.00
C143   C     0.84697   0.02401   0.25323   0.00000  Uiso   1.00
C144   C     0.84710   0.47613   0.25089   0.00000  Uiso   1.00
H145   H     0.99134   0.25005   0.19435   0.00000  Uiso   1.00
H146   H     0.67533   0.24985   0.30567   0.00000  Uiso   1.00
H147   H     0.80097   0.02432   0.31086   0.00000  Uiso   1.00
H148   H     0.80483   0.47576   0.17914   0.00000  Uiso   1.00
H149   H     0.88176   0.11423   0.19303   0.00000  Uiso   1.00
H150   H     0.87836   0.38604   0.32170   0.00000  Uiso   1.00
H151   H     0.89001   0.03301   0.19400   0.00000  Uiso   1.00
H152   H     0.88646   0.46721   0.32326   0.00000  Uiso   1.00
H153   H     0.79127   0.18737   0.02967   0.00000  Uiso   1.00
H154   H     0.90881   0.28306   0.47514   0.00000  Uiso   1.00
H155   H     0.79124   0.18916   0.11643   0.00000  Uiso   1.00
H156   H     0.90660   0.28309   0.38804   0.00000  Uiso   1.00
H157   H     0.87540   0.31084   0.12682   0.00000  Uiso   1.00
H158   H     0.76000   0.21701   0.36881   0.00000  Uiso   1.00
H159   H     0.87547   0.31275   0.03999   0.00000  Uiso   1.00
H160   H     0.75788   0.21713   0.45523   0.00000  Uiso   1.00
N161   N     0.83333   0.24999   0.12623   0.00000  Uiso   1.00
N162   N     0.83333   0.25001   0.37376   0.00000  Uiso   1.00
O163   O     0.83334   0.18454   0.28974   0.00000  Uiso   1.00
O164   O     0.83333   0.31547   0.21026   0.00000  Uiso   1.00
O165   O     0.83334   0.18453   0.21026   0.00000  Uiso   1.00
O166   O     0.83333   0.31547   0.28974   0.00000  Uiso   1.00
O167   O     0.75725   0.25000   0.28044   0.00000  Uiso   1.00
O168   O     0.90942   0.25000   0.21955   0.00000  Uiso   1.00
O169   O     0.75725   0.25000   0.20096   0.00000  Uiso   1.00
O170   O     0.90942   0.25001   0.29903   0.00000  Uiso   1.00
Zn171  Zn    0.83333   0.25001   0.30307   0.00000  Uiso   1.00
Zn172  Zn    0.83333   0.25000   0.19693   0.00000  Uiso   1.00
Br173  Br    0.76982   0.11510   0.32785   0.00000  Uiso   1.00
Br174  Br    0.77506   0.38516   0.15224   0.00000  Uiso   1.00
C175   C     0.16608   0.66378   0.25022   0.00000  Uiso   1.00
C176   C     0.16616   0.83626   0.24961   0.00000  Uiso   1.00
C177   C     0.14282   0.71533   0.04968   0.00000  Uiso   1.00
C178   C     0.20849   0.76881   0.45291   0.00000  Uiso   1.00
C179   C     0.14312   0.71602   0.09934   0.00000  Uiso   1.00
C180   C     0.20762   0.76853   0.40315   0.00000  Uiso   1.00
C181   C     0.19023   0.78400   0.10515   0.00000  Uiso   1.00
C182   C     0.12571   0.73156   0.39239   0.00000  Uiso   1.00
C183   C     0.19057   0.78476   0.05555   0.00000  Uiso   1.00
C184   C     0.12487   0.73135   0.44190   0.00000  Uiso   1.00
C185   C     0.16670   0.75006   0.02669   0.00000  Uiso   1.00
C186   C     0.16669   0.75008   0.47333   0.00000  Uiso   1.00
C187   C     0.06699   0.74998   0.23753   0.00000  Uiso   1.00
C188   C     0.26634   0.74999   0.26248   0.00000  Uiso   1.00
C189   C     0.01198   0.74997   0.23080   0.00000  Uiso   1.00
C190   C     0.32136   0.74992   0.26922   0.00000  Uiso   1.00
C191   C     0.15276   0.54437   0.28597   0.00000  Uiso   1.00
C192   C     0.15504   0.95573   0.20970   0.00000  Uiso   1.00
C193   C     0.14652   0.59027   0.28506   0.00000  Uiso   1.00
C194   C     0.14882   0.90983   0.20864   0.00000  Uiso   1.00
C195   C     0.16923   0.61573   0.25135   0.00000  Uiso   1.00
C196   C     0.16941   0.88436   0.24933   0.00000  Uiso   1.00
C197   C     0.19718   0.59496   0.21887   0.00000  Uiso   1.00
C198   C     0.19534   0.90523   0.29035   0.00000  Uiso   1.00
C199   C     0.20250   0.54907   0.21968   0.00000  Uiso   1.00
C200   C     0.20060   0.95112   0.29120   0.00000  Uiso   1.00
C201   C     0.18031   0.52401   0.25323   0.00000  Uiso   1.00
C202   C     0.18044   0.97613   0.25089   0.00000  Uiso   1.00
H203   H     0.32467   0.75005   0.19435   0.00000  Uiso   1.00
H204   H     0.00866   0.74985   0.30567   0.00000  Uiso   1.00
H205   H     0.13430   0.52432   0.31086   0.00000  Uiso   1.00
H206   H     0.13817   0.97576   0.17914   0.00000  Uiso   1.00
H207   H     0.21509   0.61423   0.19303   0.00000  Uiso   1.00
H208   H     0.21170   0.88604   0.32170   0.00000  Uiso   1.00
H209   H     0.22334   0.53301   0.19400   0.00000  Uiso   1.00
H210   H     0.21980   0.96721   0.32326   0.00000  Uiso   1.00
H211   H     0.12461   0.68737   0.02967   0.00000  Uiso   1.00
H212   H     0.24214   0.78306   0.47514   0.00000  Uiso   1.00
H213   H     0.12457   0.68916   0.11643   0.00000  Uiso   1.00
H214   H     0.23994   0.78309   0.38804   0.00000  Uiso   1.00
H215   H     0.20873   0.81084   0.12682   0.00000  Uiso   1.00
H216   H     0.09334   0.71701   0.36881   0.00000  Uiso   1.00
H217   H     0.20880   0.81275   0.03999   0.00000  Uiso   1.00
H218   H     0.09122   0.71713   0.45523   0.00000  Uiso   1.00
N219   N     0.16667   0.74999   0.12623   0.00000  Uiso   1.00
N220   N     0.16667   0.75001   0.37376   0.00000  Uiso   1.00
O221   O     0.16667   0.68454   0.28974   0.00000  Uiso   1.00
O222   O     0.16666   0.81547   0.21026   0.00000  Uiso   1.00
O223   O     0.16667   0.68453   0.21026   0.00000  Uiso   1.00
O224   O     0.16666   0.81547   0.28974   0.00000  Uiso   1.00
O225   O     0.09058   0.75000   0.28044   0.00000  Uiso   1.00
O226   O     0.24275   0.75000   0.21955   0.00000  Uiso   1.00
O227   O     0.09058   0.75000   0.20096   0.00000  Uiso   1.00
O228   O     0.24275   0.75001   0.29903   0.00000  Uiso   1.00
Zn229  Zn    0.16667   0.75001   0.30307   0.00000  Uiso   1.00
Zn230  Zn    0.16667   0.75000   0.19693   0.00000  Uiso   1.00
Br231  Br    0.10315   0.61510   0.32785   0.00000  Uiso   1.00
Br232  Br    0.10840   0.88516   0.15224   0.00000  Uiso   1.00
C233   C     0.49941   0.66378   0.25022   0.00000  Uiso   1.00
C234   C     0.49949   0.83626   0.24961   0.00000  Uiso   1.00
C235   C     0.47616   0.71533   0.04968   0.00000  Uiso   1.00
C236   C     0.54182   0.76881   0.45291   0.00000  Uiso   1.00
C237   C     0.47646   0.71602   0.09934   0.00000  Uiso   1.00
C238   C     0.54095   0.76853   0.40315   0.00000  Uiso   1.00
C239   C     0.52356   0.78400   0.10515   0.00000  Uiso   1.00
C240   C     0.45905   0.73156   0.39239   0.00000  Uiso   1.00
C241   C     0.52390   0.78476   0.05555   0.00000  Uiso   1.00
C242   C     0.45821   0.73135   0.44190   0.00000  Uiso   1.00
C243   C     0.50004   0.75006   0.02669   0.00000  Uiso   1.00
C244   C     0.50003   0.75008   0.47333   0.00000  Uiso   1.00
C245   C     0.40033   0.74998   0.23753   0.00000  Uiso   1.00
C246   C     0.59967   0.74999   0.26248   0.00000  Uiso   1.00
C247   C     0.34531   0.74997   0.23080   0.00000  Uiso   1.00
C248   C     0.65469   0.74992   0.26922   0.00000  Uiso   1.00
C249   C     0.48609   0.54437   0.28597   0.00000  Uiso   1.00
C250   C     0.48838   0.95573   0.20970   0.00000  Uiso   1.00
C251   C     0.47985   0.59027   0.28506   0.00000  Uiso   1.00
C252   C     0.48215   0.90983   0.20864   0.00000  Uiso   1.00
C253   C     0.50256   0.61573   0.25135   0.00000  Uiso   1.00
C254   C     0.50274   0.88436   0.24933   0.00000  Uiso   1.00
C255   C     0.53051   0.59496   0.21887   0.00000  Uiso   1.00
C256   C     0.52867   0.90523   0.29035   0.00000  Uiso   1.00
C257   C     0.53584   0.54907   0.21968   0.00000  Uiso   1.00
C258   C     0.53394   0.95112   0.29120   0.00000  Uiso   1.00
C259   C     0.51364   0.52401   0.25323   0.00000  Uiso   1.00
C260   C     0.51377   0.97613   0.25089   0.00000  Uiso   1.00
H261   H     0.65800   0.75005   0.19435   0.00000  Uiso   1.00
H262   H     0.34199   0.74985   0.30567   0.00000  Uiso   1.00
H263   H     0.46763   0.52432   0.31086   0.00000  Uiso   1.00
H264   H     0.47150   0.97576   0.17914   0.00000  Uiso   1.00
H265   H     0.54843   0.61423   0.19303   0.00000  Uiso   1.00
H266   H     0.54503   0.88604   0.32170   0.00000  Uiso   1.00
H267   H     0.55667   0.53301   0.19400   0.00000  Uiso   1.00
H268   H     0.55313   0.96721   0.32326   0.00000  Uiso   1.00
H269   H     0.45794   0.68737   0.02967   0.00000  Uiso   1.00
H270   H     0.57547   0.78306   0.47514   0.00000  Uiso   1.00
H271   H     0.45790   0.68916   0.11643   0.00000  Uiso   1.00
H272   H     0.57327   0.78309   0.38804   0.00000  Uiso   1.00
H273   H     0.54207   0.81084   0.12682   0.00000  Uiso   1.00
H274   H     0.42667   0.71701   0.36881   0.00000  Uiso   1.00
H275   H     0.54213   0.81275   0.03999   0.00000  Uiso   1.00
H276   H     0.42455   0.71713   0.45523   0.00000  Uiso   1.00
N277   N     0.50000   0.74999   0.12623   0.00000  Uiso   1.00
N278   N     0.50000   0.75001   0.37376   0.00000  Uiso   1.00
O279   O     0.50000   0.68454   0.28974   0.00000  Uiso   1.00
O280   O     0.50000   0.81547   0.21026   0.00000  Uiso   1.00
O281   O     0.50000   0.68453   0.21026   0.00000  Uiso   1.00
O282   O     0.50000   0.81547   0.28974   0.00000  Uiso   1.00
O283   O     0.42392   0.75000   0.28044   0.00000  Uiso   1.00
O284   O     0.57608   0.75000   0.21955   0.00000  Uiso   1.00
O285   O     0.42392   0.75000   0.20096   0.00000  Uiso   1.00
O286   O     0.57608   0.75001   0.29903   0.00000  Uiso   1.00
Zn287  Zn    0.50000   0.75001   0.30307   0.00000  Uiso   1.00
Zn288  Zn    0.50000   0.75000   0.19693   0.00000  Uiso   1.00
Br289  Br    0.43649   0.61510   0.32785   0.00000  Uiso   1.00
Br290  Br    0.44173   0.88516   0.15224   0.00000  Uiso   1.00
C291   C     0.83274   0.66378   0.25022   0.00000  Uiso   1.00
C292   C     0.83282   0.83626   0.24961   0.00000  Uiso   1.00
C293   C     0.80949   0.71533   0.04968   0.00000  Uiso   1.00
C294   C     0.87516   0.76881   0.45291   0.00000  Uiso   1.00
C295   C     0.80979   0.71602   0.09934   0.00000  Uiso   1.00
C296   C     0.87428   0.76853   0.40315   0.00000  Uiso   1.00
C297   C     0.85689   0.78400   0.10515   0.00000  Uiso   1.00
C298   C     0.79238   0.73156   0.39239   0.00000  Uiso   1.00
C299   C     0.85724   0.78476   0.05555   0.00000  Uiso   1.00
C300   C     0.79154   0.73135   0.44190   0.00000  Uiso   1.00
C301   C     0.83337   0.75006   0.02669   0.00000  Uiso   1.00
C302   C     0.83336   0.75008   0.47333   0.00000  Uiso   1.00
C303   C     0.73366   0.74998   0.23753   0.00000  Uiso   1.00
C304   C     0.93301   0.74999   0.26248   0.00000  Uiso   1.00
C305   C     0.67865   0.74997   0.23080   0.00000  Uiso   1.00
C306   C     0.98802   0.74992   0.26922   0.00000  Uiso   1.00
C307   C     0.81942   0.54437   0.28597   0.00000  Uiso   1.00
C308   C     0.82171   0.95573   0.20970   0.00000  Uiso   1.00
C309   C     0.81318   0.59027   0.28506   0.00000  Uiso   1.00
C310   C     0.81549   0.90983   0.20864   0.00000  Uiso   1.00
C311   C     0.83590   0.61573   0.25135   0.00000  Uiso   1.00
C312   C     0.83608   0.88436   0.24933   0.00000  Uiso   1.00
C313   C     0.86384   0.59496   0.21887   0.00000  Uiso   1.00
C314   C     0.86200   0.90523   0.29035   0.00000  Uiso   1.00
C315   C     0.86917   0.54907   0.21968   0.00000  Uiso   1.00
C316   C     0.86727   0.95112   0.29120   0.00000  Uiso   1.00
C317   C     0.84697   0.52401   0.25323   0.00000  Uiso   1.00
C318   C     0.84710   0.97613   0.25089   0.00000  Uiso   1.00
H319   H     0.99134   0.75005   0.19435   0.00000  Uiso   1.00
H320   H     0.67533   0.74985   0.30567   0.00000  Uiso   1.00
H321   H     0.80097   0.52432   0.31086   0.00000  Uiso   1.00
H322   H     0.80483   0.97576   0.17914   0.00000  Uiso   1.00
H323   H     0.88176   0.61423   0.19303   0.00000  Uiso   1.00
H324   H     0.87836   0.88604   0.32170   0.00000  Uiso   1.00
H325   H     0.89001   0.53301   0.19400   0.00000  Uiso   1.00
H326   H     0.88646   0.96721   0.32326   0.00000  Uiso   1.00
H327   H     0.79127   0.68737   0.02967   0.00000  Uiso   1.00
H328   H     0.90881   0.78306   0.47514   0.00000  Uiso   1.00
H329   H     0.79124   0.68916   0.11643   0.00000  Uiso   1.00
H330   H     0.90660   0.78309   0.38804   0.00000  Uiso   1.00
H331   H     0.87540   0.81084   0.12682   0.00000  Uiso   1.00
H332   H     0.76000   0.71701   0.36881   0.00000  Uiso   1.00
H333   H     0.87547   0.81275   0.03999   0.00000  Uiso   1.00
H334   H     0.75788   0.71713   0.45523   0.00000  Uiso   1.00
N335   N     0.83333   0.74999   0.12623   0.00000  Uiso   1.00
N336   N     0.83333   0.75001   0.37376   0.00000  Uiso   1.00
O337   O     0.83334   0.68454   0.28974   0.00000  Uiso   1.00
O338   O     0.83333   0.81547   0.21026   0.00000  Uiso   1.00
O339   O     0.83334   0.68453   0.21026   0.00000  Uiso   1.00
O340   O     0.83333   0.81547   0.28974   0.00000  Uiso   1.00
O341   O     0.75725   0.75000   0.28044   0.00000  Uiso   1.00
O342   O     0.90942   0.75000   0.21955   0.00000  Uiso   1.00
O343   O     0.75725   0.75000   0.20096   0.00000  Uiso   1.00
O344   O     0.90942   0.75001   0.29903   0.00000  Uiso   1.00
Zn345  Zn    0.83333   0.75001   0.30307   0.00000  Uiso   1.00
Zn346  Zn    0.83333   0.75000   0.19693   0.00000  Uiso   1.00
Br347  Br    0.76982   0.61510   0.32785   0.00000  Uiso   1.00
Br348  Br    0.77506   0.88516   0.15224   0.00000  Uiso   1.00
C349   C     0.16608   0.16378   0.75022   0.00000  Uiso   1.00
C350   C     0.16616   0.33626   0.74961   0.00000  Uiso   1.00
C351   C     0.14282   0.21533   0.54968   0.00000  Uiso   1.00
C352   C     0.20849   0.26881   0.95291   0.00000  Uiso   1.00
C353   C     0.14312   0.21602   0.59934   0.00000  Uiso   1.00
C354   C     0.20762   0.26853   0.90315   0.00000  Uiso   1.00
C355   C     0.19023   0.28400   0.60515   0.00000  Uiso   1.00
C356   C     0.12571   0.23156   0.89239   0.00000  Uiso   1.00
C357   C     0.19057   0.28476   0.55555   0.00000  Uiso   1.00
C358   C     0.12487   0.23135   0.94190   0.00000  Uiso   1.00
C359   C     0.16670   0.25006   0.52669   0.00000  Uiso   1.00
C360   C     0.16669   0.25008   0.97333   0.00000  Uiso   1.00
C361   C     0.06699   0.24998   0.73753   0.00000  Uiso   1.00
C362   C     0.26634   0.24999   0.76248   0.00000  Uiso   1.00
C363   C     0.01198   0.24997   0.73080   0.00000  Uiso   1.00
C364   C     0.32136   0.24992   0.76922   0.00000  Uiso   1.00
C365   C     0.15276   0.04437   0.78597   0.00000  Uiso   1.00
C366   C     0.15504   0.45573   0.70970   0.00000  Uiso   1.00
C367   C     0.14652   0.09027   0.78506   0.00000  Uiso   1.00
C368   C     0.14882   0.40983   0.70864   0.00000  Uiso   1.00
C369   C     0.16923   0.11573   0.75135   0.00000  Uiso   1.00
C370   C     0.16941   0.38436   0.74933   0.00000  Uiso   1.00
C371   C     0.19718   0.09496   0.71887   0.00000  Uiso   1.00
C372   C     0.19534   0.40523   0.79035   0.00000  Uiso   1.00
C373   C     0.20250   0.04907   0.71968   0.00000  Uiso   1.00
C374   C     0.20060   0.45112   0.79120   0.00000  Uiso   1.00
C375   C     0.18031   0.02401   0.75323   0.00000  Uiso   1.00
C376   C     0.18044   0.47613   0.75089   0.00000  Uiso   1.00
H377   H     0.32467   0.25005   0.69435   0.00000  Uiso   1.00
H378   H     0.00866   0.24985   0.80567   0.00000  Uiso   1.00
H379   H     0.13430   0.02432   0.81086   0.00000  Uiso   1.00
H380   H     0.13817   0.47576   0.67914   0.00000  Uiso   1.00
H381   H     0.21509   0.11423   0.69303   0.00000  Uiso   1.00
H382   H     0.21170   0.38604   0.82170   0.00000  Uiso   1.00
H383   H     0.22334   0.03301   0.69400   0.00000  Uiso   1.00
H384   H     0.21980   0.46721   0.82326   0.00000  Uiso   1.00
H385   H     0.12461   0.18737   0.52967   0.00000  Uiso   1.00
H386   H     0.24214   0.28306   0.97514   0.00000  Uiso   1.00
H387   H     0.12457   0.18916   0.61643   0.00000  Uiso   1.00
H388   H     0.23994   0.28309   0.88804   0.00000  Uiso   1.00
H389   H     0.20873   0.31084   0.62682   0.00000  Uiso   1.00
H390   H     0.09334   0.21701   0.86881   0.00000  Uiso   1.00
H391   H     0.20880   0.31275   0.53999   0.00000  Uiso   1.00
H392   H     0.09122   0.21713   0.95523   0.00000  Uiso   1.00
N393   N     0.16667   0.24999   0.62623   0.00000  Uiso   1.00
N394   N     0.16667   0.25001   0.87376   0.00000  Uiso   1.00
O395   O     0.16667   0.18454   0.78974   0.00000  Uiso   1.00
O396   O     0.16666   0.31547   0.71026   0.00000  Uiso   1.00
O397   O     0.16667   0.18453   0.71026   0.00000  Uiso   1.00
O398   O     0.16666   0.31547   0.78974   0.00000  Uiso   1.00
O399   O     0.09058   0.25000   0.78044   0.00000  Uiso   1.00
O400   O     0.24275   0.25000   0.71955   0.00000  Uiso   1.00
O401   O     0.09058   0.25000   0.70096   0.00000  Uiso   1.00
O402   O     0.24275   0.25001   0.79903   0.00000  Uiso   1.00
Zn403  Zn    0.16667   0.25001   0.80307   0.00000  Uiso   1.00
Zn404  Zn    0.16667   0.25000   0.69693   0.00000  Uiso   1.00
Br405  Br    0.10315   0.11510   0.82785   0.00000  Uiso   1.00
Br406  Br    0.10840   0.38516   0.65224   0.00000  Uiso   1.00
C407   C     0.49941   0.16378   0.75022   0.00000  Uiso   1.00
C408   C     0.49949   0.33626   0.74961   0.00000  Uiso   1.00
C409   C     0.47616   0.21533   0.54968   0.00000  Uiso   1.00
C410   C     0.54182   0.26881   0.95291   0.00000  Uiso   1.00
C411   C     0.47646   0.21602   0.59934   0.00000  Uiso   1.00
C412   C     0.54095   0.26853   0.90315   0.00000  Uiso   1.00
C413   C     0.52356   0.28400   0.60515   0.00000  Uiso   1.00
C414   C     0.45905   0.23156   0.89239   0.00000  Uiso   1.00
C415   C     0.52390   0.28476   0.55555   0.00000  Uiso   1.00
C416   C     0.45821   0.23135   0.94190   0.00000  Uiso   1.00
C417   C     0.50004   0.25006   0.52669   0.00000  Uiso   1.00
C418   C     0.50003   0.25008   0.97333   0.00000  Uiso   1.00
C419   C     0.40033   0.24998   0.73753   0.00000  Uiso   1.00
C420   C     0.59967   0.24999   0.76248   0.00000  Uiso   1.00
C421   C     0.34531   0.24997   0.73080   0.00000  Uiso   1.00
C422   C     0.65469   0.24992   0.76922   0.00000  Uiso   1.00
C423   C     0.48609   0.04437   0.78597   0.00000  Uiso   1.00
C424   C     0.48838   0.45573   0.70970   0.00000  Uiso   1.00
C425   C     0.47985   0.09027   0.78506   0.00000  Uiso   1.00
C426   C     0.48215   0.40983   0.70864   0.00000  Uiso   1.00
C427   C     0.50256   0.11573   0.75135   0.00000  Uiso   1.00
C428   C     0.50274   0.38436   0.74933   0.00000  Uiso   1.00
C429   C     0.53051   0.09496   0.71887   0.00000  Uiso   1.00
C430   C     0.52867   0.40523   0.79035   0.00000  Uiso   1.00
C431   C     0.53584   0.04907   0.71968   0.00000  Uiso   1.00
C432   C     0.53394   0.45112   0.79120   0.00000  Uiso   1.00
C433   C     0.51364   0.02401   0.75323   0.00000  Uiso   1.00
C434   C     0.51377   0.47613   0.75089   0.00000  Uiso   1.00
H435   H     0.65800   0.25005   0.69435   0.00000  Uiso   1.00
H436   H     0.34199   0.24985   0.80567   0.00000  Uiso   1.00
H437   H     0.46763   0.02432   0.81086   0.00000  Uiso   1.00
H438   H     0.47150   0.47576   0.67914   0.00000  Uiso   1.00
H439   H     0.54843   0.11423   0.69303   0.00000  Uiso   1.00
H440   H     0.54503   0.38604   0.82170   0.00000  Uiso   1.00
H441   H     0.55667   0.03301   0.69400   0.00000  Uiso   1.00
H442   H     0.55313   0.46721   0.82326   0.00000  Uiso   1.00
H443   H     0.45794   0.18737   0.52967   0.00000  Uiso   1.00
H444   H     0.57547   0.28306   0.97514   0.00000  Uiso   1.00
H445   H     0.45790   0.18916   0.61643   0.00000  Uiso   1.00
H446   H     0.57327   0.28309   0.88804   0.00000  Uiso   1.00
H447   H     0.54207   0.31084   0.62682   0.00000  Uiso   1.00
H448   H     0.42667   0.21701   0.86881   0.00000  Uiso   1.00
H449   H     0.54213   0.31275   0.53999   0.00000  Uiso   1.00
H450   H     0.42455   0.21713   0.95523   0.00000  Uiso   1.00
N451   N     0.50000   0.24999   0.62623   0.00000  Uiso   1.00
N452   N     0.50000   0.25001   0.87376   0.00000  Uiso   1.00
O453   O     0.50000   0.18454   0.78974   0.00000  Uiso   1.00
O454   O     0.50000   0.31547   0.71026   0.00000  Uiso   1.00
O455   O     0.50000   0.18453   0.71026   0.00000  Uiso   1.00
O456   O     0.50000   0.31547   0.78974   0.00000  Uiso   1.00
O457   O     0.42392   0.25000   0.78044   0.00000  Uiso   1.00
O458   O     0.57608   0.25000   0.71955   0.00000  Uiso   1.00
O459   O     0.42392   0.25000   0.70096   0.00000  Uiso   1.00
O460   O     0.57608   0.25001   0.79903   0.00000  Uiso   1.00
Zn461  Zn    0.50000   0.25001   0.80307   0.00000  Uiso   1.00
Zn462  Zn    0.50000   0.25000   0.69693   0.00000  Uiso   1.00
Br463  Br    0.43649   0.11510   0.82785   0.00000  Uiso   1.00
Br464  Br    0.44173   0.38516   0.65224   0.00000  Uiso   1.00
C465   C     0.83274   0.16378   0.75022   0.00000  Uiso   1.00
C466   C     0.83282   0.33626   0.74961   0.00000  Uiso   1.00
C467   C     0.80949   0.21533   0.54968   0.00000  Uiso   1.00
C468   C     0.87516   0.26881   0.95291   0.00000  Uiso   1.00
C469   C     0.80979   0.21602   0.59934   0.00000  Uiso   1.00
C470   C     0.87428   0.26853   0.90315   0.00000  Uiso   1.00
C471   C     0.85689   0.28400   0.60515   0.00000  Uiso   1.00
C472   C     0.79238   0.23156   0.89239   0.00000  Uiso   1.00
C473   C     0.85724   0.28476   0.55555   0.00000  Uiso   1.00
C474   C     0.79154   0.23135   0.94190   0.00000  Uiso   1.00
C475   C     0.83337   0.25006   0.52669   0.00000  Uiso   1.00
C476   C     0.83336   0.25008   0.97333   0.00000  Uiso   1.00
C477   C     0.73366   0.24998   0.73753   0.00000  Uiso   1.00
C478   C     0.93301   0.24999   0.76248   0.00000  Uiso   1.00
C479   C     0.67865   0.24997   0.73080   0.00000  Uiso   1.00
C480   C     0.98802   0.24992   0.76922   0.00000  Uiso   1.00
C481   C     0.81942   0.04437   0.78597   0.00000  Uiso   1.00
C482   C     0.82171   0.45573   0.70970   0.00000  Uiso   1.00
C483   C     0.81318   0.09027   0.78506   0.00000  Uiso   1.00
C484   C     0.81549   0.40983   0.70864   0.00000  Uiso   1.00
C485   C     0.83590   0.11573   0.75135   0.00000  Uiso   1.00
C486   C     0.83608   0.38436   0.74933   0.00000  Uiso   1.00
C487   C     0.86384   0.09496   0.71887   0.00000  Uiso   1.00
C488   C     0.86200   0.40523   0.79035   0.00000  Uiso   1.00
C489   C     0.86917   0.04907   0.71968   0.00000  Uiso   1.00
C490   C     0.86727   0.45112   0.79120   0.00000  Uiso   1.00
C491   C     0.84697   0.02401   0.75323   0.00000  Uiso   1.00
C492   C     0.84710   0.47613   0.75089   0.00000  Uiso   1.00
H493   H     0.99134   0.25005   0.69435   0.00000  Uiso   1.00
H494   H     0.67533   0.24985   0.80567   0.00000  Uiso   1.00
H495   H     0.80097   0.02432   0.81086   0.00000  Uiso   1.00
H496   H     0.80483   0.47576   0.67914   0.00000  Uiso   1.00
H497   H     0.88176   0.11423   0.69303   0.00000  Uiso   1.00
H498   H     0.87836   0.38604   0.82170   0.00000  Uiso   1.00
H499   H     0.89001   0.03301   0.69400   0.00000  Uiso   1.00
H500   H     0.88646   0.46721   0.82326   0.00000  Uiso   1.00
H501   H     0.79127   0.18737   0.52967   0.00000  Uiso   1.00
H502   H     0.90881   0.28306   0.97514   0.00000  Uiso   1.00
H503   H     0.79124   0.18916   0.61643   0.00000  Uiso   1.00
H504   H     0.90660   0.28309   0.88804   0.00000  Uiso   1.00
H505   H     0.87540   0.31084   0.62682   0.00000  Uiso   1.00
H506   H     0.76000   0.21701   0.86881   0.00000  Uiso   1.00
H507   H     0.87547   0.31275   0.53999   0.00000  Uiso   1.00
H508   H     0.75788   0.21713   0.95523   0.00000  Uiso   1.00
N509   N     0.83333   0.24999   0.62623   0.00000  Uiso   1.00
N510   N     0.83333   0.25001   0.87376   0.00000  Uiso   1.00
O511   O     0.83334   0.18454   0.78974   0.00000  Uiso   1.00
O512   O     0.83333   0.31547   0.71026   0.00000  Uiso   1.00
O513   O     0.83334   0.18453   0.71026   0.00000  Uiso   1.00
O514   O     0.83333   0.31547   0.78974   0.00000  Uiso   1.00
O515   O     0.75725   0.25000   0.78044   0.00000  Uiso   1.00
O516   O     0.90942   0.25000   0.71955   0.00000  Uiso   1.00
O517   O     0.75725   0.25000   0.70096   0.00000  Uiso   1.00
O518   O     0.90942   0.25001   0.79903   0.00000  Uiso   1.00
Zn519  Zn    0.83333   0.25001   0.80307   0.00000  Uiso   1.00
Zn520  Zn    0.83333   0.25000   0.69693   0.00000  Uiso   1.00
Br521  Br    0.76982   0.11510   0.82785   0.00000  Uiso   1.00
Br522  Br    0.77506   0.38516   0.65224   0.00000  Uiso   1.00
C523   C     0.16608   0.66378   0.75022   0.00000  Uiso   1.00
C524   C     0.16616   0.83626   0.74961   0.00000  Uiso   1.00
C525   C     0.14282   0.71533   0.54968   0.00000  Uiso   1.00
C526   C     0.20849   0.76881   0.95291   0.00000  Uiso   1.00
C527   C     0.14312   0.71602   0.59934   0.00000  Uiso   1.00
C528   C     0.20762   0.76853   0.90315   0.00000  Uiso   1.00
C529   C     0.19023   0.78400   0.60515   0.00000  Uiso   1.00
C530   C     0.12571   0.73156   0.89239   0.00000  Uiso   1.00
C531   C     0.19057   0.78476   0.55555   0.00000  Uiso   1.00
C532   C     0.12487   0.73135   0.94190   0.00000  Uiso   1.00
C533   C     0.16670   0.75006   0.52669   0.00000  Uiso   1.00
C534   C     0.16669   0.75008   0.97333   0.00000  Uiso   1.00
C535   C     0.06699   0.74998   0.73753   0.00000  Uiso   1.00
C536   C     0.26634   0.74999   0.76248   0.00000  Uiso   1.00
C537   C     0.01198   0.74997   0.73080   0.00000  Uiso   1.00
C538   C     0.32136   0.74992   0.76922   0.00000  Uiso   1.00
C539   C     0.15276   0.54437   0.78597   0.00000  Uiso   1.00
C540   C     0.15504   0.95573   0.70970   0.00000  Uiso   1.00
C541   C     0.14652   0.59027   0.78506   0.00000  Uiso   1.00
C542   C     0.14882   0.90983   0.70864   0.00000  Uiso   1.00
C543   C     0.16923   0.61573   0.75135   0.00000  Uiso   1.00
C544   C     0.16941   0.88436   0.74933   0.00000  Uiso   1.00
C545   C     0.19718   0.59496   0.71887   0.00000  Uiso   1.00
C546   C     0.19534   0.90523   0.79035   0.00000  Uiso   1.00
C547   C     0.20250   0.54907   0.71968   0.00000  Uiso   1.00
C548   C     0.20060   0.95112   0.79120   0.00000  Uiso   1.00
C549   C     0.18031   0.52401   0.75323   0.00000  Uiso   1.00
C550   C     0.18044   0.97613   0.75089   0.00000  Uiso   1.00
H551   H     0.32467   0.75005   0.69435   0.00000  Uiso   1.00
H552   H     0.00866   0.74985   0.80567   0.00000  Uiso   1.00
H553   H     0.13430   0.52432   0.81086   0.00000  Uiso   1.00
H554   H     0.13817   0.97576   0.67914   0.00000  Uiso   1.00
H555   H     0.21509   0.61423   0.69303   0.00000  Uiso   1.00
H556   H     0.21170   0.88604   0.82170   0.00000  Uiso   1.00
H557   H     0.22334   0.53301   0.69400   0.00000  Uiso   1.00
H558   H     0.21980   0.96721   0.82326   0.00000  Uiso   1.00
H559   H     0.12461   0.68737   0.52967   0.00000  Uiso   1.00
H560   H     0.24214   0.78306   0.97514   0.00000  Uiso   1.00
H561   H     0.12457   0.68916   0.61643   0.00000  Uiso   1.00
H562   H     0.23994   0.78309   0.88804   0.00000  Uiso   1.00
H563   H     0.20873   0.81084   0.62682   0.00000  Uiso   1.00
H564   H     0.09334   0.71701   0.86881   0.00000  Uiso   1.00
H565   H     0.20880   0.81275   0.53999   0.00000  Uiso   1.00
H566   H     0.09122   0.71713   0.95523   0.00000  Uiso   1.00
N567   N     0.16667   0.74999   0.62623   0.00000  Uiso   1.00
N568   N     0.16667   0.75001   0.87376   0.00000  Uiso   1.00
O569   O     0.16667   0.68454   0.78974   0.00000  Uiso   1.00
O570   O     0.16666   0.81547   0.71026   0.00000  Uiso   1.00
O571   O     0.16667   0.68453   0.71026   0.00000  Uiso   1.00
O572   O     0.16666   0.81547   0.78974   0.00000  Uiso   1.00
O573   O     0.09058   0.75000   0.78044   0.00000  Uiso   1.00
O574   O     0.24275   0.75000   0.71955   0.00000  Uiso   1.00
O575   O     0.09058   0.75000   0.70096   0.00000  Uiso   1.00
O576   O     0.24275   0.75001   0.79903   0.00000  Uiso   1.00
Zn577  Zn    0.16667   0.75001   0.80307   0.00000  Uiso   1.00
Zn578  Zn    0.16667   0.75000   0.69693   0.00000  Uiso   1.00
Br579  Br    0.10315   0.61510   0.82785   0.00000  Uiso   1.00
Br580  Br    0.10840   0.88516   0.65224   0.00000  Uiso   1.00
C581   C     0.49941   0.66378   0.75022   0.00000  Uiso   1.00
C582   C     0.49949   0.83626   0.74961   0.00000  Uiso   1.00
C583   C     0.47616   0.71533   0.54968   0.00000  Uiso   1.00
C584   C     0.54182   0.76881   0.95291   0.00000  Uiso   1.00
C585   C     0.47646   0.71602   0.59934   0.00000  Uiso   1.00
C586   C     0.54095   0.76853   0.90315   0.00000  Uiso   1.00
C587   C     0.52356   0.78400   0.60515   0.00000  Uiso   1.00
C588   C     0.45905   0.73156   0.89239   0.00000  Uiso   1.00
C589   C     0.52390   0.78476   0.55555   0.00000  Uiso   1.00
C590   C     0.45821   0.73135   0.94190   0.00000  Uiso   1.00
C591   C     0.50004   0.75006   0.52669   0.00000  Uiso   1.00
C592   C     0.50003   0.75008   0.97333   0.00000  Uiso   1.00
C593   C     0.40033   0.74998   0.73753   0.00000  Uiso   1.00
C594   C     0.59967   0.74999   0.76248   0.00000  Uiso   1.00
C595   C     0.34531   0.74997   0.73080   0.00000  Uiso   1.00
C596   C     0.65469   0.74992   0.76922   0.00000  Uiso   1.00
C597   C     0.48609   0.54437   0.78597   0.00000  Uiso   1.00
C598   C     0.48838   0.95573   0.70970   0.00000  Uiso   1.00
C599   C     0.47985   0.59027   0.78506   0.00000  Uiso   1.00
C600   C     0.48215   0.90983   0.70864   0.00000  Uiso   1.00
C601   C     0.50256   0.61573   0.75135   0.00000  Uiso   1.00
C602   C     0.50274   0.88436   0.74933   0.00000  Uiso   1.00
C603   C     0.53051   0.59496   0.71887   0.00000  Uiso   1.00
C604   C     0.52867   0.90523   0.79035   0.00000  Uiso   1.00
C605   C     0.53584   0.54907   0.71968   0.00000  Uiso   1.00
C606   C     0.53394   0.95112   0.79120   0.00000  Uiso   1.00
C607   C     0.51364   0.52401   0.75323   0.00000  Uiso   1.00
C608   C     0.51377   0.97613   0.75089   0.00000  Uiso   1.00
H609   H     0.65800   0.75005   0.69435   0.00000  Uiso   1.00
H610   H     0.34199   0.74985   0.80567   0.00000  Uiso   1.00
H611   H     0.46763   0.52432   0.81086   0.00000  Uiso   1.00
H612   H     0.47150   0.97576   0.67914   0.00000  Uiso   1.00
H613   H     0.54843   0.61423   0.69303   0.00000  Uiso   1.00
H614   H     0.54503   0.88604   0.82170   0.00000  Uiso   1.00
H615   H     0.55667   0.53301   0.69400   0.00000  Uiso   1.00
H616   H     0.55313   0.96721   0.82326   0.00000  Uiso   1.00
H617   H     0.45794   0.68737   0.52967   0.00000  Uiso   1.00
H618   H     0.57547   0.78306   0.97514   0.00000  Uiso   1.00
H619   H     0.45790   0.68916   0.61643   0.00000  Uiso   1.00
H620   H     0.57327   0.78309   0.88804   0.00000  Uiso   1.00
H621   H     0.54207   0.81084   0.62682   0.00000  Uiso   1.00
H622   H     0.42667   0.71701   0.86881   0.00000  Uiso   1.00
H623   H     0.54213   0.81275   0.53999   0.00000  Uiso   1.00
H624   H     0.42455   0.71713   0.95523   0.00000  Uiso   1.00
N625   N     0.50000   0.74999   0.62623   0.00000  Uiso   1.00
N626   N     0.50000   0.75001   0.87376   0.00000  Uiso   1.00
O627   O     0.50000   0.68454   0.78974   0.00000  Uiso   1.00
O628   O     0.50000   0.81547   0.71026   0.00000  Uiso   1.00
O629   O     0.50000   0.68453   0.71026   0.00000  Uiso   1.00
O630   O     0.50000   0.81547   0.78974   0.00000  Uiso   1.00
O631   O     0.42392   0.75000   0.78044   0.00000  Uiso   1.00
O632   O     0.57608   0.75000   0.71955   0.00000  Uiso   1.00
O633   O     0.42392   0.75000   0.70096   0.00000  Uiso   1.00
O634   O     0.57608   0.75001   0.79903   0.00000  Uiso   1.00
Zn635  Zn    0.50000   0.75001   0.80307   0.00000  Uiso   1.00
Zn636  Zn    0.50000   0.75000   0.69693   0.00000  Uiso   1.00
Br637  Br    0.43649   0.61510   0.82785   0.00000  Uiso   1.00
Br638  Br    0.44173   0.88516   0.65224   0.00000  Uiso   1.00
C639   C     0.83274   0.66378   0.75022   0.00000  Uiso   1.00
C640   C     0.83282   0.83626   0.74961   0.00000  Uiso   1.00
C641   C     0.80949   0.71533   0.54968   0.00000  Uiso   1.00
C642   C     0.87516   0.76881   0.95291   0.00000  Uiso   1.00
C643   C     0.80979   0.71602   0.59934   0.00000  Uiso   1.00
C644   C     0.87428   0.76853   0.90315   0.00000  Uiso   1.00
C645   C     0.85689   0.78400   0.60515   0.00000  Uiso   1.00
C646   C     0.79238   0.73156   0.89239   0.00000  Uiso   1.00
C647   C     0.85724   0.78476   0.55555   0.00000  Uiso   1.00
C648   C     0.79154   0.73135   0.94190   0.00000  Uiso   1.00
C649   C     0.83337   0.75006   0.52669   0.00000  Uiso   1.00
C650   C     0.83336   0.75008   0.97333   0.00000  Uiso   1.00
C651   C     0.73366   0.74998   0.73753   0.00000  Uiso   1.00
C652   C     0.93301   0.74999   0.76248   0.00000  Uiso   1.00
C653   C     0.67865   0.74997   0.73080   0.00000  Uiso   1.00
C654   C     0.98802   0.74992   0.76922   0.00000  Uiso   1.00
C655   C     0.81942   0.54437   0.78597   0.00000  Uiso   1.00
C656   C     0.82171   0.95573   0.70970   0.00000  Uiso   1.00
C657   C     0.81318   0.59027   0.78506   0.00000  Uiso   1.00
C658   C     0.81549   0.90983   0.70864   0.00000  Uiso   1.00
C659   C     0.83590   0.61573   0.75135   0.00000  Uiso   1.00
C660   C     0.83608   0.88436   0.74933   0.00000  Uiso   1.00
C661   C     0.86384   0.59496   0.71887   0.00000  Uiso   1.00
C662   C     0.86200   0.90523   0.79035   0.00000  Uiso   1.00
C663   C     0.86917   0.54907   0.71968   0.00000  Uiso   1.00
C664   C     0.86727   0.95112   0.79120   0.00000  Uiso   1.00
C665   C     0.84697   0.52401   0.75323   0.00000  Uiso   1.00
C666   C     0.84710   0.97613   0.75089   0.00000  Uiso   1.00
H667   H     0.99134   0.75005   0.69435   0.00000  Uiso   1.00
H668   H     0.67533   0.74985   0.80567   0.00000  Uiso   1.00
H669   H     0.80097   0.52432   0.81086   0.00000  Uiso   1.00
H670   H     0.80483   0.97576   0.67914   0.00000  Uiso   1.00
H671   H     0.88176   0.61423   0.69303   0.00000  Uiso   1.00
H672   H     0.87836   0.88604   0.82170   0.00000  Uiso   1.00
H673   H     0.89001   0.53301   0.69400   0.00000  Uiso   1.00
H674   H     0.88646   0.96721   0.82326   0.00000  Uiso   1.00
H675   H     0.79127   0.68737   0.52967   0.00000  Uiso   1.00
H676   H     0.90881   0.78306   0.97514   0.00000  Uiso   1.00
H677   H     0.79124   0.68916   0.61643   0.00000  Uiso   1.00
H678   H     0.90660   0.78309   0.88804   0.00000  Uiso   1.00
H679   H     0.87540   0.81084   0.62682   0.00000  Uiso   1.00
H680   H     0.76000   0.71701   0.86881   0.00000  Uiso   1.00
H681   H     0.87547   0.81275   0.53999   0.00000  Uiso   1.00
H682   H     0.75788   0.71713   0.95523   0.00000  Uiso   1.00
N683   N     0.83333   0.74999   0.62623   0.00000  Uiso   1.00
N684   N     0.83333   0.75001   0.87376   0.00000  Uiso   1.00
O685   O     0.83334   0.68454   0.78974   0.00000  Uiso   1.00
O686   O     0.83333   0.81547   0.71026   0.00000  Uiso   1.00
O687   O     0.83334   0.68453   0.71026   0.00000  Uiso   1.00
O688   O     0.83333   0.81547   0.78974   0.00000  Uiso   1.00
O689   O     0.75725   0.75000   0.78044   0.00000  Uiso   1.00
O690   O     0.90942   0.75000   0.71955   0.00000  Uiso   1.00
O691   O     0.75725   0.75000   0.70096   0.00000  Uiso   1.00
O692   O     0.90942   0.75001   0.79903   0.00000  Uiso   1.00
Zn693  Zn    0.83333   0.75001   0.80307   0.00000  Uiso   1.00
Zn694  Zn    0.83333   0.75000   0.69693   0.00000  Uiso   1.00
Br695  Br    0.76982   0.61510   0.82785   0.00000  Uiso   1.00
Br696  Br    0.77506   0.88516   0.65224   0.00000  Uiso   1.00
loop_
_geom_bond_atom_site_label_1
_geom_bond_atom_site_label_2
_geom_bond_distance
_geom_bond_site_symmetry_2
_ccdc_geom_bond_type
C1     C21     1.440   .     S
C1     O47     1.284   .     A
C1     O49     1.288   .     A
C2     C22     1.442   .     S
C2     O50     1.289   .     A
C2     O48     1.284   .     A
C3     C5      1.406   .     A
C3     C11     1.410   .     A
C3     H37     1.082   .     S
C4     H38     1.082   .     S
C4     C6      1.407   .     A
C4     C12     1.410   .     A
C5     H39     1.082   .     S
C5     N45     1.363   .     A
C6     N46     1.363   .     A
C6     H40     1.082   .     S
C7     N45     1.363   .     A
C7     C9      1.407   .     A
C7     H41     1.082   .     S
C8     H42     1.081   .     S
C8     N46     1.363   .     A
C8     C10     1.406   .     A
C9     C11     1.410   .     A
C9     H43     1.082   .     S
C10    C12     1.410   .     A
C10    H44     1.082   .     S
C11    C360    1.512   1_554 S
C12    C359    1.512   .     S
C13    C15     1.402   .     S
C13    O53     1.278   .     A
C13    O51     1.275   .     A
C14    O52     1.275   .     A
C14    O54     1.278   .     A
C14    C16     1.402   .     S
C15    C132    1.330   1_455 S
C15    H145    1.088   1_455 S
C16    C73     1.330   .     S
C16    H88     1.088   .     S
C17    H31     1.084   .     S
C17    C27     1.395   .     A
C17    C19     1.383   .     A
C18    H32     1.084   .     S
C18    C28     1.395   .     A
C18    C20     1.383   .     A
C19    Br57    1.924   .     S
C19    C21     1.410   .     A
C20    C22     1.411   .     A
C20    Br58    1.925   .     S
C21    C23     1.402   .     A
C22    C24     1.402   .     A
C23    C25     1.380   .     A
C23    H33     1.084   .     S
C24    H34     1.084   .     S
C24    C26     1.380   .     A
C25    C27     1.393   .     A
C25    H35     1.084   .     S
C26    C28     1.393   .     A
C26    H36     1.084   .     S
C27    C202    1.436   1_545 S
C28    C201    1.436   .     S
H29    C73     1.088   .     S
H30    C132    1.088   1_455 S
N45    Zn56    2.003   .     S
N46    Zn55    2.003   .     S
O47    Zn55    2.000   .     S
O48    Zn56    2.000   .     S
O49    Zn56    1.992   .     S
O50    Zn55    1.992   .     S
O51    Zn55    1.969   .     S
O52    Zn56    1.969   .     S
O53    Zn56    1.982   .     S
O54    Zn55    1.982   .     S
C59    C79     1.440   .     S
C59    O105    1.284   .     A
C59    O107    1.288   .     A
C60    C80     1.442   .     S
C60    O108    1.289   .     A
C60    O106    1.284   .     A
C61    C63     1.406   .     A
C61    C69     1.410   .     A
C61    H95     1.082   .     S
C62    H96     1.082   .     S
C62    C64     1.407   .     A
C62    C70     1.410   .     A
C63    H97     1.082   .     S
C63    N103    1.363   .     A
C64    N104    1.363   .     A
C64    H98     1.082   .     S
C65    N103    1.363   .     A
C65    C67     1.407   .     A
C65    H99     1.082   .     S
C66    H100    1.081   .     S
C66    N104    1.363   .     A
C66    C68     1.406   .     A
C67    C69     1.410   .     A
C67    H101    1.082   .     S
C68    C70     1.410   .     A
C68    H102    1.082   .     S
C69    C418    1.512   1_554 S
C70    C417    1.512   .     S
C71    C73     1.402   .     S
C71    O111    1.278   .     A
C71    O109    1.275   .     A
C72    O110    1.275   .     A
C72    O112    1.278   .     A
C72    C74     1.402   .     S
C74    C131    1.330   .     S
C74    H146    1.088   .     S
C75    H89     1.084   .     S
C75    C85     1.395   .     A
C75    C77     1.383   .     A
C76    H90     1.084   .     S
C76    C86     1.395   .     A
C76    C78     1.383   .     A
C77    Br115   1.924   .     S
C77    C79     1.410   .     A
C78    C80     1.411   .     A
C78    Br116   1.925   .     S
C79    C81     1.402   .     A
C80    C82     1.402   .     A
C81    C83     1.380   .     A
C81    H91     1.084   .     S
C82    H92     1.084   .     S
C82    C84     1.380   .     A
C83    C85     1.393   .     A
C83    H93     1.084   .     S
C84    C86     1.393   .     A
C84    H94     1.084   .     S
C85    C260    1.436   1_545 S
C86    C259    1.436   .     S
H87    C131    1.088   .     S
N103   Zn114   2.003   .     S
N104   Zn113   2.003   .     S
O105   Zn113   2.000   .     S
O106   Zn114   2.000   .     S
O107   Zn114   1.992   .     S
O108   Zn113   1.992   .     S
O109   Zn113   1.969   .     S
O110   Zn114   1.969   .     S
O111   Zn114   1.982   .     S
O112   Zn113   1.982   .     S
C117   C137    1.440   .     S
C117   O163    1.284   .     A
C117   O165    1.288   .     A
C118   C138    1.442   .     S
C118   O166    1.289   .     A
C118   O164    1.284   .     A
C119   C121    1.406   .     A
C119   C127    1.410   .     A
C119   H153    1.082   .     S
C120   H154    1.082   .     S
C120   C122    1.407   .     A
C120   C128    1.410   .     A
C121   H155    1.082   .     S
C121   N161    1.363   .     A
C122   N162    1.363   .     A
C122   H156    1.082   .     S
C123   N161    1.363   .     A
C123   C125    1.407   .     A
C123   H157    1.082   .     S
C124   H158    1.081   .     S
C124   N162    1.363   .     A
C124   C126    1.406   .     A
C125   C127    1.410   .     A
C125   H159    1.082   .     S
C126   C128    1.410   .     A
C126   H160    1.082   .     S
C127   C476    1.512   1_554 S
C128   C475    1.512   .     S
C129   C131    1.402   .     S
C129   O169    1.278   .     A
C129   O167    1.275   .     A
C130   O168    1.275   .     A
C130   O170    1.278   .     A
C130   C132    1.402   .     S
C132   C15     1.330   1_655 S
C132   H30     1.088   1_655 S
C133   H147    1.084   .     S
C133   C143    1.395   .     A
C133   C135    1.383   .     A
C134   H148    1.084   .     S
C134   C144    1.395   .     A
C134   C136    1.383   .     A
C135   Br173   1.924   .     S
C135   C137    1.410   .     A
C136   C138    1.411   .     A
C136   Br174   1.925   .     S
C137   C139    1.402   .     A
C138   C140    1.402   .     A
C139   C141    1.380   .     A
C139   H149    1.084   .     S
C140   H150    1.084   .     S
C140   C142    1.380   .     A
C141   C143    1.393   .     A
C141   H151    1.084   .     S
C142   C144    1.393   .     A
C142   H152    1.084   .     S
C143   C318    1.436   1_545 S
C144   C317    1.436   .     S
H145   C15     1.088   1_655 S
N161   Zn172   2.003   .     S
N162   Zn171   2.003   .     S
O163   Zn171   2.000   .     S
O164   Zn172   2.000   .     S
O165   Zn172   1.992   .     S
O166   Zn171   1.992   .     S
O167   Zn171   1.969   .     S
O168   Zn172   1.969   .     S
O169   Zn172   1.982   .     S
O170   Zn171   1.982   .     S
C175   C195    1.440   .     S
C175   O221    1.284   .     A
C175   O223    1.288   .     A
C176   C196    1.442   .     S
C176   O224    1.289   .     A
C176   O222    1.284   .     A
C177   C179    1.406   .     A
C177   C185    1.410   .     A
C177   H211    1.082   .     S
C178   H212    1.082   .     S
C178   C180    1.407   .     A
C178   C186    1.410   .     A
C179   H213    1.082   .     S
C179   N219    1.363   .     A
C180   N220    1.363   .     A
C180   H214    1.082   .     S
C181   N219    1.363   .     A
C181   C183    1.407   .     A
C181   H215    1.082   .     S
C182   H216    1.081   .     S
C182   N220    1.363   .     A
C182   C184    1.406   .     A
C183   C185    1.410   .     A
C183   H217    1.082   .     S
C184   C186    1.410   .     A
C184   H218    1.082   .     S
C185   C534    1.512   1_554 S
C186   C533    1.512   .     S
C187   C189    1.402   .     S
C187   O227    1.278   .     A
C187   O225    1.275   .     A
C188   O226    1.275   .     A
C188   O228    1.278   .     A
C188   C190    1.402   .     S
C189   C306    1.330   1_455 S
C189   H319    1.088   1_455 S
C190   C247    1.330   .     S
C190   H262    1.088   .     S
C191   H205    1.084   .     S
C191   C201    1.395   .     A
C191   C193    1.383   .     A
C192   H206    1.084   .     S
C192   C202    1.395   .     A
C192   C194    1.383   .     A
C193   Br231   1.924   .     S
C193   C195    1.410   .     A
C194   C196    1.411   .     A
C194   Br232   1.925   .     S
C195   C197    1.402   .     A
C196   C198    1.402   .     A
C197   C199    1.380   .     A
C197   H207    1.084   .     S
C198   H208    1.084   .     S
C198   C200    1.380   .     A
C199   C201    1.393   .     A
C199   H209    1.084   .     S
C200   C202    1.393   .     A
C200   H210    1.084   .     S
C202   C27     1.436   1_565 S
H203   C247    1.088   .     S
H204   C306    1.088   1_455 S
N219   Zn230   2.003   .     S
N220   Zn229   2.003   .     S
O221   Zn229   2.000   .     S
O222   Zn230   2.000   .     S
O223   Zn230   1.992   .     S
O224   Zn229   1.992   .     S
O225   Zn229   1.969   .     S
O226   Zn230   1.969   .     S
O227   Zn230   1.982   .     S
O228   Zn229   1.982   .     S
C233   C253    1.440   .     S
C233   O279    1.284   .     A
C233   O281    1.288   .     A
C234   C254    1.442   .     S
C234   O282    1.289   .     A
C234   O280    1.284   .     A
C235   C237    1.406   .     A
C235   C243    1.410   .     A
C235   H269    1.082   .     S
C236   H270    1.082   .     S
C236   C238    1.407   .     A
C236   C244    1.410   .     A
C237   H271    1.082   .     S
C237   N277    1.363   .     A
C238   N278    1.363   .     A
C238   H272    1.082   .     S
C239   N277    1.363   .     A
C239   C241    1.407   .     A
C239   H273    1.082   .     S
C240   H274    1.081   .     S
C240   N278    1.363   .     A
C240   C242    1.406   .     A
C241   C243    1.410   .     A
C241   H275    1.082   .     S
C242   C244    1.410   .     A
C242   H276    1.082   .     S
C243   C592    1.512   1_554 S
C244   C591    1.512   .     S
C245   C247    1.402   .     S
C245   O285    1.278   .     A
C245   O283    1.275   .     A
C246   O284    1.275   .     A
C246   O286    1.278   .     A
C246   C248    1.402   .     S
C248   C305    1.330   .     S
C248   H320    1.088   .     S
C249   H263    1.084   .     S
C249   C259    1.395   .     A
C249   C251    1.383   .     A
C250   H264    1.084   .     S
C250   C260    1.395   .     A
C250   C252    1.383   .     A
C251   Br289   1.924   .     S
C251   C253    1.410   .     A
C252   C254    1.411   .     A
C252   Br290   1.925   .     S
C253   C255    1.402   .     A
C254   C256    1.402   .     A
C255   C257    1.380   .     A
C255   H265    1.084   .     S
C256   H266    1.084   .     S
C256   C258    1.380   .     A
C257   C259    1.393   .     A
C257   H267    1.084   .     S
C258   C260    1.393   .     A
C258   H268    1.084   .     S
C260   C85     1.436   1_565 S
H261   C305    1.088   .     S
N277   Zn288   2.003   .     S
N278   Zn287   2.003   .     S
O279   Zn287   2.000   .     S
O280   Zn288   2.000   .     S
O281   Zn288   1.992   .     S
O282   Zn287   1.992   .     S
O283   Zn287   1.969   .     S
O284   Zn288   1.969   .     S
O285   Zn288   1.982   .     S
O286   Zn287   1.982   .     S
C291   C311    1.440   .     S
C291   O337    1.284   .     A
C291   O339    1.288   .     A
C292   C312    1.442   .     S
C292   O340    1.289   .     A
C292   O338    1.284   .     A
C293   C295    1.406   .     A
C293   C301    1.410   .     A
C293   H327    1.082   .     S
C294   H328    1.082   .     S
C294   C296    1.407   .     A
C294   C302    1.410   .     A
C295   H329    1.082   .     S
C295   N335    1.363   .     A
C296   N336    1.363   .     A
C296   H330    1.082   .     S
C297   N335    1.363   .     A
C297   C299    1.407   .     A
C297   H331    1.082   .     S
C298   H332    1.081   .     S
C298   N336    1.363   .     A
C298   C300    1.406   .     A
C299   C301    1.410   .     A
C299   H333    1.082   .     S
C300   C302    1.410   .     A
C300   H334    1.082   .     S
C301   C650    1.512   1_554 S
C302   C649    1.512   .     S
C303   C305    1.402   .     S
C303   O343    1.278   .     A
C303   O341    1.275   .     A
C304   O342    1.275   .     A
C304   O344    1.278   .     A
C304   C306    1.402   .     S
C306   C189    1.330   1_655 S
C306   H204    1.088   1_655 S
C307   H321    1.084   .     S
C307   C317    1.395   .     A
C307   C309    1.383   .     A
C308   H322    1.084   .     S
C308   C318    1.395   .     A
C308   C310    1.383   .     A
C309   Br347   1.924   .     S
C309   C311    1.410   .     A
C310   C312    1.411   .     A
C310   Br348   1.925   .     S
C311   C313    1.402   .     A
C312   C314    1.402   .     A
C313   C315    1.380   .     A
C313   H323    1.084   .     S
C314   H324    1.084   .     S
C314   C316    1.380   .     A
C315   C317    1.393   .     A
C315   H325    1.084   .     S
C316   C318    1.393   .     A
C316   H326    1.084   .     S
C318   C143    1.436   1_565 S
H319   C189    1.088   1_655 S
N335   Zn346   2.003   .     S
N336   Zn345   2.003   .     S
O337   Zn345   2.000   .     S
O338   Zn346   2.000   .     S
O339   Zn346   1.992   .     S
O340   Zn345   1.992   .     S
O341   Zn345   1.969   .     S
O342   Zn346   1.969   .     S
O343   Zn346   1.982   .     S
O344   Zn345   1.982   .     S
C349   C369    1.440   .     S
C349   O395    1.284   .     A
C349   O397    1.288   .     A
C350   C370    1.442   .     S
C350   O398    1.289   .     A
C350   O396    1.284   .     A
C351   C353    1.406   .     A
C351   C359    1.410   .     A
C351   H385    1.082   .     S
C352   H386    1.082   .     S
C352   C354    1.407   .     A
C352   C360    1.410   .     A
C353   H387    1.082   .     S
C353   N393    1.363   .     A
C354   N394    1.363   .     A
C354   H388    1.082   .     S
C355   N393    1.363   .     A
C355   C357    1.407   .     A
C355   H389    1.082   .     S
C356   H390    1.081   .     S
C356   N394    1.363   .     A
C356   C358    1.406   .     A
C357   C359    1.410   .     A
C357   H391    1.082   .     S
C358   C360    1.410   .     A
C358   H392    1.082   .     S
C360   C11     1.512   1_556 S
C361   C363    1.402   .     S
C361   O401    1.278   .     A
C361   O399    1.275   .     A
C362   O400    1.275   .     A
C362   O402    1.278   .     A
C362   C364    1.402   .     S
C363   C480    1.330   1_455 S
C363   H493    1.088   1_455 S
C364   C421    1.330   .     S
C364   H436    1.088   .     S
C365   H379    1.084   .     S
C365   C375    1.395   .     A
C365   C367    1.383   .     A
C366   H380    1.084   .     S
C366   C376    1.395   .     A
C366   C368    1.383   .     A
C367   Br405   1.924   .     S
C367   C369    1.410   .     A
C368   C370    1.411   .     A
C368   Br406   1.925   .     S
C369   C371    1.402   .     A
C370   C372    1.402   .     A
C371   C373    1.380   .     A
C371   H381    1.084   .     S
C372   H382    1.084   .     S
C372   C374    1.380   .     A
C373   C375    1.393   .     A
C373   H383    1.084   .     S
C374   C376    1.393   .     A
C374   H384    1.084   .     S
C375   C550    1.436   1_545 S
C376   C549    1.436   .     S
H377   C421    1.088   .     S
H378   C480    1.088   1_455 S
N393   Zn404   2.003   .     S
N394   Zn403   2.003   .     S
O395   Zn403   2.000   .     S
O396   Zn404   2.000   .     S
O397   Zn404   1.992   .     S
O398   Zn403   1.992   .     S
O399   Zn403   1.969   .     S
O400   Zn404   1.969   .     S
O401   Zn404   1.982   .     S
O402   Zn403   1.982   .     S
C407   C427    1.440   .     S
C407   O453    1.284   .     A
C407   O455    1.288   .     A
C408   C428    1.442   .     S
C408   O456    1.289   .     A
C408   O454    1.284   .     A
C409   C411    1.406   .     A
C409   C417    1.410   .     A
C409   H443    1.082   .     S
C410   H444    1.082   .     S
C410   C412    1.407   .     A
C410   C418    1.410   .     A
C411   H445    1.082   .     S
C411   N451    1.363   .     A
C412   N452    1.363   .     A
C412   H446    1.082   .     S
C413   N451    1.363   .     A
C413   C415    1.407   .     A
C413   H447    1.082   .     S
C414   H448    1.081   .     S
C414   N452    1.363   .     A
C414   C416    1.406   .     A
C415   C417    1.410   .     A
C415   H449    1.082   .     S
C416   C418    1.410   .     A
C416   H450    1.082   .     S
C418   C69     1.512   1_556 S
C419   C421    1.402   .     S
C419   O459    1.278   .     A
C419   O457    1.275   .     A
C420   O458    1.275   .     A
C420   O460    1.278   .     A
C420   C422    1.402   .     S
C422   C479    1.330   .     S
C422   H494    1.088   .     S
C423   H437    1.084   .     S
C423   C433    1.395   .     A
C423   C425    1.383   .     A
C424   H438    1.084   .     S
C424   C434    1.395   .     A
C424   C426    1.383   .     A
C425   Br463   1.924   .     S
C425   C427    1.410   .     A
C426   C428    1.411   .     A
C426   Br464   1.925   .     S
C427   C429    1.402   .     A
C428   C430    1.402   .     A
C429   C431    1.380   .     A
C429   H439    1.084   .     S
C430   H440    1.084   .     S
C430   C432    1.380   .     A
C431   C433    1.393   .     A
C431   H441    1.084   .     S
C432   C434    1.393   .     A
C432   H442    1.084   .     S
C433   C608    1.436   1_545 S
C434   C607    1.436   .     S
H435   C479    1.088   .     S
N451   Zn462   2.003   .     S
N452   Zn461   2.003   .     S
O453   Zn461   2.000   .     S
O454   Zn462   2.000   .     S
O455   Zn462   1.992   .     S
O456   Zn461   1.992   .     S
O457   Zn461   1.969   .     S
O458   Zn462   1.969   .     S
O459   Zn462   1.982   .     S
O460   Zn461   1.982   .     S
C465   C485    1.440   .     S
C465   O511    1.284   .     A
C465   O513    1.288   .     A
C466   C486    1.442   .     S
C466   O514    1.289   .     A
C466   O512    1.284   .     A
C467   C469    1.406   .     A
C467   C475    1.410   .     A
C467   H501    1.082   .     S
C468   H502    1.082   .     S
C468   C470    1.407   .     A
C468   C476    1.410   .     A
C469   H503    1.082   .     S
C469   N509    1.363   .     A
C470   N510    1.363   .     A
C470   H504    1.082   .     S
C471   N509    1.363   .     A
C471   C473    1.407   .     A
C471   H505    1.082   .     S
C472   H506    1.081   .     S
C472   N510    1.363   .     A
C472   C474    1.406   .     A
C473   C475    1.410   .     A
C473   H507    1.082   .     S
C474   C476    1.410   .     A
C474   H508    1.082   .     S
C476   C127    1.512   1_556 S
C477   C479    1.402   .     S
C477   O517    1.278   .     A
C477   O515    1.275   .     A
C478   O516    1.275   .     A
C478   O518    1.278   .     A
C478   C480    1.402   .     S
C480   C363    1.330   1_655 S
C480   H378    1.088   1_655 S
C481   H495    1.084   .     S
C481   C491    1.395   .     A
C481   C483    1.383   .     A
C482   H496    1.084   .     S
C482   C492    1.395   .     A
C482   C484    1.383   .     A
C483   Br521   1.924   .     S
C483   C485    1.410   .     A
C484   C486    1.411   .     A
C484   Br522   1.925   .     S
C485   C487    1.402   .     A
C486   C488    1.402   .     A
C487   C489    1.380   .     A
C487   H497    1.084   .     S
C488   H498    1.084   .     S
C488   C490    1.380   .     A
C489   C491    1.393   .     A
C489   H499    1.084   .     S
C490   C492    1.393   .     A
C490   H500    1.084   .     S
C491   C666    1.436   1_545 S
C492   C665    1.436   .     S
H493   C363    1.088   1_655 S
N509   Zn520   2.003   .     S
N510   Zn519   2.003   .     S
O511   Zn519   2.000   .     S
O512   Zn520   2.000   .     S
O513   Zn520   1.992   .     S
O514   Zn519   1.992   .     S
O515   Zn519   1.969   .     S
O516   Zn520   1.969   .     S
O517   Zn520   1.982   .     S
O518   Zn519   1.982   .     S
C523   C543    1.440   .     S
C523   O569    1.284   .     A
C523   O571    1.288   .     A
C524   C544    1.442   .     S
C524   O572    1.289   .     A
C524   O570    1.284   .     A
C525   C527    1.406   .     A
C525   C533    1.410   .     A
C525   H559    1.082   .     S
C526   H560    1.082   .     S
C526   C528    1.407   .     A
C526   C534    1.410   .     A
C527   H561    1.082   .     S
C527   N567    1.363   .     A
C528   N568    1.363   .     A
C528   H562    1.082   .     S
C529   N567    1.363   .     A
C529   C531    1.407   .     A
C529   H563    1.082   .     S
C530   H564    1.081   .     S
C530   N568    1.363   .     A
C530   C532    1.406   .     A
C531   C533    1.410   .     A
C531   H565    1.082   .     S
C532   C534    1.410   .     A
C532   H566    1.082   .     S
C534   C185    1.512   1_556 S
C535   C537    1.402   .     S
C535   O575    1.278   .     A
C535   O573    1.275   .     A
C536   O574    1.275   .     A
C536   O576    1.278   .     A
C536   C538    1.402   .     S
C537   C654    1.330   1_455 S
C537   H667    1.088   1_455 S
C538   C595    1.330   .     S
C538   H610    1.088   .     S
C539   H553    1.084   .     S
C539   C549    1.395   .     A
C539   C541    1.383   .     A
C540   H554    1.084   .     S
C540   C550    1.395   .     A
C540   C542    1.383   .     A
C541   Br579   1.924   .     S
C541   C543    1.410   .     A
C542   C544    1.411   .     A
C542   Br580   1.925   .     S
C543   C545    1.402   .     A
C544   C546    1.402   .     A
C545   C547    1.380   .     A
C545   H555    1.084   .     S
C546   H556    1.084   .     S
C546   C548    1.380   .     A
C547   C549    1.393   .     A
C547   H557    1.084   .     S
C548   C550    1.393   .     A
C548   H558    1.084   .     S
C550   C375    1.436   1_565 S
H551   C595    1.088   .     S
H552   C654    1.088   1_455 S
N567   Zn578   2.003   .     S
N568   Zn577   2.003   .     S
O569   Zn577   2.000   .     S
O570   Zn578   2.000   .     S
O571   Zn578   1.992   .     S
O572   Zn577   1.992   .     S
O573   Zn577   1.969   .     S
O574   Zn578   1.969   .     S
O575   Zn578   1.982   .     S
O576   Zn577   1.982   .     S
C581   C601    1.440   .     S
C581   O627    1.284   .     A
C581   O629    1.288   .     A
C582   C602    1.442   .     S
C582   O630    1.289   .     A
C582   O628    1.284   .     A
C583   C585    1.406   .     A
C583   C591    1.410   .     A
C583   H617    1.082   .     S
C584   H618    1.082   .     S
C584   C586    1.407   .     A
C584   C592    1.410   .     A
C585   H619    1.082   .     S
C585   N625    1.363   .     A
C586   N626    1.363   .     A
C586   H620    1.082   .     S
C587   N625    1.363   .     A
C587   C589    1.407   .     A
C587   H621    1.082   .     S
C588   H622    1.081   .     S
C588   N626    1.363   .     A
C588   C590    1.406   .     A
C589   C591    1.410   .     A
C589   H623    1.082   .     S
C590   C592    1.410   .     A
C590   H624    1.082   .     S
C592   C243    1.512   1_556 S
C593   C595    1.402   .     S
C593   O633    1.278   .     A
C593   O631    1.275   .     A
C594   O632    1.275   .     A
C594   O634    1.278   .     A
C594   C596    1.402   .     S
C596   C653    1.330   .     S
C596   H668    1.088   .     S
C597   H611    1.084   .     S
C597   C607    1.395   .     A
C597   C599    1.383   .     A
C598   H612    1.084   .     S
C598   C608    1.395   .     A
C598   C600    1.383   .     A
C599   Br637   1.924   .     S
C599   C601    1.410   .     A
C600   C602    1.411   .     A
C600   Br638   1.925   .     S
C601   C603    1.402   .     A
C602   C604    1.402   .     A
C603   C605    1.380   .     A
C603   H613    1.084   .     S
C604   H614    1.084   .     S
C604   C606    1.380   .     A
C605   C607    1.393   .     A
C605   H615    1.084   .     S
C606   C608    1.393   .     A
C606   H616    1.084   .     S
C608   C433    1.436   1_565 S
H609   C653    1.088   .     S
N625   Zn636   2.003   .     S
N626   Zn635   2.003   .     S
O627   Zn635   2.000   .     S
O628   Zn636   2.000   .     S
O629   Zn636   1.992   .     S
O630   Zn635   1.992   .     S
O631   Zn635   1.969   .     S
O632   Zn636   1.969   .     S
O633   Zn636   1.982   .     S
O634   Zn635   1.982   .     S
C639   C659    1.440   .     S
C639   O685    1.284   .     A
C639   O687    1.288   .     A
C640   C660    1.442   .     S
C640   O688    1.289   .     A
C640   O686    1.284   .     A
C641   C643    1.406   .     A
C641   C649    1.410   .     A
C641   H675    1.082   .     S
C642   H676    1.082   .     S
C642   C644    1.407   .     A
C642   C650    1.410   .     A
C643   H677    1.082   .     S
C643   N683    1.363   .     A
C644   N684    1.363   .     A
C644   H678    1.082   .     S
C645   N683    1.363   .     A
C645   C647    1.407   .     A
C645   H679    1.082   .     S
C646   H680    1.081   .     S
C646   N684    1.363   .     A
C646   C648    1.406   .     A
C647   C649    1.410   .     A
C647   H681    1.082   .     S
C648   C650    1.410   .     A
C648   H682    1.082   .     S
C650   C301    1.512   1_556 S
C651   C653    1.402   .     S
C651   O691    1.278   .     A
C651   O689    1.275   .     A
C652   O690    1.275   .     A
C652   O692    1.278   .     A
C652   C654    1.402   .     S
C654   C537    1.330   1_655 S
C654   H552    1.088   1_655 S
C655   H669    1.084   .     S
C655   C665    1.395   .     A
C655   C657    1.383   .     A
C656   H670    1.084   .     S
C656   C666    1.395   .     A
C656   C658    1.383   .     A
C657   Br695   1.924   .     S
C657   C659    1.410   .     A
C658   C660    1.411   .     A
C658   Br696   1.925   .     S
C659   C661    1.402   .     A
C660   C662    1.402   .     A
C661   C663    1.380   .     A
C661   H671    1.084   .     S
C662   H672    1.084   .     S
C662   C664    1.380   .     A
C663   C665    1.393   .     A
C663   H673    1.084   .     S
C664   C666    1.393   .     A
C664   H674    1.084   .     S
C666   C491    1.436   1_565 S
H667   C537    1.088   1_655 S
N683   Zn694   2.003   .     S
N684   Zn693   2.003   .     S
O685   Zn693   2.000   .     S
O686   Zn694   2.000   .     S
O687   Zn694   1.992   .     S
O688   Zn693   1.992   .     S
O689   Zn693   1.969   .     S
O690   Zn694   1.969   .     S
O691   Zn694   1.982   .     S
O692   Zn693   1.982   .     S
