data_str_m3_o1_o16_pcu_sym.8
_audit_creation_date              2020-01-03
_audit_creation_method            'Materials Studio'
_symmetry_space_group_name_H-M    'P1'
_symmetry_Int_Tables_number       1
_symmetry_cell_setting            triclinic
loop_
_symmetry_equiv_pos_as_xyz
  x,y,z
_cell_length_a                    29.7237
_cell_length_b                    32.0155
_cell_length_c                    26.4152
_cell_angle_alpha                 90.2948
_cell_angle_beta                  71.5603
_cell_angle_gamma                 89.6633
loop_
_atom_site_label
_atom_site_type_symbol
_atom_site_fract_x
_atom_site_fract_y
_atom_site_fract_z
_atom_site_U_iso_or_equiv
_atom_site_adp_type
_atom_site_occupancy
C1     C     0.16647   0.24657   0.25032   0.00000  Uiso   1.00
C2     C     0.12624   0.18748   0.40740   0.00000  Uiso   1.00
C3     C     0.19246   0.31131   0.27894   0.00000  Uiso   1.00
C4     C     0.14106   0.17339   0.35080   0.00000  Uiso   1.00
C5     C     0.19282   0.02118   0.27974   0.00000  Uiso   1.00
C6     C     0.16632   0.04250   0.25228   0.00000  Uiso   1.00
C7     C     0.13908   0.02153   0.22589   0.00000  Uiso   1.00
C8     C     0.13877   0.31208   0.22567   0.00000  Uiso   1.00
C9     C     0.16588   0.29067   0.25162   0.00000  Uiso   1.00
C10    C     0.31393   0.13166   0.23473   0.00000  Uiso   1.00
C11    C     0.02859   0.13193   0.23497   0.00000  Uiso   1.00
C12    C     0.14648   0.18705   0.48983   0.00000  Uiso   1.00
C13    C     0.01973   0.20159   0.26405   0.00000  Uiso   1.00
C14    C     0.30592   0.20189   0.26274   0.00000  Uiso   1.00
C15    C     0.16654   0.08673   0.25085   0.00000  Uiso   1.00
C16    C     0.19258   0.16670   0.14842   0.00000  Uiso   1.00
C17    C     0.26317   0.15637   0.00293   0.00000  Uiso   1.00
C18    C     0.20739   0.16831   0.09068   0.00000  Uiso   1.00
C19    C     0.07790   0.19388   0.43629   0.00000  Uiso   1.00
C20    C     0.06387   0.19489   0.49285   0.00000  Uiso   1.00
C21    C     0.09729   0.18606   0.01846   0.00000  Uiso   1.00
C22    C     0.16045   0.19179   0.43412   0.00000  Uiso   1.00
C23    C     0.18278   0.18106   0.01346   0.00000  Uiso   1.00
C24    C     0.22983   0.17259   0.48075   0.00000  Uiso   1.00
C25    C     0.24327   0.18419   0.42750   0.00000  Uiso   1.00
C26    C     0.20887   0.19882   0.40675   0.00000  Uiso   1.00
C27    C     0.17492   0.18515   0.06783   0.00000  Uiso   1.00
C28    C     0.25125   0.15213   0.05843   0.00000  Uiso   1.00
F29    F     0.03723   0.23681   0.27911   0.00000  Uiso   1.00
F30    F     0.28164   0.23844   0.27239   0.00000  Uiso   1.00
F31    F     0.13933   0.21044   0.09765   0.00000  Uiso   1.00
F32    F     0.08049   0.17500   0.07056   0.00000  Uiso   1.00
F33    F     0.22241   0.22224   0.36208   0.00000  Uiso   1.00
H34    H     0.11876   0.03822   0.20474   0.00000  Uiso   1.00
H35    H     0.01324   0.19808   0.43277   0.00000  Uiso   1.00
H36    H     0.00448   0.22475   0.00808   0.00000  Uiso   1.00
H37    H     0.11825   0.29576   0.20447   0.00000  Uiso   1.00
H38    H     0.05066   0.10437   0.22268   0.00000  Uiso   1.00
H39    H     0.28021   0.18463   0.40322   0.00000  Uiso   1.00
H40    H     0.29786   0.14660   0.47732   0.00000  Uiso   1.00
H41    H     0.21216   0.29389   0.30011   0.00000  Uiso   1.00
H42    H     0.31050   0.12351   0.05309   0.00000  Uiso   1.00
H43    H     0.23404   0.02288   0.32433   0.00000  Uiso   1.00
H44    H     0.32026   0.07450   0.20812   0.00000  Uiso   1.00
N45    N     0.04760   0.16668   0.25001   0.00000  Uiso   1.00
N46    N     0.28573   0.16665   0.25001   0.00000  Uiso   1.00
O47    O     0.12846   0.22775   0.25000   0.00000  Uiso   1.00
O48    O     0.21751   0.04296   0.30769   0.00000  Uiso   1.00
O49    O     0.29571   0.09684   0.21766   0.00000  Uiso   1.00
O50    O     0.04597   0.19783   0.40821   0.00000  Uiso   1.00
O51    O     0.01777   0.20200   0.02442   0.00000  Uiso   1.00
O52    O     0.20490   0.22774   0.25000   0.00000  Uiso   1.00
O53    O     0.10947   0.16666   0.32681   0.00000  Uiso   1.00
O54    O     0.18591   0.16665   0.32681   0.00000  Uiso   1.00
O55    O     0.12843   0.10559   0.24999   0.00000  Uiso   1.00
O56    O     0.20488   0.10558   0.25000   0.00000  Uiso   1.00
O57    O     0.14742   0.16668   0.17319   0.00000  Uiso   1.00
O58    O     0.22387   0.16667   0.17319   0.00000  Uiso   1.00
O59    O     0.28195   0.13367   0.08162   0.00000  Uiso   1.00
Zn60   Zn    0.11562   0.16667   0.25000   0.00000  Uiso   1.00
Zn61   Zn    0.21771   0.16666   0.25000   0.00000  Uiso   1.00
C62    C     0.49980   0.24657   0.25032   0.00000  Uiso   1.00
C63    C     0.45958   0.18748   0.40740   0.00000  Uiso   1.00
C64    C     0.52580   0.31131   0.27894   0.00000  Uiso   1.00
C65    C     0.47440   0.17339   0.35080   0.00000  Uiso   1.00
C66    C     0.52615   0.02118   0.27974   0.00000  Uiso   1.00
C67    C     0.49966   0.04250   0.25228   0.00000  Uiso   1.00
C68    C     0.47241   0.02153   0.22589   0.00000  Uiso   1.00
C69    C     0.47210   0.31208   0.22567   0.00000  Uiso   1.00
C70    C     0.49921   0.29067   0.25162   0.00000  Uiso   1.00
C71    C     0.64726   0.13166   0.23473   0.00000  Uiso   1.00
C72    C     0.36192   0.13193   0.23497   0.00000  Uiso   1.00
C73    C     0.47981   0.18705   0.48983   0.00000  Uiso   1.00
C74    C     0.35306   0.20159   0.26405   0.00000  Uiso   1.00
C75    C     0.63925   0.20189   0.26274   0.00000  Uiso   1.00
C76    C     0.49988   0.08673   0.25085   0.00000  Uiso   1.00
C77    C     0.52592   0.16670   0.14842   0.00000  Uiso   1.00
C78    C     0.59651   0.15637   0.00293   0.00000  Uiso   1.00
C79    C     0.54073   0.16831   0.09068   0.00000  Uiso   1.00
C80    C     0.41123   0.19388   0.43629   0.00000  Uiso   1.00
C81    C     0.39721   0.19489   0.49285   0.00000  Uiso   1.00
C82    C     0.43063   0.18606   0.01846   0.00000  Uiso   1.00
C83    C     0.49378   0.19179   0.43412   0.00000  Uiso   1.00
C84    C     0.51612   0.18106   0.01346   0.00000  Uiso   1.00
C85    C     0.56316   0.17259   0.48075   0.00000  Uiso   1.00
C86    C     0.57660   0.18419   0.42750   0.00000  Uiso   1.00
C87    C     0.54220   0.19882   0.40675   0.00000  Uiso   1.00
C88    C     0.50826   0.18515   0.06783   0.00000  Uiso   1.00
C89    C     0.58458   0.15213   0.05843   0.00000  Uiso   1.00
F90    F     0.37056   0.23681   0.27911   0.00000  Uiso   1.00
F91    F     0.61498   0.23844   0.27239   0.00000  Uiso   1.00
F92    F     0.47266   0.21044   0.09765   0.00000  Uiso   1.00
F93    F     0.41382   0.17500   0.07056   0.00000  Uiso   1.00
F94    F     0.55575   0.22224   0.36208   0.00000  Uiso   1.00
H95    H     0.45209   0.03822   0.20474   0.00000  Uiso   1.00
H96    H     0.34657   0.19808   0.43277   0.00000  Uiso   1.00
H97    H     0.33782   0.22475   0.00808   0.00000  Uiso   1.00
H98    H     0.45158   0.29576   0.20447   0.00000  Uiso   1.00
H99    H     0.38399   0.10437   0.22268   0.00000  Uiso   1.00
H100   H     0.61354   0.18463   0.40322   0.00000  Uiso   1.00
H101   H     0.63119   0.14660   0.47732   0.00000  Uiso   1.00
H102   H     0.54550   0.29389   0.30011   0.00000  Uiso   1.00
H103   H     0.64384   0.12351   0.05309   0.00000  Uiso   1.00
H104   H     0.56737   0.02288   0.32433   0.00000  Uiso   1.00
H105   H     0.65359   0.07450   0.20812   0.00000  Uiso   1.00
N106   N     0.38093   0.16668   0.25001   0.00000  Uiso   1.00
N107   N     0.61906   0.16665   0.25001   0.00000  Uiso   1.00
O108   O     0.46179   0.22775   0.25000   0.00000  Uiso   1.00
O109   O     0.55084   0.04296   0.30769   0.00000  Uiso   1.00
O110   O     0.62904   0.09684   0.21766   0.00000  Uiso   1.00
O111   O     0.37930   0.19783   0.40821   0.00000  Uiso   1.00
O112   O     0.35110   0.20200   0.02442   0.00000  Uiso   1.00
O113   O     0.53823   0.22774   0.25000   0.00000  Uiso   1.00
O114   O     0.44280   0.16666   0.32681   0.00000  Uiso   1.00
O115   O     0.51924   0.16665   0.32681   0.00000  Uiso   1.00
O116   O     0.46177   0.10559   0.24999   0.00000  Uiso   1.00
O117   O     0.53821   0.10558   0.25000   0.00000  Uiso   1.00
O118   O     0.48076   0.16668   0.17319   0.00000  Uiso   1.00
O119   O     0.55720   0.16667   0.17319   0.00000  Uiso   1.00
O120   O     0.61528   0.13367   0.08162   0.00000  Uiso   1.00
Zn121  Zn    0.44896   0.16667   0.25000   0.00000  Uiso   1.00
Zn122  Zn    0.55104   0.16666   0.25000   0.00000  Uiso   1.00
C123   C     0.83314   0.24657   0.25032   0.00000  Uiso   1.00
C124   C     0.79291   0.18748   0.40740   0.00000  Uiso   1.00
C125   C     0.85913   0.31131   0.27894   0.00000  Uiso   1.00
C126   C     0.80773   0.17339   0.35080   0.00000  Uiso   1.00
C127   C     0.85948   0.02118   0.27974   0.00000  Uiso   1.00
C128   C     0.83299   0.04250   0.25228   0.00000  Uiso   1.00
C129   C     0.80575   0.02153   0.22589   0.00000  Uiso   1.00
C130   C     0.80543   0.31208   0.22567   0.00000  Uiso   1.00
C131   C     0.83254   0.29067   0.25162   0.00000  Uiso   1.00
C132   C     0.98059   0.13166   0.23473   0.00000  Uiso   1.00
C133   C     0.69526   0.13193   0.23497   0.00000  Uiso   1.00
C134   C     0.81315   0.18705   0.48983   0.00000  Uiso   1.00
C135   C     0.68639   0.20159   0.26405   0.00000  Uiso   1.00
C136   C     0.97258   0.20189   0.26274   0.00000  Uiso   1.00
C137   C     0.83321   0.08673   0.25085   0.00000  Uiso   1.00
C138   C     0.85925   0.16670   0.14842   0.00000  Uiso   1.00
C139   C     0.92984   0.15637   0.00293   0.00000  Uiso   1.00
C140   C     0.87406   0.16831   0.09068   0.00000  Uiso   1.00
C141   C     0.74457   0.19388   0.43629   0.00000  Uiso   1.00
C142   C     0.73054   0.19489   0.49285   0.00000  Uiso   1.00
C143   C     0.76396   0.18606   0.01846   0.00000  Uiso   1.00
C144   C     0.82712   0.19179   0.43412   0.00000  Uiso   1.00
C145   C     0.84945   0.18106   0.01346   0.00000  Uiso   1.00
C146   C     0.89650   0.17259   0.48075   0.00000  Uiso   1.00
C147   C     0.90993   0.18419   0.42750   0.00000  Uiso   1.00
C148   C     0.87553   0.19882   0.40675   0.00000  Uiso   1.00
C149   C     0.84159   0.18515   0.06783   0.00000  Uiso   1.00
C150   C     0.91791   0.15213   0.05843   0.00000  Uiso   1.00
F151   F     0.70389   0.23681   0.27911   0.00000  Uiso   1.00
F152   F     0.94831   0.23844   0.27239   0.00000  Uiso   1.00
F153   F     0.80600   0.21044   0.09765   0.00000  Uiso   1.00
F154   F     0.74715   0.17500   0.07056   0.00000  Uiso   1.00
F155   F     0.88908   0.22224   0.36208   0.00000  Uiso   1.00
H156   H     0.78542   0.03822   0.20474   0.00000  Uiso   1.00
H157   H     0.67990   0.19808   0.43277   0.00000  Uiso   1.00
H158   H     0.67115   0.22475   0.00808   0.00000  Uiso   1.00
H159   H     0.78491   0.29576   0.20447   0.00000  Uiso   1.00
H160   H     0.71732   0.10437   0.22268   0.00000  Uiso   1.00
H161   H     0.94688   0.18463   0.40322   0.00000  Uiso   1.00
H162   H     0.96452   0.14660   0.47732   0.00000  Uiso   1.00
H163   H     0.87883   0.29389   0.30011   0.00000  Uiso   1.00
H164   H     0.97717   0.12351   0.05309   0.00000  Uiso   1.00
H165   H     0.90071   0.02288   0.32433   0.00000  Uiso   1.00
H166   H     0.98693   0.07450   0.20812   0.00000  Uiso   1.00
N167   N     0.71426   0.16668   0.25001   0.00000  Uiso   1.00
N168   N     0.95239   0.16665   0.25001   0.00000  Uiso   1.00
O169   O     0.79512   0.22775   0.25000   0.00000  Uiso   1.00
O170   O     0.88417   0.04296   0.30769   0.00000  Uiso   1.00
O171   O     0.96237   0.09684   0.21766   0.00000  Uiso   1.00
O172   O     0.71264   0.19783   0.40821   0.00000  Uiso   1.00
O173   O     0.68444   0.20200   0.02442   0.00000  Uiso   1.00
O174   O     0.87157   0.22774   0.25000   0.00000  Uiso   1.00
O175   O     0.77613   0.16666   0.32681   0.00000  Uiso   1.00
O176   O     0.85258   0.16665   0.32681   0.00000  Uiso   1.00
O177   O     0.79510   0.10559   0.24999   0.00000  Uiso   1.00
O178   O     0.87154   0.10558   0.25000   0.00000  Uiso   1.00
O179   O     0.81409   0.16668   0.17319   0.00000  Uiso   1.00
O180   O     0.89053   0.16667   0.17319   0.00000  Uiso   1.00
O181   O     0.94862   0.13367   0.08162   0.00000  Uiso   1.00
Zn182  Zn    0.78229   0.16667   0.25000   0.00000  Uiso   1.00
Zn183  Zn    0.88438   0.16666   0.25000   0.00000  Uiso   1.00
C184   C     0.16647   0.57991   0.25032   0.00000  Uiso   1.00
C185   C     0.12624   0.52082   0.40740   0.00000  Uiso   1.00
C186   C     0.19246   0.64465   0.27894   0.00000  Uiso   1.00
C187   C     0.14106   0.50672   0.35080   0.00000  Uiso   1.00
C188   C     0.19282   0.35452   0.27974   0.00000  Uiso   1.00
C189   C     0.16632   0.37584   0.25228   0.00000  Uiso   1.00
C190   C     0.13908   0.35486   0.22589   0.00000  Uiso   1.00
C191   C     0.13877   0.64542   0.22567   0.00000  Uiso   1.00
C192   C     0.16588   0.62400   0.25162   0.00000  Uiso   1.00
C193   C     0.31393   0.46500   0.23473   0.00000  Uiso   1.00
C194   C     0.02859   0.46526   0.23497   0.00000  Uiso   1.00
C195   C     0.14648   0.52038   0.48983   0.00000  Uiso   1.00
C196   C     0.01973   0.53493   0.26405   0.00000  Uiso   1.00
C197   C     0.30592   0.53523   0.26274   0.00000  Uiso   1.00
C198   C     0.16654   0.42007   0.25085   0.00000  Uiso   1.00
C199   C     0.19258   0.50003   0.14842   0.00000  Uiso   1.00
C200   C     0.26317   0.48971   0.00293   0.00000  Uiso   1.00
C201   C     0.20739   0.50164   0.09068   0.00000  Uiso   1.00
C202   C     0.07790   0.52722   0.43629   0.00000  Uiso   1.00
C203   C     0.06387   0.52822   0.49285   0.00000  Uiso   1.00
C204   C     0.09729   0.51939   0.01846   0.00000  Uiso   1.00
C205   C     0.16045   0.52513   0.43412   0.00000  Uiso   1.00
C206   C     0.18278   0.51439   0.01346   0.00000  Uiso   1.00
C207   C     0.22983   0.50592   0.48075   0.00000  Uiso   1.00
C208   C     0.24327   0.51752   0.42750   0.00000  Uiso   1.00
C209   C     0.20887   0.53216   0.40675   0.00000  Uiso   1.00
C210   C     0.17492   0.51848   0.06783   0.00000  Uiso   1.00
C211   C     0.25125   0.48546   0.05843   0.00000  Uiso   1.00
F212   F     0.03723   0.57014   0.27911   0.00000  Uiso   1.00
F213   F     0.28164   0.57177   0.27239   0.00000  Uiso   1.00
F214   F     0.13933   0.54378   0.09765   0.00000  Uiso   1.00
F215   F     0.08049   0.50834   0.07056   0.00000  Uiso   1.00
F216   F     0.22241   0.55557   0.36208   0.00000  Uiso   1.00
H217   H     0.11876   0.37155   0.20474   0.00000  Uiso   1.00
H218   H     0.01324   0.53142   0.43277   0.00000  Uiso   1.00
H219   H     0.00448   0.55808   0.00808   0.00000  Uiso   1.00
H220   H     0.11825   0.62910   0.20447   0.00000  Uiso   1.00
H221   H     0.05066   0.43771   0.22268   0.00000  Uiso   1.00
H222   H     0.28021   0.51796   0.40322   0.00000  Uiso   1.00
H223   H     0.29786   0.47994   0.47732   0.00000  Uiso   1.00
H224   H     0.21216   0.62722   0.30011   0.00000  Uiso   1.00
H225   H     0.31050   0.45685   0.05309   0.00000  Uiso   1.00
H226   H     0.23404   0.35621   0.32433   0.00000  Uiso   1.00
H227   H     0.32026   0.40784   0.20812   0.00000  Uiso   1.00
N228   N     0.04760   0.50001   0.25001   0.00000  Uiso   1.00
N229   N     0.28573   0.49998   0.25001   0.00000  Uiso   1.00
O230   O     0.12846   0.56108   0.25000   0.00000  Uiso   1.00
O231   O     0.21751   0.37630   0.30769   0.00000  Uiso   1.00
O232   O     0.29571   0.43018   0.21766   0.00000  Uiso   1.00
O233   O     0.04597   0.53116   0.40821   0.00000  Uiso   1.00
O234   O     0.01777   0.53533   0.02442   0.00000  Uiso   1.00
O235   O     0.20490   0.56107   0.25000   0.00000  Uiso   1.00
O236   O     0.10947   0.50000   0.32681   0.00000  Uiso   1.00
O237   O     0.18591   0.49999   0.32681   0.00000  Uiso   1.00
O238   O     0.12843   0.43893   0.24999   0.00000  Uiso   1.00
O239   O     0.20488   0.43892   0.25000   0.00000  Uiso   1.00
O240   O     0.14742   0.50001   0.17319   0.00000  Uiso   1.00
O241   O     0.22387   0.50000   0.17319   0.00000  Uiso   1.00
O242   O     0.28195   0.46701   0.08162   0.00000  Uiso   1.00
Zn243  Zn    0.11562   0.50001   0.25000   0.00000  Uiso   1.00
Zn244  Zn    0.21771   0.49999   0.25000   0.00000  Uiso   1.00
C245   C     0.49980   0.57991   0.25032   0.00000  Uiso   1.00
C246   C     0.45958   0.52082   0.40740   0.00000  Uiso   1.00
C247   C     0.52580   0.64465   0.27894   0.00000  Uiso   1.00
C248   C     0.47440   0.50672   0.35080   0.00000  Uiso   1.00
C249   C     0.52615   0.35452   0.27974   0.00000  Uiso   1.00
C250   C     0.49966   0.37584   0.25228   0.00000  Uiso   1.00
C251   C     0.47241   0.35486   0.22589   0.00000  Uiso   1.00
C252   C     0.47210   0.64542   0.22567   0.00000  Uiso   1.00
C253   C     0.49921   0.62400   0.25162   0.00000  Uiso   1.00
C254   C     0.64726   0.46500   0.23473   0.00000  Uiso   1.00
C255   C     0.36192   0.46526   0.23497   0.00000  Uiso   1.00
C256   C     0.47981   0.52038   0.48983   0.00000  Uiso   1.00
C257   C     0.35306   0.53493   0.26405   0.00000  Uiso   1.00
C258   C     0.63925   0.53523   0.26274   0.00000  Uiso   1.00
C259   C     0.49988   0.42007   0.25085   0.00000  Uiso   1.00
C260   C     0.52592   0.50003   0.14842   0.00000  Uiso   1.00
C261   C     0.59651   0.48971   0.00293   0.00000  Uiso   1.00
C262   C     0.54073   0.50164   0.09068   0.00000  Uiso   1.00
C263   C     0.41123   0.52722   0.43629   0.00000  Uiso   1.00
C264   C     0.39721   0.52822   0.49285   0.00000  Uiso   1.00
C265   C     0.43063   0.51939   0.01846   0.00000  Uiso   1.00
C266   C     0.49378   0.52513   0.43412   0.00000  Uiso   1.00
C267   C     0.51612   0.51439   0.01346   0.00000  Uiso   1.00
C268   C     0.56316   0.50592   0.48075   0.00000  Uiso   1.00
C269   C     0.57660   0.51752   0.42750   0.00000  Uiso   1.00
C270   C     0.54220   0.53216   0.40675   0.00000  Uiso   1.00
C271   C     0.50826   0.51848   0.06783   0.00000  Uiso   1.00
C272   C     0.58458   0.48546   0.05843   0.00000  Uiso   1.00
F273   F     0.37056   0.57014   0.27911   0.00000  Uiso   1.00
F274   F     0.61498   0.57177   0.27239   0.00000  Uiso   1.00
F275   F     0.47266   0.54378   0.09765   0.00000  Uiso   1.00
F276   F     0.41382   0.50834   0.07056   0.00000  Uiso   1.00
F277   F     0.55575   0.55557   0.36208   0.00000  Uiso   1.00
H278   H     0.45209   0.37155   0.20474   0.00000  Uiso   1.00
H279   H     0.34657   0.53142   0.43277   0.00000  Uiso   1.00
H280   H     0.33782   0.55808   0.00808   0.00000  Uiso   1.00
H281   H     0.45158   0.62910   0.20447   0.00000  Uiso   1.00
H282   H     0.38399   0.43771   0.22268   0.00000  Uiso   1.00
H283   H     0.61354   0.51796   0.40322   0.00000  Uiso   1.00
H284   H     0.63119   0.47994   0.47732   0.00000  Uiso   1.00
H285   H     0.54550   0.62722   0.30011   0.00000  Uiso   1.00
H286   H     0.64384   0.45685   0.05309   0.00000  Uiso   1.00
H287   H     0.56737   0.35621   0.32433   0.00000  Uiso   1.00
H288   H     0.65359   0.40784   0.20812   0.00000  Uiso   1.00
N289   N     0.38093   0.50001   0.25001   0.00000  Uiso   1.00
N290   N     0.61906   0.49998   0.25001   0.00000  Uiso   1.00
O291   O     0.46179   0.56108   0.25000   0.00000  Uiso   1.00
O292   O     0.55084   0.37630   0.30769   0.00000  Uiso   1.00
O293   O     0.62904   0.43018   0.21766   0.00000  Uiso   1.00
O294   O     0.37930   0.53116   0.40821   0.00000  Uiso   1.00
O295   O     0.35110   0.53533   0.02442   0.00000  Uiso   1.00
O296   O     0.53823   0.56107   0.25000   0.00000  Uiso   1.00
O297   O     0.44280   0.50000   0.32681   0.00000  Uiso   1.00
O298   O     0.51924   0.49999   0.32681   0.00000  Uiso   1.00
O299   O     0.46177   0.43893   0.24999   0.00000  Uiso   1.00
O300   O     0.53821   0.43892   0.25000   0.00000  Uiso   1.00
O301   O     0.48076   0.50001   0.17319   0.00000  Uiso   1.00
O302   O     0.55720   0.50000   0.17319   0.00000  Uiso   1.00
O303   O     0.61528   0.46701   0.08162   0.00000  Uiso   1.00
Zn304  Zn    0.44896   0.50001   0.25000   0.00000  Uiso   1.00
Zn305  Zn    0.55104   0.49999   0.25000   0.00000  Uiso   1.00
C306   C     0.83314   0.57991   0.25032   0.00000  Uiso   1.00
C307   C     0.79291   0.52082   0.40740   0.00000  Uiso   1.00
C308   C     0.85913   0.64465   0.27894   0.00000  Uiso   1.00
C309   C     0.80773   0.50672   0.35080   0.00000  Uiso   1.00
C310   C     0.85948   0.35452   0.27974   0.00000  Uiso   1.00
C311   C     0.83299   0.37584   0.25228   0.00000  Uiso   1.00
C312   C     0.80575   0.35486   0.22589   0.00000  Uiso   1.00
C313   C     0.80543   0.64542   0.22567   0.00000  Uiso   1.00
C314   C     0.83254   0.62400   0.25162   0.00000  Uiso   1.00
C315   C     0.98059   0.46500   0.23473   0.00000  Uiso   1.00
C316   C     0.69526   0.46526   0.23497   0.00000  Uiso   1.00
C317   C     0.81315   0.52038   0.48983   0.00000  Uiso   1.00
C318   C     0.68639   0.53493   0.26405   0.00000  Uiso   1.00
C319   C     0.97258   0.53523   0.26274   0.00000  Uiso   1.00
C320   C     0.83321   0.42007   0.25085   0.00000  Uiso   1.00
C321   C     0.85925   0.50003   0.14842   0.00000  Uiso   1.00
C322   C     0.92984   0.48971   0.00293   0.00000  Uiso   1.00
C323   C     0.87406   0.50164   0.09068   0.00000  Uiso   1.00
C324   C     0.74457   0.52722   0.43629   0.00000  Uiso   1.00
C325   C     0.73054   0.52822   0.49285   0.00000  Uiso   1.00
C326   C     0.76396   0.51939   0.01846   0.00000  Uiso   1.00
C327   C     0.82712   0.52513   0.43412   0.00000  Uiso   1.00
C328   C     0.84945   0.51439   0.01346   0.00000  Uiso   1.00
C329   C     0.89650   0.50592   0.48075   0.00000  Uiso   1.00
C330   C     0.90993   0.51752   0.42750   0.00000  Uiso   1.00
C331   C     0.87553   0.53216   0.40675   0.00000  Uiso   1.00
C332   C     0.84159   0.51848   0.06783   0.00000  Uiso   1.00
C333   C     0.91791   0.48546   0.05843   0.00000  Uiso   1.00
F334   F     0.70389   0.57014   0.27911   0.00000  Uiso   1.00
F335   F     0.94831   0.57177   0.27239   0.00000  Uiso   1.00
F336   F     0.80600   0.54378   0.09765   0.00000  Uiso   1.00
F337   F     0.74715   0.50834   0.07056   0.00000  Uiso   1.00
F338   F     0.88908   0.55557   0.36208   0.00000  Uiso   1.00
H339   H     0.78542   0.37155   0.20474   0.00000  Uiso   1.00
H340   H     0.67990   0.53142   0.43277   0.00000  Uiso   1.00
H341   H     0.67115   0.55808   0.00808   0.00000  Uiso   1.00
H342   H     0.78491   0.62910   0.20447   0.00000  Uiso   1.00
H343   H     0.71732   0.43771   0.22268   0.00000  Uiso   1.00
H344   H     0.94688   0.51796   0.40322   0.00000  Uiso   1.00
H345   H     0.96452   0.47994   0.47732   0.00000  Uiso   1.00
H346   H     0.87883   0.62722   0.30011   0.00000  Uiso   1.00
H347   H     0.97717   0.45685   0.05309   0.00000  Uiso   1.00
H348   H     0.90071   0.35621   0.32433   0.00000  Uiso   1.00
H349   H     0.98693   0.40784   0.20812   0.00000  Uiso   1.00
N350   N     0.71426   0.50001   0.25001   0.00000  Uiso   1.00
N351   N     0.95239   0.49998   0.25001   0.00000  Uiso   1.00
O352   O     0.79512   0.56108   0.25000   0.00000  Uiso   1.00
O353   O     0.88417   0.37630   0.30769   0.00000  Uiso   1.00
O354   O     0.96237   0.43018   0.21766   0.00000  Uiso   1.00
O355   O     0.71264   0.53116   0.40821   0.00000  Uiso   1.00
O356   O     0.68444   0.53533   0.02442   0.00000  Uiso   1.00
O357   O     0.87157   0.56107   0.25000   0.00000  Uiso   1.00
O358   O     0.77613   0.50000   0.32681   0.00000  Uiso   1.00
O359   O     0.85258   0.49999   0.32681   0.00000  Uiso   1.00
O360   O     0.79510   0.43893   0.24999   0.00000  Uiso   1.00
O361   O     0.87154   0.43892   0.25000   0.00000  Uiso   1.00
O362   O     0.81409   0.50001   0.17319   0.00000  Uiso   1.00
O363   O     0.89053   0.50000   0.17319   0.00000  Uiso   1.00
O364   O     0.94862   0.46701   0.08162   0.00000  Uiso   1.00
Zn365  Zn    0.78229   0.50001   0.25000   0.00000  Uiso   1.00
Zn366  Zn    0.88438   0.49999   0.25000   0.00000  Uiso   1.00
C367   C     0.16647   0.91324   0.25032   0.00000  Uiso   1.00
C368   C     0.12624   0.85415   0.40740   0.00000  Uiso   1.00
C369   C     0.19246   0.97798   0.27894   0.00000  Uiso   1.00
C370   C     0.14106   0.84005   0.35080   0.00000  Uiso   1.00
C371   C     0.19282   0.68785   0.27974   0.00000  Uiso   1.00
C372   C     0.16632   0.70917   0.25228   0.00000  Uiso   1.00
C373   C     0.13908   0.68819   0.22589   0.00000  Uiso   1.00
C374   C     0.13877   0.97875   0.22567   0.00000  Uiso   1.00
C375   C     0.16588   0.95734   0.25162   0.00000  Uiso   1.00
C376   C     0.31393   0.79833   0.23473   0.00000  Uiso   1.00
C377   C     0.02859   0.79860   0.23497   0.00000  Uiso   1.00
C378   C     0.14648   0.85372   0.48983   0.00000  Uiso   1.00
C379   C     0.01973   0.86826   0.26405   0.00000  Uiso   1.00
C380   C     0.30592   0.86856   0.26274   0.00000  Uiso   1.00
C381   C     0.16654   0.75340   0.25085   0.00000  Uiso   1.00
C382   C     0.19258   0.83336   0.14842   0.00000  Uiso   1.00
C383   C     0.26317   0.82304   0.00293   0.00000  Uiso   1.00
C384   C     0.20739   0.83498   0.09068   0.00000  Uiso   1.00
C385   C     0.07790   0.86055   0.43629   0.00000  Uiso   1.00
C386   C     0.06387   0.86156   0.49285   0.00000  Uiso   1.00
C387   C     0.09729   0.85272   0.01846   0.00000  Uiso   1.00
C388   C     0.16045   0.85846   0.43412   0.00000  Uiso   1.00
C389   C     0.18278   0.84772   0.01346   0.00000  Uiso   1.00
C390   C     0.22983   0.83926   0.48075   0.00000  Uiso   1.00
C391   C     0.24327   0.85085   0.42750   0.00000  Uiso   1.00
C392   C     0.20887   0.86549   0.40675   0.00000  Uiso   1.00
C393   C     0.17492   0.85182   0.06783   0.00000  Uiso   1.00
C394   C     0.25125   0.81879   0.05843   0.00000  Uiso   1.00
F395   F     0.03723   0.90347   0.27911   0.00000  Uiso   1.00
F396   F     0.28164   0.90510   0.27239   0.00000  Uiso   1.00
F397   F     0.13933   0.87711   0.09765   0.00000  Uiso   1.00
F398   F     0.08049   0.84167   0.07056   0.00000  Uiso   1.00
F399   F     0.22241   0.88891   0.36208   0.00000  Uiso   1.00
H400   H     0.11876   0.70488   0.20474   0.00000  Uiso   1.00
H401   H     0.01324   0.86475   0.43277   0.00000  Uiso   1.00
H402   H     0.00448   0.89142   0.00808   0.00000  Uiso   1.00
H403   H     0.11825   0.96243   0.20447   0.00000  Uiso   1.00
H404   H     0.05066   0.77104   0.22268   0.00000  Uiso   1.00
H405   H     0.28021   0.85129   0.40322   0.00000  Uiso   1.00
H406   H     0.29786   0.81327   0.47732   0.00000  Uiso   1.00
H407   H     0.21216   0.96055   0.30011   0.00000  Uiso   1.00
H408   H     0.31050   0.79018   0.05309   0.00000  Uiso   1.00
H409   H     0.23404   0.68955   0.32433   0.00000  Uiso   1.00
H410   H     0.32026   0.74117   0.20812   0.00000  Uiso   1.00
N411   N     0.04760   0.83334   0.25001   0.00000  Uiso   1.00
N412   N     0.28573   0.83331   0.25001   0.00000  Uiso   1.00
O413   O     0.12846   0.89442   0.25000   0.00000  Uiso   1.00
O414   O     0.21751   0.70963   0.30769   0.00000  Uiso   1.00
O415   O     0.29571   0.76351   0.21766   0.00000  Uiso   1.00
O416   O     0.04597   0.86450   0.40821   0.00000  Uiso   1.00
O417   O     0.01777   0.86866   0.02442   0.00000  Uiso   1.00
O418   O     0.20490   0.89441   0.25000   0.00000  Uiso   1.00
O419   O     0.10947   0.83333   0.32681   0.00000  Uiso   1.00
O420   O     0.18591   0.83332   0.32681   0.00000  Uiso   1.00
O421   O     0.12843   0.77226   0.24999   0.00000  Uiso   1.00
O422   O     0.20488   0.77225   0.25000   0.00000  Uiso   1.00
O423   O     0.14742   0.83335   0.17319   0.00000  Uiso   1.00
O424   O     0.22387   0.83334   0.17319   0.00000  Uiso   1.00
O425   O     0.28195   0.80034   0.08162   0.00000  Uiso   1.00
Zn426  Zn    0.11562   0.83334   0.25000   0.00000  Uiso   1.00
Zn427  Zn    0.21771   0.83333   0.25000   0.00000  Uiso   1.00
C428   C     0.49980   0.91324   0.25032   0.00000  Uiso   1.00
C429   C     0.45958   0.85415   0.40740   0.00000  Uiso   1.00
C430   C     0.52580   0.97798   0.27894   0.00000  Uiso   1.00
C431   C     0.47440   0.84005   0.35080   0.00000  Uiso   1.00
C432   C     0.52615   0.68785   0.27974   0.00000  Uiso   1.00
C433   C     0.49966   0.70917   0.25228   0.00000  Uiso   1.00
C434   C     0.47241   0.68819   0.22589   0.00000  Uiso   1.00
C435   C     0.47210   0.97875   0.22567   0.00000  Uiso   1.00
C436   C     0.49921   0.95734   0.25162   0.00000  Uiso   1.00
C437   C     0.64726   0.79833   0.23473   0.00000  Uiso   1.00
C438   C     0.36192   0.79860   0.23497   0.00000  Uiso   1.00
C439   C     0.47981   0.85372   0.48983   0.00000  Uiso   1.00
C440   C     0.35306   0.86826   0.26405   0.00000  Uiso   1.00
C441   C     0.63925   0.86856   0.26274   0.00000  Uiso   1.00
C442   C     0.49988   0.75340   0.25085   0.00000  Uiso   1.00
C443   C     0.52592   0.83336   0.14842   0.00000  Uiso   1.00
C444   C     0.59651   0.82304   0.00293   0.00000  Uiso   1.00
C445   C     0.54073   0.83498   0.09068   0.00000  Uiso   1.00
C446   C     0.41123   0.86055   0.43629   0.00000  Uiso   1.00
C447   C     0.39721   0.86156   0.49285   0.00000  Uiso   1.00
C448   C     0.43063   0.85272   0.01846   0.00000  Uiso   1.00
C449   C     0.49378   0.85846   0.43412   0.00000  Uiso   1.00
C450   C     0.51612   0.84772   0.01346   0.00000  Uiso   1.00
C451   C     0.56316   0.83926   0.48075   0.00000  Uiso   1.00
C452   C     0.57660   0.85085   0.42750   0.00000  Uiso   1.00
C453   C     0.54220   0.86549   0.40675   0.00000  Uiso   1.00
C454   C     0.50826   0.85182   0.06783   0.00000  Uiso   1.00
C455   C     0.58458   0.81879   0.05843   0.00000  Uiso   1.00
F456   F     0.37056   0.90347   0.27911   0.00000  Uiso   1.00
F457   F     0.61498   0.90510   0.27239   0.00000  Uiso   1.00
F458   F     0.47266   0.87711   0.09765   0.00000  Uiso   1.00
F459   F     0.41382   0.84167   0.07056   0.00000  Uiso   1.00
F460   F     0.55575   0.88891   0.36208   0.00000  Uiso   1.00
H461   H     0.45209   0.70488   0.20474   0.00000  Uiso   1.00
H462   H     0.34657   0.86475   0.43277   0.00000  Uiso   1.00
H463   H     0.33782   0.89142   0.00808   0.00000  Uiso   1.00
H464   H     0.45158   0.96243   0.20447   0.00000  Uiso   1.00
H465   H     0.38399   0.77104   0.22268   0.00000  Uiso   1.00
H466   H     0.61354   0.85129   0.40322   0.00000  Uiso   1.00
H467   H     0.63119   0.81327   0.47732   0.00000  Uiso   1.00
H468   H     0.54550   0.96055   0.30011   0.00000  Uiso   1.00
H469   H     0.64384   0.79018   0.05309   0.00000  Uiso   1.00
H470   H     0.56737   0.68955   0.32433   0.00000  Uiso   1.00
H471   H     0.65359   0.74117   0.20812   0.00000  Uiso   1.00
N472   N     0.38093   0.83334   0.25001   0.00000  Uiso   1.00
N473   N     0.61906   0.83331   0.25001   0.00000  Uiso   1.00
O474   O     0.46179   0.89442   0.25000   0.00000  Uiso   1.00
O475   O     0.55084   0.70963   0.30769   0.00000  Uiso   1.00
O476   O     0.62904   0.76351   0.21766   0.00000  Uiso   1.00
O477   O     0.37930   0.86450   0.40821   0.00000  Uiso   1.00
O478   O     0.35110   0.86866   0.02442   0.00000  Uiso   1.00
O479   O     0.53823   0.89441   0.25000   0.00000  Uiso   1.00
O480   O     0.44280   0.83333   0.32681   0.00000  Uiso   1.00
O481   O     0.51924   0.83332   0.32681   0.00000  Uiso   1.00
O482   O     0.46177   0.77226   0.24999   0.00000  Uiso   1.00
O483   O     0.53821   0.77225   0.25000   0.00000  Uiso   1.00
O484   O     0.48076   0.83335   0.17319   0.00000  Uiso   1.00
O485   O     0.55720   0.83334   0.17319   0.00000  Uiso   1.00
O486   O     0.61528   0.80034   0.08162   0.00000  Uiso   1.00
Zn487  Zn    0.44896   0.83334   0.25000   0.00000  Uiso   1.00
Zn488  Zn    0.55104   0.83333   0.25000   0.00000  Uiso   1.00
C489   C     0.83314   0.91324   0.25032   0.00000  Uiso   1.00
C490   C     0.79291   0.85415   0.40740   0.00000  Uiso   1.00
C491   C     0.85913   0.97798   0.27894   0.00000  Uiso   1.00
C492   C     0.80773   0.84005   0.35080   0.00000  Uiso   1.00
C493   C     0.85948   0.68785   0.27974   0.00000  Uiso   1.00
C494   C     0.83299   0.70917   0.25228   0.00000  Uiso   1.00
C495   C     0.80575   0.68819   0.22589   0.00000  Uiso   1.00
C496   C     0.80543   0.97875   0.22567   0.00000  Uiso   1.00
C497   C     0.83254   0.95734   0.25162   0.00000  Uiso   1.00
C498   C     0.98059   0.79833   0.23473   0.00000  Uiso   1.00
C499   C     0.69526   0.79860   0.23497   0.00000  Uiso   1.00
C500   C     0.81315   0.85372   0.48983   0.00000  Uiso   1.00
C501   C     0.68639   0.86826   0.26405   0.00000  Uiso   1.00
C502   C     0.97258   0.86856   0.26274   0.00000  Uiso   1.00
C503   C     0.83321   0.75340   0.25085   0.00000  Uiso   1.00
C504   C     0.85925   0.83336   0.14842   0.00000  Uiso   1.00
C505   C     0.92984   0.82304   0.00293   0.00000  Uiso   1.00
C506   C     0.87406   0.83498   0.09068   0.00000  Uiso   1.00
C507   C     0.74457   0.86055   0.43629   0.00000  Uiso   1.00
C508   C     0.73054   0.86156   0.49285   0.00000  Uiso   1.00
C509   C     0.76396   0.85272   0.01846   0.00000  Uiso   1.00
C510   C     0.82712   0.85846   0.43412   0.00000  Uiso   1.00
C511   C     0.84945   0.84772   0.01346   0.00000  Uiso   1.00
C512   C     0.89650   0.83926   0.48075   0.00000  Uiso   1.00
C513   C     0.90993   0.85085   0.42750   0.00000  Uiso   1.00
C514   C     0.87553   0.86549   0.40675   0.00000  Uiso   1.00
C515   C     0.84159   0.85182   0.06783   0.00000  Uiso   1.00
C516   C     0.91791   0.81879   0.05843   0.00000  Uiso   1.00
F517   F     0.70389   0.90347   0.27911   0.00000  Uiso   1.00
F518   F     0.94831   0.90510   0.27239   0.00000  Uiso   1.00
F519   F     0.80600   0.87711   0.09765   0.00000  Uiso   1.00
F520   F     0.74715   0.84167   0.07056   0.00000  Uiso   1.00
F521   F     0.88908   0.88891   0.36208   0.00000  Uiso   1.00
H522   H     0.78542   0.70488   0.20474   0.00000  Uiso   1.00
H523   H     0.67990   0.86475   0.43277   0.00000  Uiso   1.00
H524   H     0.67115   0.89142   0.00808   0.00000  Uiso   1.00
H525   H     0.78491   0.96243   0.20447   0.00000  Uiso   1.00
H526   H     0.71732   0.77104   0.22268   0.00000  Uiso   1.00
H527   H     0.94688   0.85129   0.40322   0.00000  Uiso   1.00
H528   H     0.96452   0.81327   0.47732   0.00000  Uiso   1.00
H529   H     0.87883   0.96055   0.30011   0.00000  Uiso   1.00
H530   H     0.97717   0.79018   0.05309   0.00000  Uiso   1.00
H531   H     0.90071   0.68955   0.32433   0.00000  Uiso   1.00
H532   H     0.98693   0.74117   0.20812   0.00000  Uiso   1.00
N533   N     0.71426   0.83334   0.25001   0.00000  Uiso   1.00
N534   N     0.95239   0.83331   0.25001   0.00000  Uiso   1.00
O535   O     0.79512   0.89442   0.25000   0.00000  Uiso   1.00
O536   O     0.88417   0.70963   0.30769   0.00000  Uiso   1.00
O537   O     0.96237   0.76351   0.21766   0.00000  Uiso   1.00
O538   O     0.71264   0.86450   0.40821   0.00000  Uiso   1.00
O539   O     0.68444   0.86866   0.02442   0.00000  Uiso   1.00
O540   O     0.87157   0.89441   0.25000   0.00000  Uiso   1.00
O541   O     0.77613   0.83333   0.32681   0.00000  Uiso   1.00
O542   O     0.85258   0.83332   0.32681   0.00000  Uiso   1.00
O543   O     0.79510   0.77226   0.24999   0.00000  Uiso   1.00
O544   O     0.87154   0.77225   0.25000   0.00000  Uiso   1.00
O545   O     0.81409   0.83335   0.17319   0.00000  Uiso   1.00
O546   O     0.89053   0.83334   0.17319   0.00000  Uiso   1.00
O547   O     0.94862   0.80034   0.08162   0.00000  Uiso   1.00
Zn548  Zn    0.78229   0.83334   0.25000   0.00000  Uiso   1.00
Zn549  Zn    0.88438   0.83333   0.25000   0.00000  Uiso   1.00
C550   C     0.16647   0.24657   0.75032   0.00000  Uiso   1.00
C551   C     0.12624   0.18748   0.90740   0.00000  Uiso   1.00
C552   C     0.19246   0.31131   0.77894   0.00000  Uiso   1.00
C553   C     0.14106   0.17339   0.85080   0.00000  Uiso   1.00
C554   C     0.19282   0.02118   0.77974   0.00000  Uiso   1.00
C555   C     0.16632   0.04250   0.75228   0.00000  Uiso   1.00
C556   C     0.13908   0.02153   0.72589   0.00000  Uiso   1.00
C557   C     0.13877   0.31208   0.72567   0.00000  Uiso   1.00
C558   C     0.16588   0.29067   0.75162   0.00000  Uiso   1.00
C559   C     0.31393   0.13166   0.73473   0.00000  Uiso   1.00
C560   C     0.02859   0.13193   0.73497   0.00000  Uiso   1.00
C561   C     0.14648   0.18705   0.98983   0.00000  Uiso   1.00
C562   C     0.01973   0.20159   0.76405   0.00000  Uiso   1.00
C563   C     0.30592   0.20189   0.76274   0.00000  Uiso   1.00
C564   C     0.16654   0.08673   0.75085   0.00000  Uiso   1.00
C565   C     0.19258   0.16670   0.64842   0.00000  Uiso   1.00
C566   C     0.26317   0.15637   0.50293   0.00000  Uiso   1.00
C567   C     0.20739   0.16831   0.59068   0.00000  Uiso   1.00
C568   C     0.07790   0.19388   0.93629   0.00000  Uiso   1.00
C569   C     0.06387   0.19489   0.99285   0.00000  Uiso   1.00
C570   C     0.09729   0.18606   0.51846   0.00000  Uiso   1.00
C571   C     0.16045   0.19179   0.93412   0.00000  Uiso   1.00
C572   C     0.18278   0.18106   0.51346   0.00000  Uiso   1.00
C573   C     0.22983   0.17259   0.98075   0.00000  Uiso   1.00
C574   C     0.24327   0.18419   0.92750   0.00000  Uiso   1.00
C575   C     0.20887   0.19882   0.90675   0.00000  Uiso   1.00
C576   C     0.17492   0.18515   0.56783   0.00000  Uiso   1.00
C577   C     0.25125   0.15213   0.55843   0.00000  Uiso   1.00
F578   F     0.03723   0.23681   0.77911   0.00000  Uiso   1.00
F579   F     0.28164   0.23844   0.77239   0.00000  Uiso   1.00
F580   F     0.13933   0.21044   0.59765   0.00000  Uiso   1.00
F581   F     0.08049   0.17500   0.57056   0.00000  Uiso   1.00
F582   F     0.22241   0.22224   0.86208   0.00000  Uiso   1.00
H583   H     0.11876   0.03822   0.70474   0.00000  Uiso   1.00
H584   H     0.01324   0.19808   0.93277   0.00000  Uiso   1.00
H585   H     0.00448   0.22475   0.50808   0.00000  Uiso   1.00
H586   H     0.11825   0.29576   0.70447   0.00000  Uiso   1.00
H587   H     0.05066   0.10437   0.72268   0.00000  Uiso   1.00
H588   H     0.28021   0.18463   0.90322   0.00000  Uiso   1.00
H589   H     0.29786   0.14660   0.97732   0.00000  Uiso   1.00
H590   H     0.21216   0.29389   0.80011   0.00000  Uiso   1.00
H591   H     0.31050   0.12351   0.55309   0.00000  Uiso   1.00
H592   H     0.23404   0.02288   0.82433   0.00000  Uiso   1.00
H593   H     0.32026   0.07450   0.70812   0.00000  Uiso   1.00
N594   N     0.04760   0.16668   0.75001   0.00000  Uiso   1.00
N595   N     0.28573   0.16665   0.75001   0.00000  Uiso   1.00
O596   O     0.12846   0.22775   0.75000   0.00000  Uiso   1.00
O597   O     0.21751   0.04296   0.80769   0.00000  Uiso   1.00
O598   O     0.29571   0.09684   0.71766   0.00000  Uiso   1.00
O599   O     0.04597   0.19783   0.90821   0.00000  Uiso   1.00
O600   O     0.01777   0.20200   0.52442   0.00000  Uiso   1.00
O601   O     0.20490   0.22774   0.75000   0.00000  Uiso   1.00
O602   O     0.10947   0.16666   0.82681   0.00000  Uiso   1.00
O603   O     0.18591   0.16665   0.82681   0.00000  Uiso   1.00
O604   O     0.12843   0.10559   0.74999   0.00000  Uiso   1.00
O605   O     0.20488   0.10558   0.75000   0.00000  Uiso   1.00
O606   O     0.14742   0.16668   0.67319   0.00000  Uiso   1.00
O607   O     0.22387   0.16667   0.67319   0.00000  Uiso   1.00
O608   O     0.28195   0.13367   0.58162   0.00000  Uiso   1.00
Zn609  Zn    0.11562   0.16667   0.75000   0.00000  Uiso   1.00
Zn610  Zn    0.21771   0.16666   0.75000   0.00000  Uiso   1.00
C611   C     0.49980   0.24657   0.75032   0.00000  Uiso   1.00
C612   C     0.45958   0.18748   0.90740   0.00000  Uiso   1.00
C613   C     0.52580   0.31131   0.77894   0.00000  Uiso   1.00
C614   C     0.47440   0.17339   0.85080   0.00000  Uiso   1.00
C615   C     0.52615   0.02118   0.77974   0.00000  Uiso   1.00
C616   C     0.49966   0.04250   0.75228   0.00000  Uiso   1.00
C617   C     0.47241   0.02153   0.72589   0.00000  Uiso   1.00
C618   C     0.47210   0.31208   0.72567   0.00000  Uiso   1.00
C619   C     0.49921   0.29067   0.75162   0.00000  Uiso   1.00
C620   C     0.64726   0.13166   0.73473   0.00000  Uiso   1.00
C621   C     0.36192   0.13193   0.73497   0.00000  Uiso   1.00
C622   C     0.47981   0.18705   0.98983   0.00000  Uiso   1.00
C623   C     0.35306   0.20159   0.76405   0.00000  Uiso   1.00
C624   C     0.63925   0.20189   0.76274   0.00000  Uiso   1.00
C625   C     0.49988   0.08673   0.75085   0.00000  Uiso   1.00
C626   C     0.52592   0.16670   0.64842   0.00000  Uiso   1.00
C627   C     0.59651   0.15637   0.50293   0.00000  Uiso   1.00
C628   C     0.54073   0.16831   0.59068   0.00000  Uiso   1.00
C629   C     0.41123   0.19388   0.93629   0.00000  Uiso   1.00
C630   C     0.39721   0.19489   0.99285   0.00000  Uiso   1.00
C631   C     0.43063   0.18606   0.51846   0.00000  Uiso   1.00
C632   C     0.49378   0.19179   0.93412   0.00000  Uiso   1.00
C633   C     0.51612   0.18106   0.51346   0.00000  Uiso   1.00
C634   C     0.56316   0.17259   0.98075   0.00000  Uiso   1.00
C635   C     0.57660   0.18419   0.92750   0.00000  Uiso   1.00
C636   C     0.54220   0.19882   0.90675   0.00000  Uiso   1.00
C637   C     0.50826   0.18515   0.56783   0.00000  Uiso   1.00
C638   C     0.58458   0.15213   0.55843   0.00000  Uiso   1.00
F639   F     0.37056   0.23681   0.77911   0.00000  Uiso   1.00
F640   F     0.61498   0.23844   0.77239   0.00000  Uiso   1.00
F641   F     0.47266   0.21044   0.59765   0.00000  Uiso   1.00
F642   F     0.41382   0.17500   0.57056   0.00000  Uiso   1.00
F643   F     0.55575   0.22224   0.86208   0.00000  Uiso   1.00
H644   H     0.45209   0.03822   0.70474   0.00000  Uiso   1.00
H645   H     0.34657   0.19808   0.93277   0.00000  Uiso   1.00
H646   H     0.33782   0.22475   0.50808   0.00000  Uiso   1.00
H647   H     0.45158   0.29576   0.70447   0.00000  Uiso   1.00
H648   H     0.38399   0.10437   0.72268   0.00000  Uiso   1.00
H649   H     0.61354   0.18463   0.90322   0.00000  Uiso   1.00
H650   H     0.63119   0.14660   0.97732   0.00000  Uiso   1.00
H651   H     0.54550   0.29389   0.80011   0.00000  Uiso   1.00
H652   H     0.64384   0.12351   0.55309   0.00000  Uiso   1.00
H653   H     0.56737   0.02288   0.82433   0.00000  Uiso   1.00
H654   H     0.65359   0.07450   0.70812   0.00000  Uiso   1.00
N655   N     0.38093   0.16668   0.75001   0.00000  Uiso   1.00
N656   N     0.61906   0.16665   0.75001   0.00000  Uiso   1.00
O657   O     0.46179   0.22775   0.75000   0.00000  Uiso   1.00
O658   O     0.55084   0.04296   0.80769   0.00000  Uiso   1.00
O659   O     0.62904   0.09684   0.71766   0.00000  Uiso   1.00
O660   O     0.37930   0.19783   0.90821   0.00000  Uiso   1.00
O661   O     0.35110   0.20200   0.52442   0.00000  Uiso   1.00
O662   O     0.53823   0.22774   0.75000   0.00000  Uiso   1.00
O663   O     0.44280   0.16666   0.82681   0.00000  Uiso   1.00
O664   O     0.51924   0.16665   0.82681   0.00000  Uiso   1.00
O665   O     0.46177   0.10559   0.74999   0.00000  Uiso   1.00
O666   O     0.53821   0.10558   0.75000   0.00000  Uiso   1.00
O667   O     0.48076   0.16668   0.67319   0.00000  Uiso   1.00
O668   O     0.55720   0.16667   0.67319   0.00000  Uiso   1.00
O669   O     0.61528   0.13367   0.58162   0.00000  Uiso   1.00
Zn670  Zn    0.44896   0.16667   0.75000   0.00000  Uiso   1.00
Zn671  Zn    0.55104   0.16666   0.75000   0.00000  Uiso   1.00
C672   C     0.83314   0.24657   0.75032   0.00000  Uiso   1.00
C673   C     0.79291   0.18748   0.90740   0.00000  Uiso   1.00
C674   C     0.85913   0.31131   0.77894   0.00000  Uiso   1.00
C675   C     0.80773   0.17339   0.85080   0.00000  Uiso   1.00
C676   C     0.85948   0.02118   0.77974   0.00000  Uiso   1.00
C677   C     0.83299   0.04250   0.75228   0.00000  Uiso   1.00
C678   C     0.80575   0.02153   0.72589   0.00000  Uiso   1.00
C679   C     0.80543   0.31208   0.72567   0.00000  Uiso   1.00
C680   C     0.83254   0.29067   0.75162   0.00000  Uiso   1.00
C681   C     0.98059   0.13166   0.73473   0.00000  Uiso   1.00
C682   C     0.69526   0.13193   0.73497   0.00000  Uiso   1.00
C683   C     0.81315   0.18705   0.98983   0.00000  Uiso   1.00
C684   C     0.68639   0.20159   0.76405   0.00000  Uiso   1.00
C685   C     0.97258   0.20189   0.76274   0.00000  Uiso   1.00
C686   C     0.83321   0.08673   0.75085   0.00000  Uiso   1.00
C687   C     0.85925   0.16670   0.64842   0.00000  Uiso   1.00
C688   C     0.92984   0.15637   0.50293   0.00000  Uiso   1.00
C689   C     0.87406   0.16831   0.59068   0.00000  Uiso   1.00
C690   C     0.74457   0.19388   0.93629   0.00000  Uiso   1.00
C691   C     0.73054   0.19489   0.99285   0.00000  Uiso   1.00
C692   C     0.76396   0.18606   0.51846   0.00000  Uiso   1.00
C693   C     0.82712   0.19179   0.93412   0.00000  Uiso   1.00
C694   C     0.84945   0.18106   0.51346   0.00000  Uiso   1.00
C695   C     0.89650   0.17259   0.98075   0.00000  Uiso   1.00
C696   C     0.90993   0.18419   0.92750   0.00000  Uiso   1.00
C697   C     0.87553   0.19882   0.90675   0.00000  Uiso   1.00
C698   C     0.84159   0.18515   0.56783   0.00000  Uiso   1.00
C699   C     0.91791   0.15213   0.55843   0.00000  Uiso   1.00
F700   F     0.70389   0.23681   0.77911   0.00000  Uiso   1.00
F701   F     0.94831   0.23844   0.77239   0.00000  Uiso   1.00
F702   F     0.80600   0.21044   0.59765   0.00000  Uiso   1.00
F703   F     0.74715   0.17500   0.57056   0.00000  Uiso   1.00
F704   F     0.88908   0.22224   0.86208   0.00000  Uiso   1.00
H705   H     0.78542   0.03822   0.70474   0.00000  Uiso   1.00
H706   H     0.67990   0.19808   0.93277   0.00000  Uiso   1.00
H707   H     0.67115   0.22475   0.50808   0.00000  Uiso   1.00
H708   H     0.78491   0.29576   0.70447   0.00000  Uiso   1.00
H709   H     0.71732   0.10437   0.72268   0.00000  Uiso   1.00
H710   H     0.94688   0.18463   0.90322   0.00000  Uiso   1.00
H711   H     0.96452   0.14660   0.97732   0.00000  Uiso   1.00
H712   H     0.87883   0.29389   0.80011   0.00000  Uiso   1.00
H713   H     0.97717   0.12351   0.55309   0.00000  Uiso   1.00
H714   H     0.90071   0.02288   0.82433   0.00000  Uiso   1.00
H715   H     0.98693   0.07450   0.70812   0.00000  Uiso   1.00
N716   N     0.71426   0.16668   0.75001   0.00000  Uiso   1.00
N717   N     0.95239   0.16665   0.75001   0.00000  Uiso   1.00
O718   O     0.79512   0.22775   0.75000   0.00000  Uiso   1.00
O719   O     0.88417   0.04296   0.80769   0.00000  Uiso   1.00
O720   O     0.96237   0.09684   0.71766   0.00000  Uiso   1.00
O721   O     0.71264   0.19783   0.90821   0.00000  Uiso   1.00
O722   O     0.68444   0.20200   0.52442   0.00000  Uiso   1.00
O723   O     0.87157   0.22774   0.75000   0.00000  Uiso   1.00
O724   O     0.77613   0.16666   0.82681   0.00000  Uiso   1.00
O725   O     0.85258   0.16665   0.82681   0.00000  Uiso   1.00
O726   O     0.79510   0.10559   0.74999   0.00000  Uiso   1.00
O727   O     0.87154   0.10558   0.75000   0.00000  Uiso   1.00
O728   O     0.81409   0.16668   0.67319   0.00000  Uiso   1.00
O729   O     0.89053   0.16667   0.67319   0.00000  Uiso   1.00
O730   O     0.94862   0.13367   0.58162   0.00000  Uiso   1.00
Zn731  Zn    0.78229   0.16667   0.75000   0.00000  Uiso   1.00
Zn732  Zn    0.88438   0.16666   0.75000   0.00000  Uiso   1.00
C733   C     0.16647   0.57991   0.75032   0.00000  Uiso   1.00
C734   C     0.12624   0.52082   0.90740   0.00000  Uiso   1.00
C735   C     0.19246   0.64465   0.77894   0.00000  Uiso   1.00
C736   C     0.14106   0.50672   0.85080   0.00000  Uiso   1.00
C737   C     0.19282   0.35452   0.77974   0.00000  Uiso   1.00
C738   C     0.16632   0.37584   0.75228   0.00000  Uiso   1.00
C739   C     0.13908   0.35486   0.72589   0.00000  Uiso   1.00
C740   C     0.13877   0.64542   0.72567   0.00000  Uiso   1.00
C741   C     0.16588   0.62400   0.75162   0.00000  Uiso   1.00
C742   C     0.31393   0.46500   0.73473   0.00000  Uiso   1.00
C743   C     0.02859   0.46526   0.73497   0.00000  Uiso   1.00
C744   C     0.14648   0.52038   0.98983   0.00000  Uiso   1.00
C745   C     0.01973   0.53493   0.76405   0.00000  Uiso   1.00
C746   C     0.30592   0.53523   0.76274   0.00000  Uiso   1.00
C747   C     0.16654   0.42007   0.75085   0.00000  Uiso   1.00
C748   C     0.19258   0.50003   0.64842   0.00000  Uiso   1.00
C749   C     0.26317   0.48971   0.50293   0.00000  Uiso   1.00
C750   C     0.20739   0.50164   0.59068   0.00000  Uiso   1.00
C751   C     0.07790   0.52722   0.93629   0.00000  Uiso   1.00
C752   C     0.06387   0.52822   0.99285   0.00000  Uiso   1.00
C753   C     0.09729   0.51939   0.51846   0.00000  Uiso   1.00
C754   C     0.16045   0.52513   0.93412   0.00000  Uiso   1.00
C755   C     0.18278   0.51439   0.51346   0.00000  Uiso   1.00
C756   C     0.22983   0.50592   0.98075   0.00000  Uiso   1.00
C757   C     0.24327   0.51752   0.92750   0.00000  Uiso   1.00
C758   C     0.20887   0.53216   0.90675   0.00000  Uiso   1.00
C759   C     0.17492   0.51848   0.56783   0.00000  Uiso   1.00
C760   C     0.25125   0.48546   0.55843   0.00000  Uiso   1.00
F761   F     0.03723   0.57014   0.77911   0.00000  Uiso   1.00
F762   F     0.28164   0.57177   0.77239   0.00000  Uiso   1.00
F763   F     0.13933   0.54378   0.59765   0.00000  Uiso   1.00
F764   F     0.08049   0.50834   0.57056   0.00000  Uiso   1.00
F765   F     0.22241   0.55557   0.86208   0.00000  Uiso   1.00
H766   H     0.11876   0.37155   0.70474   0.00000  Uiso   1.00
H767   H     0.01324   0.53142   0.93277   0.00000  Uiso   1.00
H768   H     0.00448   0.55808   0.50808   0.00000  Uiso   1.00
H769   H     0.11825   0.62910   0.70447   0.00000  Uiso   1.00
H770   H     0.05066   0.43771   0.72268   0.00000  Uiso   1.00
H771   H     0.28021   0.51796   0.90322   0.00000  Uiso   1.00
H772   H     0.29786   0.47994   0.97732   0.00000  Uiso   1.00
H773   H     0.21216   0.62722   0.80011   0.00000  Uiso   1.00
H774   H     0.31050   0.45685   0.55309   0.00000  Uiso   1.00
H775   H     0.23404   0.35621   0.82433   0.00000  Uiso   1.00
H776   H     0.32026   0.40784   0.70812   0.00000  Uiso   1.00
N777   N     0.04760   0.50001   0.75001   0.00000  Uiso   1.00
N778   N     0.28573   0.49998   0.75001   0.00000  Uiso   1.00
O779   O     0.12846   0.56108   0.75000   0.00000  Uiso   1.00
O780   O     0.21751   0.37630   0.80769   0.00000  Uiso   1.00
O781   O     0.29571   0.43018   0.71766   0.00000  Uiso   1.00
O782   O     0.04597   0.53116   0.90821   0.00000  Uiso   1.00
O783   O     0.01777   0.53533   0.52442   0.00000  Uiso   1.00
O784   O     0.20490   0.56107   0.75000   0.00000  Uiso   1.00
O785   O     0.10947   0.50000   0.82681   0.00000  Uiso   1.00
O786   O     0.18591   0.49999   0.82681   0.00000  Uiso   1.00
O787   O     0.12843   0.43893   0.74999   0.00000  Uiso   1.00
O788   O     0.20488   0.43892   0.75000   0.00000  Uiso   1.00
O789   O     0.14742   0.50001   0.67319   0.00000  Uiso   1.00
O790   O     0.22387   0.50000   0.67319   0.00000  Uiso   1.00
O791   O     0.28195   0.46701   0.58162   0.00000  Uiso   1.00
Zn792  Zn    0.11562   0.50001   0.75000   0.00000  Uiso   1.00
Zn793  Zn    0.21771   0.49999   0.75000   0.00000  Uiso   1.00
C794   C     0.49980   0.57991   0.75032   0.00000  Uiso   1.00
C795   C     0.45958   0.52082   0.90740   0.00000  Uiso   1.00
C796   C     0.52580   0.64465   0.77894   0.00000  Uiso   1.00
C797   C     0.47440   0.50672   0.85080   0.00000  Uiso   1.00
C798   C     0.52615   0.35452   0.77974   0.00000  Uiso   1.00
C799   C     0.49966   0.37584   0.75228   0.00000  Uiso   1.00
C800   C     0.47241   0.35486   0.72589   0.00000  Uiso   1.00
C801   C     0.47210   0.64542   0.72567   0.00000  Uiso   1.00
C802   C     0.49921   0.62400   0.75162   0.00000  Uiso   1.00
C803   C     0.64726   0.46500   0.73473   0.00000  Uiso   1.00
C804   C     0.36192   0.46526   0.73497   0.00000  Uiso   1.00
C805   C     0.47981   0.52038   0.98983   0.00000  Uiso   1.00
C806   C     0.35306   0.53493   0.76405   0.00000  Uiso   1.00
C807   C     0.63925   0.53523   0.76274   0.00000  Uiso   1.00
C808   C     0.49988   0.42007   0.75085   0.00000  Uiso   1.00
C809   C     0.52592   0.50003   0.64842   0.00000  Uiso   1.00
C810   C     0.59651   0.48971   0.50293   0.00000  Uiso   1.00
C811   C     0.54073   0.50164   0.59068   0.00000  Uiso   1.00
C812   C     0.41123   0.52722   0.93629   0.00000  Uiso   1.00
C813   C     0.39721   0.52822   0.99285   0.00000  Uiso   1.00
C814   C     0.43063   0.51939   0.51846   0.00000  Uiso   1.00
C815   C     0.49378   0.52513   0.93412   0.00000  Uiso   1.00
C816   C     0.51612   0.51439   0.51346   0.00000  Uiso   1.00
C817   C     0.56316   0.50592   0.98075   0.00000  Uiso   1.00
C818   C     0.57660   0.51752   0.92750   0.00000  Uiso   1.00
C819   C     0.54220   0.53216   0.90675   0.00000  Uiso   1.00
C820   C     0.50826   0.51848   0.56783   0.00000  Uiso   1.00
C821   C     0.58458   0.48546   0.55843   0.00000  Uiso   1.00
F822   F     0.37056   0.57014   0.77911   0.00000  Uiso   1.00
F823   F     0.61498   0.57177   0.77239   0.00000  Uiso   1.00
F824   F     0.47266   0.54378   0.59765   0.00000  Uiso   1.00
F825   F     0.41382   0.50834   0.57056   0.00000  Uiso   1.00
F826   F     0.55575   0.55557   0.86208   0.00000  Uiso   1.00
H827   H     0.45209   0.37155   0.70474   0.00000  Uiso   1.00
H828   H     0.34657   0.53142   0.93277   0.00000  Uiso   1.00
H829   H     0.33782   0.55808   0.50808   0.00000  Uiso   1.00
H830   H     0.45158   0.62910   0.70447   0.00000  Uiso   1.00
H831   H     0.38399   0.43771   0.72268   0.00000  Uiso   1.00
H832   H     0.61354   0.51796   0.90322   0.00000  Uiso   1.00
H833   H     0.63119   0.47994   0.97732   0.00000  Uiso   1.00
H834   H     0.54550   0.62722   0.80011   0.00000  Uiso   1.00
H835   H     0.64384   0.45685   0.55309   0.00000  Uiso   1.00
H836   H     0.56737   0.35621   0.82433   0.00000  Uiso   1.00
H837   H     0.65359   0.40784   0.70812   0.00000  Uiso   1.00
N838   N     0.38093   0.50001   0.75001   0.00000  Uiso   1.00
N839   N     0.61906   0.49998   0.75001   0.00000  Uiso   1.00
O840   O     0.46179   0.56108   0.75000   0.00000  Uiso   1.00
O841   O     0.55084   0.37630   0.80769   0.00000  Uiso   1.00
O842   O     0.62904   0.43018   0.71766   0.00000  Uiso   1.00
O843   O     0.37930   0.53116   0.90821   0.00000  Uiso   1.00
O844   O     0.35110   0.53533   0.52442   0.00000  Uiso   1.00
O845   O     0.53823   0.56107   0.75000   0.00000  Uiso   1.00
O846   O     0.44280   0.50000   0.82681   0.00000  Uiso   1.00
O847   O     0.51924   0.49999   0.82681   0.00000  Uiso   1.00
O848   O     0.46177   0.43893   0.74999   0.00000  Uiso   1.00
O849   O     0.53821   0.43892   0.75000   0.00000  Uiso   1.00
O850   O     0.48076   0.50001   0.67319   0.00000  Uiso   1.00
O851   O     0.55720   0.50000   0.67319   0.00000  Uiso   1.00
O852   O     0.61528   0.46701   0.58162   0.00000  Uiso   1.00
Zn853  Zn    0.44896   0.50001   0.75000   0.00000  Uiso   1.00
Zn854  Zn    0.55104   0.49999   0.75000   0.00000  Uiso   1.00
C855   C     0.83314   0.57991   0.75032   0.00000  Uiso   1.00
C856   C     0.79291   0.52082   0.90740   0.00000  Uiso   1.00
C857   C     0.85913   0.64465   0.77894   0.00000  Uiso   1.00
C858   C     0.80773   0.50672   0.85080   0.00000  Uiso   1.00
C859   C     0.85948   0.35452   0.77974   0.00000  Uiso   1.00
C860   C     0.83299   0.37584   0.75228   0.00000  Uiso   1.00
C861   C     0.80575   0.35486   0.72589   0.00000  Uiso   1.00
C862   C     0.80543   0.64542   0.72567   0.00000  Uiso   1.00
C863   C     0.83254   0.62400   0.75162   0.00000  Uiso   1.00
C864   C     0.98059   0.46500   0.73473   0.00000  Uiso   1.00
C865   C     0.69526   0.46526   0.73497   0.00000  Uiso   1.00
C866   C     0.81315   0.52038   0.98983   0.00000  Uiso   1.00
C867   C     0.68639   0.53493   0.76405   0.00000  Uiso   1.00
C868   C     0.97258   0.53523   0.76274   0.00000  Uiso   1.00
C869   C     0.83321   0.42007   0.75085   0.00000  Uiso   1.00
C870   C     0.85925   0.50003   0.64842   0.00000  Uiso   1.00
C871   C     0.92984   0.48971   0.50293   0.00000  Uiso   1.00
C872   C     0.87406   0.50164   0.59068   0.00000  Uiso   1.00
C873   C     0.74457   0.52722   0.93629   0.00000  Uiso   1.00
C874   C     0.73054   0.52822   0.99285   0.00000  Uiso   1.00
C875   C     0.76396   0.51939   0.51846   0.00000  Uiso   1.00
C876   C     0.82712   0.52513   0.93412   0.00000  Uiso   1.00
C877   C     0.84945   0.51439   0.51346   0.00000  Uiso   1.00
C878   C     0.89650   0.50592   0.98075   0.00000  Uiso   1.00
C879   C     0.90993   0.51752   0.92750   0.00000  Uiso   1.00
C880   C     0.87553   0.53216   0.90675   0.00000  Uiso   1.00
C881   C     0.84159   0.51848   0.56783   0.00000  Uiso   1.00
C882   C     0.91791   0.48546   0.55843   0.00000  Uiso   1.00
F883   F     0.70389   0.57014   0.77911   0.00000  Uiso   1.00
F884   F     0.94831   0.57177   0.77239   0.00000  Uiso   1.00
F885   F     0.80600   0.54378   0.59765   0.00000  Uiso   1.00
F886   F     0.74715   0.50834   0.57056   0.00000  Uiso   1.00
F887   F     0.88908   0.55557   0.86208   0.00000  Uiso   1.00
H888   H     0.78542   0.37155   0.70474   0.00000  Uiso   1.00
H889   H     0.67990   0.53142   0.93277   0.00000  Uiso   1.00
H890   H     0.67115   0.55808   0.50808   0.00000  Uiso   1.00
H891   H     0.78491   0.62910   0.70447   0.00000  Uiso   1.00
H892   H     0.71732   0.43771   0.72268   0.00000  Uiso   1.00
H893   H     0.94688   0.51796   0.90322   0.00000  Uiso   1.00
H894   H     0.96452   0.47994   0.97732   0.00000  Uiso   1.00
H895   H     0.87883   0.62722   0.80011   0.00000  Uiso   1.00
H896   H     0.97717   0.45685   0.55309   0.00000  Uiso   1.00
H897   H     0.90071   0.35621   0.82433   0.00000  Uiso   1.00
H898   H     0.98693   0.40784   0.70812   0.00000  Uiso   1.00
N899   N     0.71426   0.50001   0.75001   0.00000  Uiso   1.00
N900   N     0.95239   0.49998   0.75001   0.00000  Uiso   1.00
O901   O     0.79512   0.56108   0.75000   0.00000  Uiso   1.00
O902   O     0.88417   0.37630   0.80769   0.00000  Uiso   1.00
O903   O     0.96237   0.43018   0.71766   0.00000  Uiso   1.00
O904   O     0.71264   0.53116   0.90821   0.00000  Uiso   1.00
O905   O     0.68444   0.53533   0.52442   0.00000  Uiso   1.00
O906   O     0.87157   0.56107   0.75000   0.00000  Uiso   1.00
O907   O     0.77613   0.50000   0.82681   0.00000  Uiso   1.00
O908   O     0.85258   0.49999   0.82681   0.00000  Uiso   1.00
O909   O     0.79510   0.43893   0.74999   0.00000  Uiso   1.00
O910   O     0.87154   0.43892   0.75000   0.00000  Uiso   1.00
O911   O     0.81409   0.50001   0.67319   0.00000  Uiso   1.00
O912   O     0.89053   0.50000   0.67319   0.00000  Uiso   1.00
O913   O     0.94862   0.46701   0.58162   0.00000  Uiso   1.00
Zn914  Zn    0.78229   0.50001   0.75000   0.00000  Uiso   1.00
Zn915  Zn    0.88438   0.49999   0.75000   0.00000  Uiso   1.00
C916   C     0.16647   0.91324   0.75032   0.00000  Uiso   1.00
C917   C     0.12624   0.85415   0.90740   0.00000  Uiso   1.00
C918   C     0.19246   0.97798   0.77894   0.00000  Uiso   1.00
C919   C     0.14106   0.84005   0.85080   0.00000  Uiso   1.00
C920   C     0.19282   0.68785   0.77974   0.00000  Uiso   1.00
C921   C     0.16632   0.70917   0.75228   0.00000  Uiso   1.00
C922   C     0.13908   0.68819   0.72589   0.00000  Uiso   1.00
C923   C     0.13877   0.97875   0.72567   0.00000  Uiso   1.00
C924   C     0.16588   0.95734   0.75162   0.00000  Uiso   1.00
C925   C     0.31393   0.79833   0.73473   0.00000  Uiso   1.00
C926   C     0.02859   0.79860   0.73497   0.00000  Uiso   1.00
C927   C     0.14648   0.85372   0.98983   0.00000  Uiso   1.00
C928   C     0.01973   0.86826   0.76405   0.00000  Uiso   1.00
C929   C     0.30592   0.86856   0.76274   0.00000  Uiso   1.00
C930   C     0.16654   0.75340   0.75085   0.00000  Uiso   1.00
C931   C     0.19258   0.83336   0.64842   0.00000  Uiso   1.00
C932   C     0.26317   0.82304   0.50293   0.00000  Uiso   1.00
C933   C     0.20739   0.83498   0.59068   0.00000  Uiso   1.00
C934   C     0.07790   0.86055   0.93629   0.00000  Uiso   1.00
C935   C     0.06387   0.86156   0.99285   0.00000  Uiso   1.00
C936   C     0.09729   0.85272   0.51846   0.00000  Uiso   1.00
C937   C     0.16045   0.85846   0.93412   0.00000  Uiso   1.00
C938   C     0.18278   0.84772   0.51346   0.00000  Uiso   1.00
C939   C     0.22983   0.83926   0.98075   0.00000  Uiso   1.00
C940   C     0.24327   0.85085   0.92750   0.00000  Uiso   1.00
C941   C     0.20887   0.86549   0.90675   0.00000  Uiso   1.00
C942   C     0.17492   0.85182   0.56783   0.00000  Uiso   1.00
C943   C     0.25125   0.81879   0.55843   0.00000  Uiso   1.00
F944   F     0.03723   0.90347   0.77911   0.00000  Uiso   1.00
F945   F     0.28164   0.90510   0.77239   0.00000  Uiso   1.00
F946   F     0.13933   0.87711   0.59765   0.00000  Uiso   1.00
F947   F     0.08049   0.84167   0.57056   0.00000  Uiso   1.00
F948   F     0.22241   0.88891   0.86208   0.00000  Uiso   1.00
H949   H     0.11876   0.70488   0.70474   0.00000  Uiso   1.00
H950   H     0.01324   0.86475   0.93277   0.00000  Uiso   1.00
H951   H     0.00448   0.89142   0.50808   0.00000  Uiso   1.00
H952   H     0.11825   0.96243   0.70447   0.00000  Uiso   1.00
H953   H     0.05066   0.77104   0.72268   0.00000  Uiso   1.00
H954   H     0.28021   0.85129   0.90322   0.00000  Uiso   1.00
H955   H     0.29786   0.81327   0.97732   0.00000  Uiso   1.00
H956   H     0.21216   0.96055   0.80011   0.00000  Uiso   1.00
H957   H     0.31050   0.79018   0.55309   0.00000  Uiso   1.00
H958   H     0.23404   0.68955   0.82433   0.00000  Uiso   1.00
H959   H     0.32026   0.74117   0.70812   0.00000  Uiso   1.00
N960   N     0.04760   0.83334   0.75001   0.00000  Uiso   1.00
N961   N     0.28573   0.83331   0.75001   0.00000  Uiso   1.00
O962   O     0.12846   0.89442   0.75000   0.00000  Uiso   1.00
O963   O     0.21751   0.70963   0.80769   0.00000  Uiso   1.00
O964   O     0.29571   0.76351   0.71766   0.00000  Uiso   1.00
O965   O     0.04597   0.86450   0.90821   0.00000  Uiso   1.00
O966   O     0.01777   0.86866   0.52442   0.00000  Uiso   1.00
O967   O     0.20490   0.89441   0.75000   0.00000  Uiso   1.00
O968   O     0.10947   0.83333   0.82681   0.00000  Uiso   1.00
O969   O     0.18591   0.83332   0.82681   0.00000  Uiso   1.00
O970   O     0.12843   0.77226   0.74999   0.00000  Uiso   1.00
O971   O     0.20488   0.77225   0.75000   0.00000  Uiso   1.00
O972   O     0.14742   0.83335   0.67319   0.00000  Uiso   1.00
O973   O     0.22387   0.83334   0.67319   0.00000  Uiso   1.00
O974   O     0.28195   0.80034   0.58162   0.00000  Uiso   1.00
Zn975  Zn    0.11562   0.83334   0.75000   0.00000  Uiso   1.00
Zn976  Zn    0.21771   0.83333   0.75000   0.00000  Uiso   1.00
C977   C     0.49980   0.91324   0.75032   0.00000  Uiso   1.00
C978   C     0.45958   0.85415   0.90740   0.00000  Uiso   1.00
C979   C     0.52580   0.97798   0.77894   0.00000  Uiso   1.00
C980   C     0.47440   0.84005   0.85080   0.00000  Uiso   1.00
C981   C     0.52615   0.68785   0.77974   0.00000  Uiso   1.00
C982   C     0.49966   0.70917   0.75228   0.00000  Uiso   1.00
C983   C     0.47241   0.68819   0.72589   0.00000  Uiso   1.00
C984   C     0.47210   0.97875   0.72567   0.00000  Uiso   1.00
C985   C     0.49921   0.95734   0.75162   0.00000  Uiso   1.00
C986   C     0.64726   0.79833   0.73473   0.00000  Uiso   1.00
C987   C     0.36192   0.79860   0.73497   0.00000  Uiso   1.00
C988   C     0.47981   0.85372   0.98983   0.00000  Uiso   1.00
C989   C     0.35306   0.86826   0.76405   0.00000  Uiso   1.00
C990   C     0.63925   0.86856   0.76274   0.00000  Uiso   1.00
C991   C     0.49988   0.75340   0.75085   0.00000  Uiso   1.00
C992   C     0.52592   0.83336   0.64842   0.00000  Uiso   1.00
C993   C     0.59651   0.82304   0.50293   0.00000  Uiso   1.00
C994   C     0.54073   0.83498   0.59068   0.00000  Uiso   1.00
C995   C     0.41123   0.86055   0.93629   0.00000  Uiso   1.00
C996   C     0.39721   0.86156   0.99285   0.00000  Uiso   1.00
C997   C     0.43063   0.85272   0.51846   0.00000  Uiso   1.00
C998   C     0.49378   0.85846   0.93412   0.00000  Uiso   1.00
C999   C     0.51612   0.84772   0.51346   0.00000  Uiso   1.00
C1000  C     0.56316   0.83926   0.98075   0.00000  Uiso   1.00
C1001  C     0.57660   0.85085   0.92750   0.00000  Uiso   1.00
C1002  C     0.54220   0.86549   0.90675   0.00000  Uiso   1.00
C1003  C     0.50826   0.85182   0.56783   0.00000  Uiso   1.00
C1004  C     0.58458   0.81879   0.55843   0.00000  Uiso   1.00
F1005  F     0.37056   0.90347   0.77911   0.00000  Uiso   1.00
F1006  F     0.61498   0.90510   0.77239   0.00000  Uiso   1.00
F1007  F     0.47266   0.87711   0.59765   0.00000  Uiso   1.00
F1008  F     0.41382   0.84167   0.57056   0.00000  Uiso   1.00
F1009  F     0.55575   0.88891   0.86208   0.00000  Uiso   1.00
H1010  H     0.45209   0.70488   0.70474   0.00000  Uiso   1.00
H1011  H     0.34657   0.86475   0.93277   0.00000  Uiso   1.00
H1012  H     0.33782   0.89142   0.50808   0.00000  Uiso   1.00
H1013  H     0.45158   0.96243   0.70447   0.00000  Uiso   1.00
H1014  H     0.38399   0.77104   0.72268   0.00000  Uiso   1.00
H1015  H     0.61354   0.85129   0.90322   0.00000  Uiso   1.00
H1016  H     0.63119   0.81327   0.97732   0.00000  Uiso   1.00
H1017  H     0.54550   0.96055   0.80011   0.00000  Uiso   1.00
H1018  H     0.64384   0.79018   0.55309   0.00000  Uiso   1.00
H1019  H     0.56737   0.68955   0.82433   0.00000  Uiso   1.00
H1020  H     0.65359   0.74117   0.70812   0.00000  Uiso   1.00
N1021  N     0.38093   0.83334   0.75001   0.00000  Uiso   1.00
N1022  N     0.61906   0.83331   0.75001   0.00000  Uiso   1.00
O1023  O     0.46179   0.89442   0.75000   0.00000  Uiso   1.00
O1024  O     0.55084   0.70963   0.80769   0.00000  Uiso   1.00
O1025  O     0.62904   0.76351   0.71766   0.00000  Uiso   1.00
O1026  O     0.37930   0.86450   0.90821   0.00000  Uiso   1.00
O1027  O     0.35110   0.86866   0.52442   0.00000  Uiso   1.00
O1028  O     0.53823   0.89441   0.75000   0.00000  Uiso   1.00
O1029  O     0.44280   0.83333   0.82681   0.00000  Uiso   1.00
O1030  O     0.51924   0.83332   0.82681   0.00000  Uiso   1.00
O1031  O     0.46177   0.77226   0.74999   0.00000  Uiso   1.00
O1032  O     0.53821   0.77225   0.75000   0.00000  Uiso   1.00
O1033  O     0.48076   0.83335   0.67319   0.00000  Uiso   1.00
O1034  O     0.55720   0.83334   0.67319   0.00000  Uiso   1.00
O1035  O     0.61528   0.80034   0.58162   0.00000  Uiso   1.00
Zn1036 Zn    0.44896   0.83334   0.75000   0.00000  Uiso   1.00
Zn1037 Zn    0.55104   0.83333   0.75000   0.00000  Uiso   1.00
C1038  C     0.83314   0.91324   0.75032   0.00000  Uiso   1.00
C1039  C     0.79291   0.85415   0.90740   0.00000  Uiso   1.00
C1040  C     0.85913   0.97798   0.77894   0.00000  Uiso   1.00
C1041  C     0.80773   0.84005   0.85080   0.00000  Uiso   1.00
C1042  C     0.85948   0.68785   0.77974   0.00000  Uiso   1.00
C1043  C     0.83299   0.70917   0.75228   0.00000  Uiso   1.00
C1044  C     0.80575   0.68819   0.72589   0.00000  Uiso   1.00
C1045  C     0.80543   0.97875   0.72567   0.00000  Uiso   1.00
C1046  C     0.83254   0.95734   0.75162   0.00000  Uiso   1.00
C1047  C     0.98059   0.79833   0.73473   0.00000  Uiso   1.00
C1048  C     0.69526   0.79860   0.73497   0.00000  Uiso   1.00
C1049  C     0.81315   0.85372   0.98983   0.00000  Uiso   1.00
C1050  C     0.68639   0.86826   0.76405   0.00000  Uiso   1.00
C1051  C     0.97258   0.86856   0.76274   0.00000  Uiso   1.00
C1052  C     0.83321   0.75340   0.75085   0.00000  Uiso   1.00
C1053  C     0.85925   0.83336   0.64842   0.00000  Uiso   1.00
C1054  C     0.92984   0.82304   0.50293   0.00000  Uiso   1.00
C1055  C     0.87406   0.83498   0.59068   0.00000  Uiso   1.00
C1056  C     0.74457   0.86055   0.93629   0.00000  Uiso   1.00
C1057  C     0.73054   0.86156   0.99285   0.00000  Uiso   1.00
C1058  C     0.76396   0.85272   0.51846   0.00000  Uiso   1.00
C1059  C     0.82712   0.85846   0.93412   0.00000  Uiso   1.00
C1060  C     0.84945   0.84772   0.51346   0.00000  Uiso   1.00
C1061  C     0.89650   0.83926   0.98075   0.00000  Uiso   1.00
C1062  C     0.90993   0.85085   0.92750   0.00000  Uiso   1.00
C1063  C     0.87553   0.86549   0.90675   0.00000  Uiso   1.00
C1064  C     0.84159   0.85182   0.56783   0.00000  Uiso   1.00
C1065  C     0.91791   0.81879   0.55843   0.00000  Uiso   1.00
F1066  F     0.70389   0.90347   0.77911   0.00000  Uiso   1.00
F1067  F     0.94831   0.90510   0.77239   0.00000  Uiso   1.00
F1068  F     0.80600   0.87711   0.59765   0.00000  Uiso   1.00
F1069  F     0.74715   0.84167   0.57056   0.00000  Uiso   1.00
F1070  F     0.88908   0.88891   0.86208   0.00000  Uiso   1.00
H1071  H     0.78542   0.70488   0.70474   0.00000  Uiso   1.00
H1072  H     0.67990   0.86475   0.93277   0.00000  Uiso   1.00
H1073  H     0.67115   0.89142   0.50808   0.00000  Uiso   1.00
H1074  H     0.78491   0.96243   0.70447   0.00000  Uiso   1.00
H1075  H     0.71732   0.77104   0.72268   0.00000  Uiso   1.00
H1076  H     0.94688   0.85129   0.90322   0.00000  Uiso   1.00
H1077  H     0.96452   0.81327   0.97732   0.00000  Uiso   1.00
H1078  H     0.87883   0.96055   0.80011   0.00000  Uiso   1.00
H1079  H     0.97717   0.79018   0.55309   0.00000  Uiso   1.00
H1080  H     0.90071   0.68955   0.82433   0.00000  Uiso   1.00
H1081  H     0.98693   0.74117   0.70812   0.00000  Uiso   1.00
N1082  N     0.71426   0.83334   0.75001   0.00000  Uiso   1.00
N1083  N     0.95239   0.83331   0.75001   0.00000  Uiso   1.00
O1084  O     0.79512   0.89442   0.75000   0.00000  Uiso   1.00
O1085  O     0.88417   0.70963   0.80769   0.00000  Uiso   1.00
O1086  O     0.96237   0.76351   0.71766   0.00000  Uiso   1.00
O1087  O     0.71264   0.86450   0.90821   0.00000  Uiso   1.00
O1088  O     0.68444   0.86866   0.52442   0.00000  Uiso   1.00
O1089  O     0.87157   0.89441   0.75000   0.00000  Uiso   1.00
O1090  O     0.77613   0.83333   0.82681   0.00000  Uiso   1.00
O1091  O     0.85258   0.83332   0.82681   0.00000  Uiso   1.00
O1092  O     0.79510   0.77226   0.74999   0.00000  Uiso   1.00
O1093  O     0.87154   0.77225   0.75000   0.00000  Uiso   1.00
O1094  O     0.81409   0.83335   0.67319   0.00000  Uiso   1.00
O1095  O     0.89053   0.83334   0.67319   0.00000  Uiso   1.00
O1096  O     0.94862   0.80034   0.58162   0.00000  Uiso   1.00
Zn1097 Zn    0.78229   0.83334   0.75000   0.00000  Uiso   1.00
Zn1098 Zn    0.88438   0.83333   0.75000   0.00000  Uiso   1.00
loop_
_geom_bond_atom_site_label_1
_geom_bond_atom_site_label_2
_geom_bond_distance
_geom_bond_site_symmetry_2
_ccdc_geom_bond_type
C1     C9      1.412   .     S
C1     O52     1.286   .     A
C1     O47     1.286   .     A
C2     C22     1.416   .     A
C2     C4      1.486   .     S
C2     C19     1.411   .     A
C3     C9      1.394   .     A
C3     H41     1.083   .     S
C3     C188    1.383   .     S
C4     O53     1.307   .     A
C4     O54     1.298   .     A
C5     O48     1.383   .     S
C5     C6      1.404   .     A
C5     C369    1.383   1_545 S
C6     C7      1.397   .     A
C6     C15     1.417   .     S
C7     H34     1.084   .     S
C7     C374    1.370   1_545 S
C8     H37     1.084   .     S
C8     C9      1.392   .     A
C8     C190    1.370   .     S
C10    N46     1.375   .     A
C10    O49     1.377   .     S
C10    C72     1.429   .     S
C11    H38     1.081   .     S
C11    N45     1.364   .     A
C11    C132    1.429   1_455 S
C12    C22     1.406   .     A
C12    C570    1.418   .     S
C12    C572    1.420   .     S
C13    N45     1.365   .     A
C13    F29     1.354   .     S
C13    C136    1.413   1_455 S
C14    N46     1.371   .     A
C14    F30     1.351   .     S
C14    C74     1.413   .     S
C15    O56     1.286   .     A
C15    O55     1.287   .     A
C16    O58     1.295   .     A
C16    O57     1.294   .     A
C16    C18     1.449   .     S
C17    C28     1.403   .     A
C17    C573    1.400   1_554 S
C17    H589    1.082   1_554 S
C18    C28     1.407   .     A
C18    C27     1.397   .     A
C19    C20     1.419   .     A
C19    O50     1.383   .     S
C20    C570    1.396   .     S
C20    O600    1.377   .     S
C21    F32     1.357   .     S
C21    C569    1.396   1_554 S
C21    C561    1.418   1_554 S
C22    C26     1.411   .     A
C23    C27     1.386   .     A
C23    C561    1.420   1_554 S
C23    C573    1.416   1_554 S
C24    C25     1.388   .     A
C24    C572    1.416   .     S
C24    C566    1.400   .     S
C25    C26     1.385   .     A
C25    H39     1.083   .     S
C26    F33     1.352   .     S
C27    F31     1.361   .     S
C28    O59     1.381   .     S
H35    O50     0.984   .     S
H36    O51     0.990   .     S
H40    C566    1.082   .     S
H42    O59     0.992   .     S
H43    O48     0.992   .     S
H44    O49     0.992   .     S
N45    Zn60    2.022   .     S
N46    Zn61    2.022   .     S
O47    Zn60    1.994   .     S
O51    C569    1.377   1_554 S
O52    Zn61    1.990   .     S
O53    Zn60    1.979   .     S
O54    Zn61    1.949   .     S
O55    Zn60    1.990   .     S
O56    Zn61    1.994   .     S
O57    Zn60    1.949   .     S
O58    Zn61    1.979   .     S
C62    C70     1.412   .     S
C62    O113    1.286   .     A
C62    O108    1.286   .     A
C63    C83     1.416   .     A
C63    C65     1.486   .     S
C63    C80     1.411   .     A
C64    C70     1.394   .     A
C64    H102    1.083   .     S
C64    C249    1.383   .     S
C65    O114    1.307   .     A
C65    O115    1.298   .     A
C66    O109    1.383   .     S
C66    C67     1.404   .     A
C66    C430    1.383   1_545 S
C67    C68     1.397   .     A
C67    C76     1.417   .     S
C68    H95     1.084   .     S
C68    C435    1.370   1_545 S
C69    H98     1.084   .     S
C69    C70     1.392   .     A
C69    C251    1.370   .     S
C71    N107    1.375   .     A
C71    O110    1.377   .     S
C71    C133    1.429   .     S
C72    H99     1.081   .     S
C72    N106    1.364   .     A
C73    C83     1.406   .     A
C73    C631    1.418   .     S
C73    C633    1.420   .     S
C74    N106    1.365   .     A
C74    F90     1.354   .     S
C75    N107    1.371   .     A
C75    F91     1.351   .     S
C75    C135    1.413   .     S
C76    O117    1.286   .     A
C76    O116    1.287   .     A
C77    O119    1.295   .     A
C77    O118    1.294   .     A
C77    C79     1.449   .     S
C78    C89     1.403   .     A
C78    C634    1.400   1_554 S
C78    H650    1.082   1_554 S
C79    C89     1.407   .     A
C79    C88     1.397   .     A
C80    C81     1.419   .     A
C80    O111    1.383   .     S
C81    C631    1.396   .     S
C81    O661    1.377   .     S
C82    F93     1.357   .     S
C82    C630    1.396   1_554 S
C82    C622    1.418   1_554 S
C83    C87     1.411   .     A
C84    C88     1.386   .     A
C84    C622    1.420   1_554 S
C84    C634    1.416   1_554 S
C85    C86     1.388   .     A
C85    C633    1.416   .     S
C85    C627    1.400   .     S
C86    C87     1.385   .     A
C86    H100    1.083   .     S
C87    F94     1.352   .     S
C88    F92     1.361   .     S
C89    O120    1.381   .     S
H96    O111    0.984   .     S
H97    O112    0.990   .     S
H101   C627    1.082   .     S
H103   O120    0.992   .     S
H104   O109    0.992   .     S
H105   O110    0.992   .     S
N106   Zn121   2.022   .     S
N107   Zn122   2.022   .     S
O108   Zn121   1.994   .     S
O112   C630    1.377   1_554 S
O113   Zn122   1.990   .     S
O114   Zn121   1.979   .     S
O115   Zn122   1.949   .     S
O116   Zn121   1.990   .     S
O117   Zn122   1.994   .     S
O118   Zn121   1.949   .     S
O119   Zn122   1.979   .     S
C123   C131    1.412   .     S
C123   O174    1.286   .     A
C123   O169    1.286   .     A
C124   C144    1.416   .     A
C124   C126    1.486   .     S
C124   C141    1.411   .     A
C125   C131    1.394   .     A
C125   H163    1.083   .     S
C125   C310    1.383   .     S
C126   O175    1.307   .     A
C126   O176    1.298   .     A
C127   O170    1.383   .     S
C127   C128    1.404   .     A
C127   C491    1.383   1_545 S
C128   C129    1.397   .     A
C128   C137    1.417   .     S
C129   H156    1.084   .     S
C129   C496    1.370   1_545 S
C130   H159    1.084   .     S
C130   C131    1.392   .     A
C130   C312    1.370   .     S
C132   N168    1.375   .     A
C132   O171    1.377   .     S
C132   C11     1.429   1_655 S
C133   H160    1.081   .     S
C133   N167    1.364   .     A
C134   C144    1.406   .     A
C134   C692    1.418   .     S
C134   C694    1.420   .     S
C135   N167    1.365   .     A
C135   F151    1.354   .     S
C136   N168    1.371   .     A
C136   F152    1.351   .     S
C136   C13     1.413   1_655 S
C137   O178    1.286   .     A
C137   O177    1.287   .     A
C138   O180    1.295   .     A
C138   O179    1.294   .     A
C138   C140    1.449   .     S
C139   C150    1.403   .     A
C139   C695    1.400   1_554 S
C139   H711    1.082   1_554 S
C140   C150    1.407   .     A
C140   C149    1.397   .     A
C141   C142    1.419   .     A
C141   O172    1.383   .     S
C142   C692    1.396   .     S
C142   O722    1.377   .     S
C143   F154    1.357   .     S
C143   C691    1.396   1_554 S
C143   C683    1.418   1_554 S
C144   C148    1.411   .     A
C145   C149    1.386   .     A
C145   C683    1.420   1_554 S
C145   C695    1.416   1_554 S
C146   C147    1.388   .     A
C146   C694    1.416   .     S
C146   C688    1.400   .     S
C147   C148    1.385   .     A
C147   H161    1.083   .     S
C148   F155    1.352   .     S
C149   F153    1.361   .     S
C150   O181    1.381   .     S
H157   O172    0.984   .     S
H158   O173    0.990   .     S
H162   C688    1.082   .     S
H164   O181    0.992   .     S
H165   O170    0.992   .     S
H166   O171    0.992   .     S
N167   Zn182   2.022   .     S
N168   Zn183   2.022   .     S
O169   Zn182   1.994   .     S
O173   C691    1.377   1_554 S
O174   Zn183   1.990   .     S
O175   Zn182   1.979   .     S
O176   Zn183   1.949   .     S
O177   Zn182   1.990   .     S
O178   Zn183   1.994   .     S
O179   Zn182   1.949   .     S
O180   Zn183   1.979   .     S
C184   C192    1.412   .     S
C184   O235    1.286   .     A
C184   O230    1.286   .     A
C185   C205    1.416   .     A
C185   C187    1.486   .     S
C185   C202    1.411   .     A
C186   C192    1.394   .     A
C186   H224    1.083   .     S
C186   C371    1.383   .     S
C187   O236    1.307   .     A
C187   O237    1.298   .     A
C188   O231    1.383   .     S
C188   C189    1.404   .     A
C189   C190    1.397   .     A
C189   C198    1.417   .     S
C190   H217    1.084   .     S
C191   H220    1.084   .     S
C191   C192    1.392   .     A
C191   C373    1.370   .     S
C193   N229    1.375   .     A
C193   O232    1.377   .     S
C193   C255    1.429   .     S
C194   H221    1.081   .     S
C194   N228    1.364   .     A
C194   C315    1.429   1_455 S
C195   C205    1.406   .     A
C195   C753    1.418   .     S
C195   C755    1.420   .     S
C196   N228    1.365   .     A
C196   F212    1.354   .     S
C196   C319    1.413   1_455 S
C197   N229    1.371   .     A
C197   F213    1.351   .     S
C197   C257    1.413   .     S
C198   O239    1.286   .     A
C198   O238    1.287   .     A
C199   O241    1.295   .     A
C199   O240    1.294   .     A
C199   C201    1.449   .     S
C200   C211    1.403   .     A
C200   C756    1.400   1_554 S
C200   H772    1.082   1_554 S
C201   C211    1.407   .     A
C201   C210    1.397   .     A
C202   C203    1.419   .     A
C202   O233    1.383   .     S
C203   C753    1.396   .     S
C203   O783    1.377   .     S
C204   F215    1.357   .     S
C204   C752    1.396   1_554 S
C204   C744    1.418   1_554 S
C205   C209    1.411   .     A
C206   C210    1.386   .     A
C206   C744    1.420   1_554 S
C206   C756    1.416   1_554 S
C207   C208    1.388   .     A
C207   C755    1.416   .     S
C207   C749    1.400   .     S
C208   C209    1.385   .     A
C208   H222    1.083   .     S
C209   F216    1.352   .     S
C210   F214    1.361   .     S
C211   O242    1.381   .     S
H218   O233    0.984   .     S
H219   O234    0.990   .     S
H223   C749    1.082   .     S
H225   O242    0.992   .     S
H226   O231    0.992   .     S
H227   O232    0.992   .     S
N228   Zn243   2.022   .     S
N229   Zn244   2.022   .     S
O230   Zn243   1.994   .     S
O234   C752    1.377   1_554 S
O235   Zn244   1.990   .     S
O236   Zn243   1.979   .     S
O237   Zn244   1.949   .     S
O238   Zn243   1.990   .     S
O239   Zn244   1.994   .     S
O240   Zn243   1.949   .     S
O241   Zn244   1.979   .     S
C245   C253    1.412   .     S
C245   O296    1.286   .     A
C245   O291    1.286   .     A
C246   C266    1.416   .     A
C246   C248    1.486   .     S
C246   C263    1.411   .     A
C247   C253    1.394   .     A
C247   H285    1.083   .     S
C247   C432    1.383   .     S
C248   O297    1.307   .     A
C248   O298    1.298   .     A
C249   O292    1.383   .     S
C249   C250    1.404   .     A
C250   C251    1.397   .     A
C250   C259    1.417   .     S
C251   H278    1.084   .     S
C252   H281    1.084   .     S
C252   C253    1.392   .     A
C252   C434    1.370   .     S
C254   N290    1.375   .     A
C254   O293    1.377   .     S
C254   C316    1.429   .     S
C255   H282    1.081   .     S
C255   N289    1.364   .     A
C256   C266    1.406   .     A
C256   C814    1.418   .     S
C256   C816    1.420   .     S
C257   N289    1.365   .     A
C257   F273    1.354   .     S
C258   N290    1.371   .     A
C258   F274    1.351   .     S
C258   C318    1.413   .     S
C259   O300    1.286   .     A
C259   O299    1.287   .     A
C260   O302    1.295   .     A
C260   O301    1.294   .     A
C260   C262    1.449   .     S
C261   C272    1.403   .     A
C261   C817    1.400   1_554 S
C261   H833    1.082   1_554 S
C262   C272    1.407   .     A
C262   C271    1.397   .     A
C263   C264    1.419   .     A
C263   O294    1.383   .     S
C264   C814    1.396   .     S
C264   O844    1.377   .     S
C265   F276    1.357   .     S
C265   C813    1.396   1_554 S
C265   C805    1.418   1_554 S
C266   C270    1.411   .     A
C267   C271    1.386   .     A
C267   C805    1.420   1_554 S
C267   C817    1.416   1_554 S
C268   C269    1.388   .     A
C268   C816    1.416   .     S
C268   C810    1.400   .     S
C269   C270    1.385   .     A
C269   H283    1.083   .     S
C270   F277    1.352   .     S
C271   F275    1.361   .     S
C272   O303    1.381   .     S
H279   O294    0.984   .     S
H280   O295    0.990   .     S
H284   C810    1.082   .     S
H286   O303    0.992   .     S
H287   O292    0.992   .     S
H288   O293    0.992   .     S
N289   Zn304   2.022   .     S
N290   Zn305   2.022   .     S
O291   Zn304   1.994   .     S
O295   C813    1.377   1_554 S
O296   Zn305   1.990   .     S
O297   Zn304   1.979   .     S
O298   Zn305   1.949   .     S
O299   Zn304   1.990   .     S
O300   Zn305   1.994   .     S
O301   Zn304   1.949   .     S
O302   Zn305   1.979   .     S
C306   C314    1.412   .     S
C306   O357    1.286   .     A
C306   O352    1.286   .     A
C307   C327    1.416   .     A
C307   C309    1.486   .     S
C307   C324    1.411   .     A
C308   C314    1.394   .     A
C308   H346    1.083   .     S
C308   C493    1.383   .     S
C309   O358    1.307   .     A
C309   O359    1.298   .     A
C310   O353    1.383   .     S
C310   C311    1.404   .     A
C311   C312    1.397   .     A
C311   C320    1.417   .     S
C312   H339    1.084   .     S
C313   H342    1.084   .     S
C313   C314    1.392   .     A
C313   C495    1.370   .     S
C315   N351    1.375   .     A
C315   O354    1.377   .     S
C315   C194    1.429   1_655 S
C316   H343    1.081   .     S
C316   N350    1.364   .     A
C317   C327    1.406   .     A
C317   C875    1.418   .     S
C317   C877    1.420   .     S
C318   N350    1.365   .     A
C318   F334    1.354   .     S
C319   N351    1.371   .     A
C319   F335    1.351   .     S
C319   C196    1.413   1_655 S
C320   O361    1.286   .     A
C320   O360    1.287   .     A
C321   O363    1.295   .     A
C321   O362    1.294   .     A
C321   C323    1.449   .     S
C322   C333    1.403   .     A
C322   C878    1.400   1_554 S
C322   H894    1.082   1_554 S
C323   C333    1.407   .     A
C323   C332    1.397   .     A
C324   C325    1.419   .     A
C324   O355    1.383   .     S
C325   C875    1.396   .     S
C325   O905    1.377   .     S
C326   F337    1.357   .     S
C326   C874    1.396   1_554 S
C326   C866    1.418   1_554 S
C327   C331    1.411   .     A
C328   C332    1.386   .     A
C328   C866    1.420   1_554 S
C328   C878    1.416   1_554 S
C329   C330    1.388   .     A
C329   C877    1.416   .     S
C329   C871    1.400   .     S
C330   C331    1.385   .     A
C330   H344    1.083   .     S
C331   F338    1.352   .     S
C332   F336    1.361   .     S
C333   O364    1.381   .     S
H340   O355    0.984   .     S
H341   O356    0.990   .     S
H345   C871    1.082   .     S
H347   O364    0.992   .     S
H348   O353    0.992   .     S
H349   O354    0.992   .     S
N350   Zn365   2.022   .     S
N351   Zn366   2.022   .     S
O352   Zn365   1.994   .     S
O356   C874    1.377   1_554 S
O357   Zn366   1.990   .     S
O358   Zn365   1.979   .     S
O359   Zn366   1.949   .     S
O360   Zn365   1.990   .     S
O361   Zn366   1.994   .     S
O362   Zn365   1.949   .     S
O363   Zn366   1.979   .     S
C367   C375    1.412   .     S
C367   O418    1.286   .     A
C367   O413    1.286   .     A
C368   C388    1.416   .     A
C368   C370    1.486   .     S
C368   C385    1.411   .     A
C369   C375    1.394   .     A
C369   H407    1.083   .     S
C369   C5      1.383   1_565 S
C370   O419    1.307   .     A
C370   O420    1.298   .     A
C371   O414    1.383   .     S
C371   C372    1.404   .     A
C372   C373    1.397   .     A
C372   C381    1.417   .     S
C373   H400    1.084   .     S
C374   H403    1.084   .     S
C374   C375    1.392   .     A
C374   C7      1.370   1_565 S
C376   N412    1.375   .     A
C376   O415    1.377   .     S
C376   C438    1.429   .     S
C377   H404    1.081   .     S
C377   N411    1.364   .     A
C377   C498    1.429   1_455 S
C378   C388    1.406   .     A
C378   C936    1.418   .     S
C378   C938    1.420   .     S
C379   N411    1.365   .     A
C379   F395    1.354   .     S
C379   C502    1.413   1_455 S
C380   N412    1.371   .     A
C380   F396    1.351   .     S
C380   C440    1.413   .     S
C381   O422    1.286   .     A
C381   O421    1.287   .     A
C382   O424    1.295   .     A
C382   O423    1.294   .     A
C382   C384    1.449   .     S
C383   C394    1.403   .     A
C383   C939    1.400   1_554 S
C383   H955    1.082   1_554 S
C384   C394    1.407   .     A
C384   C393    1.397   .     A
C385   C386    1.419   .     A
C385   O416    1.383   .     S
C386   C936    1.396   .     S
C386   O966    1.377   .     S
C387   F398    1.357   .     S
C387   C935    1.396   1_554 S
C387   C927    1.418   1_554 S
C388   C392    1.411   .     A
C389   C393    1.386   .     A
C389   C927    1.420   1_554 S
C389   C939    1.416   1_554 S
C390   C391    1.388   .     A
C390   C938    1.416   .     S
C390   C932    1.400   .     S
C391   C392    1.385   .     A
C391   H405    1.083   .     S
C392   F399    1.352   .     S
C393   F397    1.361   .     S
C394   O425    1.381   .     S
H401   O416    0.984   .     S
H402   O417    0.990   .     S
H406   C932    1.082   .     S
H408   O425    0.992   .     S
H409   O414    0.992   .     S
H410   O415    0.992   .     S
N411   Zn426   2.022   .     S
N412   Zn427   2.022   .     S
O413   Zn426   1.994   .     S
O417   C935    1.377   1_554 S
O418   Zn427   1.990   .     S
O419   Zn426   1.979   .     S
O420   Zn427   1.949   .     S
O421   Zn426   1.990   .     S
O422   Zn427   1.994   .     S
O423   Zn426   1.949   .     S
O424   Zn427   1.979   .     S
C428   C436    1.412   .     S
C428   O479    1.286   .     A
C428   O474    1.286   .     A
C429   C449    1.416   .     A
C429   C431    1.486   .     S
C429   C446    1.411   .     A
C430   C436    1.394   .     A
C430   H468    1.083   .     S
C430   C66     1.383   1_565 S
C431   O480    1.307   .     A
C431   O481    1.298   .     A
C432   O475    1.383   .     S
C432   C433    1.404   .     A
C433   C434    1.397   .     A
C433   C442    1.417   .     S
C434   H461    1.084   .     S
C435   H464    1.084   .     S
C435   C436    1.392   .     A
C435   C68     1.370   1_565 S
C437   N473    1.375   .     A
C437   O476    1.377   .     S
C437   C499    1.429   .     S
C438   H465    1.081   .     S
C438   N472    1.364   .     A
C439   C449    1.406   .     A
C439   C997    1.418   .     S
C439   C999    1.420   .     S
C440   N472    1.365   .     A
C440   F456    1.354   .     S
C441   N473    1.371   .     A
C441   F457    1.351   .     S
C441   C501    1.413   .     S
C442   O483    1.286   .     A
C442   O482    1.287   .     A
C443   O485    1.295   .     A
C443   O484    1.294   .     A
C443   C445    1.449   .     S
C444   C455    1.403   .     A
C444   C1000   1.400   1_554 S
C444   H1016   1.082   1_554 S
C445   C455    1.407   .     A
C445   C454    1.397   .     A
C446   C447    1.419   .     A
C446   O477    1.383   .     S
C447   C997    1.396   .     S
C447   O1027   1.377   .     S
C448   F459    1.357   .     S
C448   C996    1.396   1_554 S
C448   C988    1.418   1_554 S
C449   C453    1.411   .     A
C450   C454    1.386   .     A
C450   C988    1.420   1_554 S
C450   C1000   1.416   1_554 S
C451   C452    1.388   .     A
C451   C999    1.416   .     S
C451   C993    1.400   .     S
C452   C453    1.385   .     A
C452   H466    1.083   .     S
C453   F460    1.352   .     S
C454   F458    1.361   .     S
C455   O486    1.381   .     S
H462   O477    0.984   .     S
H463   O478    0.990   .     S
H467   C993    1.082   .     S
H469   O486    0.992   .     S
H470   O475    0.992   .     S
H471   O476    0.992   .     S
N472   Zn487   2.022   .     S
N473   Zn488   2.022   .     S
O474   Zn487   1.994   .     S
O478   C996    1.377   1_554 S
O479   Zn488   1.990   .     S
O480   Zn487   1.979   .     S
O481   Zn488   1.949   .     S
O482   Zn487   1.990   .     S
O483   Zn488   1.994   .     S
O484   Zn487   1.949   .     S
O485   Zn488   1.979   .     S
C489   C497    1.412   .     S
C489   O540    1.286   .     A
C489   O535    1.286   .     A
C490   C510    1.416   .     A
C490   C492    1.486   .     S
C490   C507    1.411   .     A
C491   C497    1.394   .     A
C491   H529    1.083   .     S
C491   C127    1.383   1_565 S
C492   O541    1.307   .     A
C492   O542    1.298   .     A
C493   O536    1.383   .     S
C493   C494    1.404   .     A
C494   C495    1.397   .     A
C494   C503    1.417   .     S
C495   H522    1.084   .     S
C496   H525    1.084   .     S
C496   C497    1.392   .     A
C496   C129    1.370   1_565 S
C498   N534    1.375   .     A
C498   O537    1.377   .     S
C498   C377    1.429   1_655 S
C499   H526    1.081   .     S
C499   N533    1.364   .     A
C500   C510    1.406   .     A
C500   C1058   1.418   .     S
C500   C1060   1.420   .     S
C501   N533    1.365   .     A
C501   F517    1.354   .     S
C502   N534    1.371   .     A
C502   F518    1.351   .     S
C502   C379    1.413   1_655 S
C503   O544    1.286   .     A
C503   O543    1.287   .     A
C504   O546    1.295   .     A
C504   O545    1.294   .     A
C504   C506    1.449   .     S
C505   C516    1.403   .     A
C505   C1061   1.400   1_554 S
C505   H1077   1.082   1_554 S
C506   C516    1.407   .     A
C506   C515    1.397   .     A
C507   C508    1.419   .     A
C507   O538    1.383   .     S
C508   C1058   1.396   .     S
C508   O1088   1.377   .     S
C509   F520    1.357   .     S
C509   C1057   1.396   1_554 S
C509   C1049   1.418   1_554 S
C510   C514    1.411   .     A
C511   C515    1.386   .     A
C511   C1049   1.420   1_554 S
C511   C1061   1.416   1_554 S
C512   C513    1.388   .     A
C512   C1060   1.416   .     S
C512   C1054   1.400   .     S
C513   C514    1.385   .     A
C513   H527    1.083   .     S
C514   F521    1.352   .     S
C515   F519    1.361   .     S
C516   O547    1.381   .     S
H523   O538    0.984   .     S
H524   O539    0.990   .     S
H528   C1054   1.082   .     S
H530   O547    0.992   .     S
H531   O536    0.992   .     S
H532   O537    0.992   .     S
N533   Zn548   2.022   .     S
N534   Zn549   2.022   .     S
O535   Zn548   1.994   .     S
O539   C1057   1.377   1_554 S
O540   Zn549   1.990   .     S
O541   Zn548   1.979   .     S
O542   Zn549   1.949   .     S
O543   Zn548   1.990   .     S
O544   Zn549   1.994   .     S
O545   Zn548   1.949   .     S
O546   Zn549   1.979   .     S
C550   C558    1.412   .     S
C550   O601    1.286   .     A
C550   O596    1.286   .     A
C551   C571    1.416   .     A
C551   C553    1.486   .     S
C551   C568    1.411   .     A
C552   C558    1.394   .     A
C552   H590    1.083   .     S
C552   C737    1.383   .     S
C553   O602    1.307   .     A
C553   O603    1.298   .     A
C554   O597    1.383   .     S
C554   C555    1.404   .     A
C554   C918    1.383   1_545 S
C555   C556    1.397   .     A
C555   C564    1.417   .     S
C556   H583    1.084   .     S
C556   C923    1.370   1_545 S
C557   H586    1.084   .     S
C557   C558    1.392   .     A
C557   C739    1.370   .     S
C559   N595    1.375   .     A
C559   O598    1.377   .     S
C559   C621    1.429   .     S
C560   H587    1.081   .     S
C560   N594    1.364   .     A
C560   C681    1.429   1_455 S
C561   C571    1.406   .     A
C561   C21     1.418   1_556 S
C561   C23     1.420   1_556 S
C562   N594    1.365   .     A
C562   F578    1.354   .     S
C562   C685    1.413   1_455 S
C563   N595    1.371   .     A
C563   F579    1.351   .     S
C563   C623    1.413   .     S
C564   O605    1.286   .     A
C564   O604    1.287   .     A
C565   O607    1.295   .     A
C565   O606    1.294   .     A
C565   C567    1.449   .     S
C566   C577    1.403   .     A
C567   C577    1.407   .     A
C567   C576    1.397   .     A
C568   C569    1.419   .     A
C568   O599    1.383   .     S
C569   C21     1.396   1_556 S
C569   O51     1.377   1_556 S
C570   F581    1.357   .     S
C571   C575    1.411   .     A
C572   C576    1.386   .     A
C573   C574    1.388   .     A
C573   C23     1.416   1_556 S
C573   C17     1.400   1_556 S
C574   C575    1.385   .     A
C574   H588    1.083   .     S
C575   F582    1.352   .     S
C576   F580    1.361   .     S
C577   O608    1.381   .     S
H584   O599    0.984   .     S
H585   O600    0.990   .     S
H589   C17     1.082   1_556 S
H591   O608    0.992   .     S
H592   O597    0.992   .     S
H593   O598    0.992   .     S
N594   Zn609   2.022   .     S
N595   Zn610   2.022   .     S
O596   Zn609   1.994   .     S
O601   Zn610   1.990   .     S
O602   Zn609   1.979   .     S
O603   Zn610   1.949   .     S
O604   Zn609   1.990   .     S
O605   Zn610   1.994   .     S
O606   Zn609   1.949   .     S
O607   Zn610   1.979   .     S
C611   C619    1.412   .     S
C611   O662    1.286   .     A
C611   O657    1.286   .     A
C612   C632    1.416   .     A
C612   C614    1.486   .     S
C612   C629    1.411   .     A
C613   C619    1.394   .     A
C613   H651    1.083   .     S
C613   C798    1.383   .     S
C614   O663    1.307   .     A
C614   O664    1.298   .     A
C615   O658    1.383   .     S
C615   C616    1.404   .     A
C615   C979    1.383   1_545 S
C616   C617    1.397   .     A
C616   C625    1.417   .     S
C617   H644    1.084   .     S
C617   C984    1.370   1_545 S
C618   H647    1.084   .     S
C618   C619    1.392   .     A
C618   C800    1.370   .     S
C620   N656    1.375   .     A
C620   O659    1.377   .     S
C620   C682    1.429   .     S
C621   H648    1.081   .     S
C621   N655    1.364   .     A
C622   C632    1.406   .     A
C622   C82     1.418   1_556 S
C622   C84     1.420   1_556 S
C623   N655    1.365   .     A
C623   F639    1.354   .     S
C624   N656    1.371   .     A
C624   F640    1.351   .     S
C624   C684    1.413   .     S
C625   O666    1.286   .     A
C625   O665    1.287   .     A
C626   O668    1.295   .     A
C626   O667    1.294   .     A
C626   C628    1.449   .     S
C627   C638    1.403   .     A
C628   C638    1.407   .     A
C628   C637    1.397   .     A
C629   C630    1.419   .     A
C629   O660    1.383   .     S
C630   C82     1.396   1_556 S
C630   O112    1.377   1_556 S
C631   F642    1.357   .     S
C632   C636    1.411   .     A
C633   C637    1.386   .     A
C634   C635    1.388   .     A
C634   C84     1.416   1_556 S
C634   C78     1.400   1_556 S
C635   C636    1.385   .     A
C635   H649    1.083   .     S
C636   F643    1.352   .     S
C637   F641    1.361   .     S
C638   O669    1.381   .     S
H645   O660    0.984   .     S
H646   O661    0.990   .     S
H650   C78     1.082   1_556 S
H652   O669    0.992   .     S
H653   O658    0.992   .     S
H654   O659    0.992   .     S
N655   Zn670   2.022   .     S
N656   Zn671   2.022   .     S
O657   Zn670   1.994   .     S
O662   Zn671   1.990   .     S
O663   Zn670   1.979   .     S
O664   Zn671   1.949   .     S
O665   Zn670   1.990   .     S
O666   Zn671   1.994   .     S
O667   Zn670   1.949   .     S
O668   Zn671   1.979   .     S
C672   C680    1.412   .     S
C672   O723    1.286   .     A
C672   O718    1.286   .     A
C673   C693    1.416   .     A
C673   C675    1.486   .     S
C673   C690    1.411   .     A
C674   C680    1.394   .     A
C674   H712    1.083   .     S
C674   C859    1.383   .     S
C675   O724    1.307   .     A
C675   O725    1.298   .     A
C676   O719    1.383   .     S
C676   C677    1.404   .     A
C676   C1040   1.383   1_545 S
C677   C678    1.397   .     A
C677   C686    1.417   .     S
C678   H705    1.084   .     S
C678   C1045   1.370   1_545 S
C679   H708    1.084   .     S
C679   C680    1.392   .     A
C679   C861    1.370   .     S
C681   N717    1.375   .     A
C681   O720    1.377   .     S
C681   C560    1.429   1_655 S
C682   H709    1.081   .     S
C682   N716    1.364   .     A
C683   C693    1.406   .     A
C683   C143    1.418   1_556 S
C683   C145    1.420   1_556 S
C684   N716    1.365   .     A
C684   F700    1.354   .     S
C685   N717    1.371   .     A
C685   F701    1.351   .     S
C685   C562    1.413   1_655 S
C686   O727    1.286   .     A
C686   O726    1.287   .     A
C687   O729    1.295   .     A
C687   O728    1.294   .     A
C687   C689    1.449   .     S
C688   C699    1.403   .     A
C689   C699    1.407   .     A
C689   C698    1.397   .     A
C690   C691    1.419   .     A
C690   O721    1.383   .     S
C691   C143    1.396   1_556 S
C691   O173    1.377   1_556 S
C692   F703    1.357   .     S
C693   C697    1.411   .     A
C694   C698    1.386   .     A
C695   C696    1.388   .     A
C695   C145    1.416   1_556 S
C695   C139    1.400   1_556 S
C696   C697    1.385   .     A
C696   H710    1.083   .     S
C697   F704    1.352   .     S
C698   F702    1.361   .     S
C699   O730    1.381   .     S
H706   O721    0.984   .     S
H707   O722    0.990   .     S
H711   C139    1.082   1_556 S
H713   O730    0.992   .     S
H714   O719    0.992   .     S
H715   O720    0.992   .     S
N716   Zn731   2.022   .     S
N717   Zn732   2.022   .     S
O718   Zn731   1.994   .     S
O723   Zn732   1.990   .     S
O724   Zn731   1.979   .     S
O725   Zn732   1.949   .     S
O726   Zn731   1.990   .     S
O727   Zn732   1.994   .     S
O728   Zn731   1.949   .     S
O729   Zn732   1.979   .     S
C733   C741    1.412   .     S
C733   O784    1.286   .     A
C733   O779    1.286   .     A
C734   C754    1.416   .     A
C734   C736    1.486   .     S
C734   C751    1.411   .     A
C735   C741    1.394   .     A
C735   H773    1.083   .     S
C735   C920    1.383   .     S
C736   O785    1.307   .     A
C736   O786    1.298   .     A
C737   O780    1.383   .     S
C737   C738    1.404   .     A
C738   C739    1.397   .     A
C738   C747    1.417   .     S
C739   H766    1.084   .     S
C740   H769    1.084   .     S
C740   C741    1.392   .     A
C740   C922    1.370   .     S
C742   N778    1.375   .     A
C742   O781    1.377   .     S
C742   C804    1.429   .     S
C743   H770    1.081   .     S
C743   N777    1.364   .     A
C743   C864    1.429   1_455 S
C744   C754    1.406   .     A
C744   C204    1.418   1_556 S
C744   C206    1.420   1_556 S
C745   N777    1.365   .     A
C745   F761    1.354   .     S
C745   C868    1.413   1_455 S
C746   N778    1.371   .     A
C746   F762    1.351   .     S
C746   C806    1.413   .     S
C747   O788    1.286   .     A
C747   O787    1.287   .     A
C748   O790    1.295   .     A
C748   O789    1.294   .     A
C748   C750    1.449   .     S
C749   C760    1.403   .     A
C750   C760    1.407   .     A
C750   C759    1.397   .     A
C751   C752    1.419   .     A
C751   O782    1.383   .     S
C752   C204    1.396   1_556 S
C752   O234    1.377   1_556 S
C753   F764    1.357   .     S
C754   C758    1.411   .     A
C755   C759    1.386   .     A
C756   C757    1.388   .     A
C756   C206    1.416   1_556 S
C756   C200    1.400   1_556 S
C757   C758    1.385   .     A
C757   H771    1.083   .     S
C758   F765    1.352   .     S
C759   F763    1.361   .     S
C760   O791    1.381   .     S
H767   O782    0.984   .     S
H768   O783    0.990   .     S
H772   C200    1.082   1_556 S
H774   O791    0.992   .     S
H775   O780    0.992   .     S
H776   O781    0.992   .     S
N777   Zn792   2.022   .     S
N778   Zn793   2.022   .     S
O779   Zn792   1.994   .     S
O784   Zn793   1.990   .     S
O785   Zn792   1.979   .     S
O786   Zn793   1.949   .     S
O787   Zn792   1.990   .     S
O788   Zn793   1.994   .     S
O789   Zn792   1.949   .     S
O790   Zn793   1.979   .     S
C794   C802    1.412   .     S
C794   O845    1.286   .     A
C794   O840    1.286   .     A
C795   C815    1.416   .     A
C795   C797    1.486   .     S
C795   C812    1.411   .     A
C796   C802    1.394   .     A
C796   H834    1.083   .     S
C796   C981    1.383   .     S
C797   O846    1.307   .     A
C797   O847    1.298   .     A
C798   O841    1.383   .     S
C798   C799    1.404   .     A
C799   C800    1.397   .     A
C799   C808    1.417   .     S
C800   H827    1.084   .     S
C801   H830    1.084   .     S
C801   C802    1.392   .     A
C801   C983    1.370   .     S
C803   N839    1.375   .     A
C803   O842    1.377   .     S
C803   C865    1.429   .     S
C804   H831    1.081   .     S
C804   N838    1.364   .     A
C805   C815    1.406   .     A
C805   C265    1.418   1_556 S
C805   C267    1.420   1_556 S
C806   N838    1.365   .     A
C806   F822    1.354   .     S
C807   N839    1.371   .     A
C807   F823    1.351   .     S
C807   C867    1.413   .     S
C808   O849    1.286   .     A
C808   O848    1.287   .     A
C809   O851    1.295   .     A
C809   O850    1.294   .     A
C809   C811    1.449   .     S
C810   C821    1.403   .     A
C811   C821    1.407   .     A
C811   C820    1.397   .     A
C812   C813    1.419   .     A
C812   O843    1.383   .     S
C813   C265    1.396   1_556 S
C813   O295    1.377   1_556 S
C814   F825    1.357   .     S
C815   C819    1.411   .     A
C816   C820    1.386   .     A
C817   C818    1.388   .     A
C817   C267    1.416   1_556 S
C817   C261    1.400   1_556 S
C818   C819    1.385   .     A
C818   H832    1.083   .     S
C819   F826    1.352   .     S
C820   F824    1.361   .     S
C821   O852    1.381   .     S
H828   O843    0.984   .     S
H829   O844    0.990   .     S
H833   C261    1.082   1_556 S
H835   O852    0.992   .     S
H836   O841    0.992   .     S
H837   O842    0.992   .     S
N838   Zn853   2.022   .     S
N839   Zn854   2.022   .     S
O840   Zn853   1.994   .     S
O845   Zn854   1.990   .     S
O846   Zn853   1.979   .     S
O847   Zn854   1.949   .     S
O848   Zn853   1.990   .     S
O849   Zn854   1.994   .     S
O850   Zn853   1.949   .     S
O851   Zn854   1.979   .     S
C855   C863    1.412   .     S
C855   O906    1.286   .     A
C855   O901    1.286   .     A
C856   C876    1.416   .     A
C856   C858    1.486   .     S
C856   C873    1.411   .     A
C857   C863    1.394   .     A
C857   H895    1.083   .     S
C857   C1042   1.383   .     S
C858   O907    1.307   .     A
C858   O908    1.298   .     A
C859   O902    1.383   .     S
C859   C860    1.404   .     A
C860   C861    1.397   .     A
C860   C869    1.417   .     S
C861   H888    1.084   .     S
C862   H891    1.084   .     S
C862   C863    1.392   .     A
C862   C1044   1.370   .     S
C864   N900    1.375   .     A
C864   O903    1.377   .     S
C864   C743    1.429   1_655 S
C865   H892    1.081   .     S
C865   N899    1.364   .     A
C866   C876    1.406   .     A
C866   C326    1.418   1_556 S
C866   C328    1.420   1_556 S
C867   N899    1.365   .     A
C867   F883    1.354   .     S
C868   N900    1.371   .     A
C868   F884    1.351   .     S
C868   C745    1.413   1_655 S
C869   O910    1.286   .     A
C869   O909    1.287   .     A
C870   O912    1.295   .     A
C870   O911    1.294   .     A
C870   C872    1.449   .     S
C871   C882    1.403   .     A
C872   C882    1.407   .     A
C872   C881    1.397   .     A
C873   C874    1.419   .     A
C873   O904    1.383   .     S
C874   C326    1.396   1_556 S
C874   O356    1.377   1_556 S
C875   F886    1.357   .     S
C876   C880    1.411   .     A
C877   C881    1.386   .     A
C878   C879    1.388   .     A
C878   C328    1.416   1_556 S
C878   C322    1.400   1_556 S
C879   C880    1.385   .     A
C879   H893    1.083   .     S
C880   F887    1.352   .     S
C881   F885    1.361   .     S
C882   O913    1.381   .     S
H889   O904    0.984   .     S
H890   O905    0.990   .     S
H894   C322    1.082   1_556 S
H896   O913    0.992   .     S
H897   O902    0.992   .     S
H898   O903    0.992   .     S
N899   Zn914   2.022   .     S
N900   Zn915   2.022   .     S
O901   Zn914   1.994   .     S
O906   Zn915   1.990   .     S
O907   Zn914   1.979   .     S
O908   Zn915   1.949   .     S
O909   Zn914   1.990   .     S
O910   Zn915   1.994   .     S
O911   Zn914   1.949   .     S
O912   Zn915   1.979   .     S
C916   C924    1.412   .     S
C916   O967    1.286   .     A
C916   O962    1.286   .     A
C917   C937    1.416   .     A
C917   C919    1.486   .     S
C917   C934    1.411   .     A
C918   C924    1.394   .     A
C918   H956    1.083   .     S
C918   C554    1.383   1_565 S
C919   O968    1.307   .     A
C919   O969    1.298   .     A
C920   O963    1.383   .     S
C920   C921    1.404   .     A
C921   C922    1.397   .     A
C921   C930    1.417   .     S
C922   H949    1.084   .     S
C923   H952    1.084   .     S
C923   C924    1.392   .     A
C923   C556    1.370   1_565 S
C925   N961    1.375   .     A
C925   O964    1.377   .     S
C925   C987    1.429   .     S
C926   H953    1.081   .     S
C926   N960    1.364   .     A
C926   C1047   1.429   1_455 S
C927   C937    1.406   .     A
C927   C387    1.418   1_556 S
C927   C389    1.420   1_556 S
C928   N960    1.365   .     A
C928   F944    1.354   .     S
C928   C1051   1.413   1_455 S
C929   N961    1.371   .     A
C929   F945    1.351   .     S
C929   C989    1.413   .     S
C930   O971    1.286   .     A
C930   O970    1.287   .     A
C931   O973    1.295   .     A
C931   O972    1.294   .     A
C931   C933    1.449   .     S
C932   C943    1.403   .     A
C933   C943    1.407   .     A
C933   C942    1.397   .     A
C934   C935    1.419   .     A
C934   O965    1.383   .     S
C935   C387    1.396   1_556 S
C935   O417    1.377   1_556 S
C936   F947    1.357   .     S
C937   C941    1.411   .     A
C938   C942    1.386   .     A
C939   C940    1.388   .     A
C939   C389    1.416   1_556 S
C939   C383    1.400   1_556 S
C940   C941    1.385   .     A
C940   H954    1.083   .     S
C941   F948    1.352   .     S
C942   F946    1.361   .     S
C943   O974    1.381   .     S
H950   O965    0.984   .     S
H951   O966    0.990   .     S
H955   C383    1.082   1_556 S
H957   O974    0.992   .     S
H958   O963    0.992   .     S
H959   O964    0.992   .     S
N960   Zn975   2.022   .     S
N961   Zn976   2.022   .     S
O962   Zn975   1.994   .     S
O967   Zn976   1.990   .     S
O968   Zn975   1.979   .     S
O969   Zn976   1.949   .     S
O970   Zn975   1.990   .     S
O971   Zn976   1.994   .     S
O972   Zn975   1.949   .     S
O973   Zn976   1.979   .     S
C977   C985    1.412   .     S
C977   O1028   1.286   .     A
C977   O1023   1.286   .     A
C978   C998    1.416   .     A
C978   C980    1.486   .     S
C978   C995    1.411   .     A
C979   C985    1.394   .     A
C979   H1017   1.083   .     S
C979   C615    1.383   1_565 S
C980   O1029   1.307   .     A
C980   O1030   1.298   .     A
C981   O1024   1.383   .     S
C981   C982    1.404   .     A
C982   C983    1.397   .     A
C982   C991    1.417   .     S
C983   H1010   1.084   .     S
C984   H1013   1.084   .     S
C984   C985    1.392   .     A
C984   C617    1.370   1_565 S
C986   N1022   1.375   .     A
C986   O1025   1.377   .     S
C986   C1048   1.429   .     S
C987   H1014   1.081   .     S
C987   N1021   1.364   .     A
C988   C998    1.406   .     A
C988   C448    1.418   1_556 S
C988   C450    1.420   1_556 S
C989   N1021   1.365   .     A
C989   F1005   1.354   .     S
C990   N1022   1.371   .     A
C990   F1006   1.351   .     S
C990   C1050   1.413   .     S
C991   O1032   1.286   .     A
C991   O1031   1.287   .     A
C992   O1034   1.295   .     A
C992   O1033   1.294   .     A
C992   C994    1.449   .     S
C993   C1004   1.403   .     A
C994   C1004   1.407   .     A
C994   C1003   1.397   .     A
C995   C996    1.419   .     A
C995   O1026   1.383   .     S
C996   C448    1.396   1_556 S
C996   O478    1.377   1_556 S
C997   F1008   1.357   .     S
C998   C1002   1.411   .     A
C999   C1003   1.386   .     A
C1000  C1001   1.388   .     A
C1000  C450    1.416   1_556 S
C1000  C444    1.400   1_556 S
C1001  C1002   1.385   .     A
C1001  H1015   1.083   .     S
C1002  F1009   1.352   .     S
C1003  F1007   1.361   .     S
C1004  O1035   1.381   .     S
H1011  O1026   0.984   .     S
H1012  O1027   0.990   .     S
H1016  C444    1.082   1_556 S
H1018  O1035   0.992   .     S
H1019  O1024   0.992   .     S
H1020  O1025   0.992   .     S
N1021  Zn1036  2.022   .     S
N1022  Zn1037  2.022   .     S
O1023  Zn1036  1.994   .     S
O1028  Zn1037  1.990   .     S
O1029  Zn1036  1.979   .     S
O1030  Zn1037  1.949   .     S
O1031  Zn1036  1.990   .     S
O1032  Zn1037  1.994   .     S
O1033  Zn1036  1.949   .     S
O1034  Zn1037  1.979   .     S
C1038  C1046   1.412   .     S
C1038  O1089   1.286   .     A
C1038  O1084   1.286   .     A
C1039  C1059   1.416   .     A
C1039  C1041   1.486   .     S
C1039  C1056   1.411   .     A
C1040  C1046   1.394   .     A
C1040  H1078   1.083   .     S
C1040  C676    1.383   1_565 S
C1041  O1090   1.307   .     A
C1041  O1091   1.298   .     A
C1042  O1085   1.383   .     S
C1042  C1043   1.404   .     A
C1043  C1044   1.397   .     A
C1043  C1052   1.417   .     S
C1044  H1071   1.084   .     S
C1045  H1074   1.084   .     S
C1045  C1046   1.392   .     A
C1045  C678    1.370   1_565 S
C1047  N1083   1.375   .     A
C1047  O1086   1.377   .     S
C1047  C926    1.429   1_655 S
C1048  H1075   1.081   .     S
C1048  N1082   1.364   .     A
C1049  C1059   1.406   .     A
C1049  C509    1.418   1_556 S
C1049  C511    1.420   1_556 S
C1050  N1082   1.365   .     A
C1050  F1066   1.354   .     S
C1051  N1083   1.371   .     A
C1051  F1067   1.351   .     S
C1051  C928    1.413   1_655 S
C1052  O1093   1.286   .     A
C1052  O1092   1.287   .     A
C1053  O1095   1.295   .     A
C1053  O1094   1.294   .     A
C1053  C1055   1.449   .     S
C1054  C1065   1.403   .     A
C1055  C1065   1.407   .     A
C1055  C1064   1.397   .     A
C1056  C1057   1.419   .     A
C1056  O1087   1.383   .     S
C1057  C509    1.396   1_556 S
C1057  O539    1.377   1_556 S
C1058  F1069   1.357   .     S
C1059  C1063   1.411   .     A
C1060  C1064   1.386   .     A
C1061  C1062   1.388   .     A
C1061  C511    1.416   1_556 S
C1061  C505    1.400   1_556 S
C1062  C1063   1.385   .     A
C1062  H1076   1.083   .     S
C1063  F1070   1.352   .     S
C1064  F1068   1.361   .     S
C1065  O1096   1.381   .     S
H1072  O1087   0.984   .     S
H1073  O1088   0.990   .     S
H1077  C505    1.082   1_556 S
H1079  O1096   0.992   .     S
H1080  O1085   0.992   .     S
H1081  O1086   0.992   .     S
N1082  Zn1097  2.022   .     S
N1083  Zn1098  2.022   .     S
O1084  Zn1097  1.994   .     S
O1089  Zn1098  1.990   .     S
O1090  Zn1097  1.979   .     S
O1091  Zn1098  1.949   .     S
O1092  Zn1097  1.990   .     S
O1093  Zn1098  1.994   .     S
O1094  Zn1097  1.949   .     S
O1095  Zn1098  1.979   .     S
