data_str_m3_o1_o17_pcu_sym.12
_audit_creation_date              2020-01-03
_audit_creation_method            'Materials Studio'
_symmetry_space_group_name_H-M    'P1'
_symmetry_Int_Tables_number       1
_symmetry_cell_setting            triclinic
loop_
_symmetry_equiv_pos_as_xyz
  x,y,z
_cell_length_a                    32.1261
_cell_length_b                    29.4777
_cell_length_c                    29.9066
_cell_angle_alpha                 89.8254
_cell_angle_beta                  90.1122
_cell_angle_gamma                 90.0149
loop_
_atom_site_label
_atom_site_type_symbol
_atom_site_fract_x
_atom_site_fract_y
_atom_site_fract_z
_atom_site_U_iso_or_equiv
_atom_site_adp_type
_atom_site_occupancy
C1     C     0.08661   0.16666   0.24997   0.00000  Uiso   1.00
C2     C     0.04248   0.16666   0.24997   0.00000  Uiso   1.00
C3     C     0.18977   0.02392   0.28054   0.00000  Uiso   1.00
C4     C     0.14356   0.30942   0.21947   0.00000  Uiso   1.00
C5     C     0.14356   0.02408   0.21948   0.00000  Uiso   1.00
C6     C     0.18977   0.30925   0.28053   0.00000  Uiso   1.00
C7     C     0.16678   0.16677   0.16334   0.00000  Uiso   1.00
C8     C     0.16655   0.16657   0.33664   0.00000  Uiso   1.00
C9     C     0.18545   0.13120   0.40719   0.00000  Uiso   1.00
C10    C     0.14881   0.20278   0.09274   0.00000  Uiso   1.00
C11    C     0.16555   0.16605   0.38447   0.00000  Uiso   1.00
C12    C     0.24672   0.16667   0.25002   0.00000  Uiso   1.00
C13    C     0.16779   0.16730   0.11548   0.00000  Uiso   1.00
C14    C     0.14432   0.19991   0.40694   0.00000  Uiso   1.00
C15    C     0.18814   0.13282   0.09297   0.00000  Uiso   1.00
C16    C     0.14312   0.20009   0.45341   0.00000  Uiso   1.00
C17    C     0.18987   0.13305   0.04653   0.00000  Uiso   1.00
C18    C     0.16577   0.16606   0.47678   0.00000  Uiso   1.00
C19    C     0.16771   0.16740   0.02313   0.00000  Uiso   1.00
C20    C     0.18520   0.12980   0.45363   0.00000  Uiso   1.00
C21    C     0.14866   0.20390   0.04626   0.00000  Uiso   1.00
C22    C     0.12092   0.23412   0.47670   0.00000  Uiso   1.00
C23    C     0.12845   0.23949   0.02281   0.00000  Uiso   1.00
C24    C     0.21211   0.09904   0.02335   0.00000  Uiso   1.00
C25    C     0.20531   0.09412   0.47706   0.00000  Uiso   1.00
C26    C     0.02133   0.12653   0.26009   0.00000  Uiso   1.00
C27    C     0.31201   0.20680   0.23989   0.00000  Uiso   1.00
C28    C     0.31202   0.12654   0.26013   0.00000  Uiso   1.00
C29    C     0.02131   0.20679   0.23986   0.00000  Uiso   1.00
C30    C     0.29085   0.16667   0.25002   0.00000  Uiso   1.00
H31    H     0.20303   0.10686   0.38797   0.00000  Uiso   1.00
H32    H     0.12509   0.29126   0.19509   0.00000  Uiso   1.00
H33    H     0.12508   0.04236   0.19510   0.00000  Uiso   1.00
H34    H     0.20824   0.29097   0.30491   0.00000  Uiso   1.00
H35    H     0.12482   0.30206   0.41128   0.00000  Uiso   1.00
H36    H     0.28623   0.12705   0.07332   0.00000  Uiso   1.00
H37    H     0.13989   0.00915   0.00475   0.00000  Uiso   1.00
H38    H     0.26742   0.02012   0.40562   0.00000  Uiso   1.00
H39    H     0.13205   0.22776   0.11198   0.00000  Uiso   1.00
H40    H     0.12988   0.22657   0.38752   0.00000  Uiso   1.00
H41    H     0.20161   0.10538   0.11220   0.00000  Uiso   1.00
H42    H     0.03760   0.09538   0.26827   0.00000  Uiso   1.00
H43    H     0.29573   0.23795   0.23171   0.00000  Uiso   1.00
H44    H     0.29576   0.09540   0.26835   0.00000  Uiso   1.00
H45    H     0.03757   0.23793   0.23164   0.00000  Uiso   1.00
H46    H     0.20823   0.04207   0.30493   0.00000  Uiso   1.00
N47    N     0.16667   0.28573   0.25000   0.00000  Uiso   1.00
N48    N     0.16667   0.04760   0.25000   0.00000  Uiso   1.00
O49    O     0.10559   0.20487   0.24999   0.00000  Uiso   1.00
O50    O     0.04700   0.27811   0.48325   0.00000  Uiso   1.00
O51    O     0.09779   0.31113   0.42427   0.00000  Uiso   1.00
O52    O     0.23354   0.02724   0.07402   0.00000  Uiso   1.00
O53    O     0.28521   0.05218   0.01904   0.00000  Uiso   1.00
O54    O     0.27575   0.10032   0.09001   0.00000  Uiso   1.00
O55    O     0.07633   0.28605   0.07579   0.00000  Uiso   1.00
O56    O     0.15032   0.30356   0.08306   0.00000  Uiso   1.00
O57    O     0.11121   0.00200   0.01452   0.00000  Uiso   1.00
O58    O     0.22054   0.00305   0.48139   0.00000  Uiso   1.00
O59    O     0.18482   0.03128   0.41515   0.00000  Uiso   1.00
O60    O     0.22774   0.12846   0.25000   0.00000  Uiso   1.00
O61    O     0.26374   0.04842   0.42294   0.00000  Uiso   1.00
O62    O     0.22774   0.20487   0.25000   0.00000  Uiso   1.00
O63    O     0.10559   0.12846   0.24999   0.00000  Uiso   1.00
O64    O     0.16666   0.20489   0.18392   0.00000  Uiso   1.00
O65    O     0.16667   0.12844   0.31607   0.00000  Uiso   1.00
O66    O     0.16667   0.20489   0.31607   0.00000  Uiso   1.00
O67    O     0.16666   0.12844   0.18392   0.00000  Uiso   1.00
O68    O     0.05855   0.23475   0.41551   0.00000  Uiso   1.00
S69    S     0.07940   0.26432   0.44977   0.00000  Uiso   1.00
S70    S     0.25236   0.06782   0.05121   0.00000  Uiso   1.00
S71    S     0.11635   0.29170   0.05045   0.00000  Uiso   1.00
S72    S     0.21784   0.04216   0.44917   0.00000  Uiso   1.00
Zn73   Zn    0.16667   0.21771   0.25000   0.00000  Uiso   1.00
Zn74   Zn    0.16667   0.11563   0.25000   0.00000  Uiso   1.00
C75    C     0.41995   0.16666   0.24997   0.00000  Uiso   1.00
C76    C     0.37581   0.16666   0.24997   0.00000  Uiso   1.00
C77    C     0.52310   0.02392   0.28054   0.00000  Uiso   1.00
C78    C     0.47689   0.30942   0.21947   0.00000  Uiso   1.00
C79    C     0.47689   0.02408   0.21948   0.00000  Uiso   1.00
C80    C     0.52310   0.30925   0.28053   0.00000  Uiso   1.00
C81    C     0.50011   0.16677   0.16334   0.00000  Uiso   1.00
C82    C     0.49988   0.16657   0.33664   0.00000  Uiso   1.00
C83    C     0.51878   0.13120   0.40719   0.00000  Uiso   1.00
C84    C     0.48215   0.20278   0.09274   0.00000  Uiso   1.00
C85    C     0.49889   0.16605   0.38447   0.00000  Uiso   1.00
C86    C     0.58005   0.16667   0.25002   0.00000  Uiso   1.00
C87    C     0.50113   0.16730   0.11548   0.00000  Uiso   1.00
C88    C     0.47765   0.19991   0.40694   0.00000  Uiso   1.00
C89    C     0.52147   0.13282   0.09297   0.00000  Uiso   1.00
C90    C     0.47646   0.20009   0.45341   0.00000  Uiso   1.00
C91    C     0.52320   0.13305   0.04653   0.00000  Uiso   1.00
C92    C     0.49910   0.16606   0.47678   0.00000  Uiso   1.00
C93    C     0.50104   0.16740   0.02313   0.00000  Uiso   1.00
C94    C     0.51854   0.12980   0.45363   0.00000  Uiso   1.00
C95    C     0.48200   0.20390   0.04626   0.00000  Uiso   1.00
C96    C     0.45425   0.23412   0.47670   0.00000  Uiso   1.00
C97    C     0.46178   0.23949   0.02281   0.00000  Uiso   1.00
C98    C     0.54544   0.09904   0.02335   0.00000  Uiso   1.00
C99    C     0.53864   0.09412   0.47706   0.00000  Uiso   1.00
C100   C     0.35466   0.12653   0.26009   0.00000  Uiso   1.00
C101   C     0.64534   0.20680   0.23989   0.00000  Uiso   1.00
C102   C     0.64536   0.12654   0.26013   0.00000  Uiso   1.00
C103   C     0.35464   0.20679   0.23986   0.00000  Uiso   1.00
C104   C     0.62419   0.16667   0.25002   0.00000  Uiso   1.00
H105   H     0.53637   0.10686   0.38797   0.00000  Uiso   1.00
H106   H     0.45842   0.29126   0.19509   0.00000  Uiso   1.00
H107   H     0.45841   0.04236   0.19510   0.00000  Uiso   1.00
H108   H     0.54158   0.29097   0.30491   0.00000  Uiso   1.00
H109   H     0.45816   0.30206   0.41128   0.00000  Uiso   1.00
H110   H     0.61956   0.12705   0.07332   0.00000  Uiso   1.00
H111   H     0.47322   0.00915   0.00475   0.00000  Uiso   1.00
H112   H     0.60076   0.02012   0.40562   0.00000  Uiso   1.00
H113   H     0.46538   0.22776   0.11198   0.00000  Uiso   1.00
H114   H     0.46322   0.22657   0.38752   0.00000  Uiso   1.00
H115   H     0.53494   0.10538   0.11220   0.00000  Uiso   1.00
H116   H     0.37093   0.09538   0.26827   0.00000  Uiso   1.00
H117   H     0.62907   0.23795   0.23171   0.00000  Uiso   1.00
H118   H     0.62910   0.09540   0.26835   0.00000  Uiso   1.00
H119   H     0.37090   0.23793   0.23164   0.00000  Uiso   1.00
H120   H     0.54157   0.04207   0.30493   0.00000  Uiso   1.00
N121   N     0.50000   0.28573   0.25000   0.00000  Uiso   1.00
N122   N     0.50000   0.04760   0.25000   0.00000  Uiso   1.00
O123   O     0.43892   0.20487   0.24999   0.00000  Uiso   1.00
O124   O     0.38033   0.27811   0.48325   0.00000  Uiso   1.00
O125   O     0.43112   0.31113   0.42427   0.00000  Uiso   1.00
O126   O     0.56687   0.02724   0.07402   0.00000  Uiso   1.00
O127   O     0.61855   0.05218   0.01904   0.00000  Uiso   1.00
O128   O     0.60908   0.10032   0.09001   0.00000  Uiso   1.00
O129   O     0.40966   0.28605   0.07579   0.00000  Uiso   1.00
O130   O     0.48366   0.30356   0.08306   0.00000  Uiso   1.00
O131   O     0.44454   0.00200   0.01452   0.00000  Uiso   1.00
O132   O     0.55388   0.00305   0.48139   0.00000  Uiso   1.00
O133   O     0.51815   0.03128   0.41515   0.00000  Uiso   1.00
O134   O     0.56108   0.12846   0.25000   0.00000  Uiso   1.00
O135   O     0.59707   0.04842   0.42294   0.00000  Uiso   1.00
O136   O     0.56108   0.20487   0.25000   0.00000  Uiso   1.00
O137   O     0.43892   0.12846   0.24999   0.00000  Uiso   1.00
O138   O     0.49999   0.20489   0.18392   0.00000  Uiso   1.00
O139   O     0.50001   0.12844   0.31607   0.00000  Uiso   1.00
O140   O     0.50001   0.20489   0.31607   0.00000  Uiso   1.00
O141   O     0.49999   0.12844   0.18392   0.00000  Uiso   1.00
O142   O     0.39189   0.23475   0.41551   0.00000  Uiso   1.00
S143   S     0.41273   0.26432   0.44977   0.00000  Uiso   1.00
S144   S     0.58569   0.06782   0.05121   0.00000  Uiso   1.00
S145   S     0.44968   0.29170   0.05045   0.00000  Uiso   1.00
S146   S     0.55117   0.04216   0.44917   0.00000  Uiso   1.00
Zn147  Zn    0.50000   0.21771   0.25000   0.00000  Uiso   1.00
Zn148  Zn    0.50000   0.11563   0.25000   0.00000  Uiso   1.00
C149   C     0.75328   0.16666   0.24997   0.00000  Uiso   1.00
C150   C     0.70914   0.16666   0.24997   0.00000  Uiso   1.00
C151   C     0.85644   0.02392   0.28054   0.00000  Uiso   1.00
C152   C     0.81023   0.30942   0.21947   0.00000  Uiso   1.00
C153   C     0.81022   0.02408   0.21948   0.00000  Uiso   1.00
C154   C     0.85644   0.30925   0.28053   0.00000  Uiso   1.00
C155   C     0.83344   0.16677   0.16334   0.00000  Uiso   1.00
C156   C     0.83321   0.16657   0.33664   0.00000  Uiso   1.00
C157   C     0.85212   0.13120   0.40719   0.00000  Uiso   1.00
C158   C     0.81548   0.20278   0.09274   0.00000  Uiso   1.00
C159   C     0.83222   0.16605   0.38447   0.00000  Uiso   1.00
C160   C     0.91339   0.16667   0.25002   0.00000  Uiso   1.00
C161   C     0.83446   0.16730   0.11548   0.00000  Uiso   1.00
C162   C     0.81098   0.19991   0.40694   0.00000  Uiso   1.00
C163   C     0.85480   0.13282   0.09297   0.00000  Uiso   1.00
C164   C     0.80979   0.20009   0.45341   0.00000  Uiso   1.00
C165   C     0.85654   0.13305   0.04653   0.00000  Uiso   1.00
C166   C     0.83244   0.16606   0.47678   0.00000  Uiso   1.00
C167   C     0.83437   0.16740   0.02313   0.00000  Uiso   1.00
C168   C     0.85187   0.12980   0.45363   0.00000  Uiso   1.00
C169   C     0.81533   0.20390   0.04626   0.00000  Uiso   1.00
C170   C     0.78759   0.23412   0.47670   0.00000  Uiso   1.00
C171   C     0.79512   0.23949   0.02281   0.00000  Uiso   1.00
C172   C     0.87877   0.09904   0.02335   0.00000  Uiso   1.00
C173   C     0.87198   0.09412   0.47706   0.00000  Uiso   1.00
C174   C     0.68799   0.12653   0.26009   0.00000  Uiso   1.00
C175   C     0.97867   0.20680   0.23989   0.00000  Uiso   1.00
C176   C     0.97869   0.12654   0.26013   0.00000  Uiso   1.00
C177   C     0.68798   0.20679   0.23986   0.00000  Uiso   1.00
C178   C     0.95752   0.16667   0.25002   0.00000  Uiso   1.00
H179   H     0.86970   0.10686   0.38797   0.00000  Uiso   1.00
H180   H     0.79176   0.29126   0.19509   0.00000  Uiso   1.00
H181   H     0.79174   0.04236   0.19510   0.00000  Uiso   1.00
H182   H     0.87491   0.29097   0.30491   0.00000  Uiso   1.00
H183   H     0.79149   0.30206   0.41128   0.00000  Uiso   1.00
H184   H     0.95290   0.12705   0.07332   0.00000  Uiso   1.00
H185   H     0.80656   0.00915   0.00475   0.00000  Uiso   1.00
H186   H     0.93409   0.02012   0.40562   0.00000  Uiso   1.00
H187   H     0.79871   0.22776   0.11198   0.00000  Uiso   1.00
H188   H     0.79655   0.22657   0.38752   0.00000  Uiso   1.00
H189   H     0.86828   0.10538   0.11220   0.00000  Uiso   1.00
H190   H     0.70427   0.09538   0.26827   0.00000  Uiso   1.00
H191   H     0.96240   0.23795   0.23171   0.00000  Uiso   1.00
H192   H     0.96243   0.09540   0.26835   0.00000  Uiso   1.00
H193   H     0.70424   0.23793   0.23164   0.00000  Uiso   1.00
H194   H     0.87490   0.04207   0.30493   0.00000  Uiso   1.00
N195   N     0.83333   0.28573   0.25000   0.00000  Uiso   1.00
N196   N     0.83333   0.04760   0.25000   0.00000  Uiso   1.00
O197   O     0.77226   0.20487   0.24999   0.00000  Uiso   1.00
O198   O     0.71367   0.27811   0.48325   0.00000  Uiso   1.00
O199   O     0.76446   0.31113   0.42427   0.00000  Uiso   1.00
O200   O     0.90020   0.02724   0.07402   0.00000  Uiso   1.00
O201   O     0.95188   0.05218   0.01904   0.00000  Uiso   1.00
O202   O     0.94242   0.10032   0.09001   0.00000  Uiso   1.00
O203   O     0.74299   0.28605   0.07579   0.00000  Uiso   1.00
O204   O     0.81699   0.30356   0.08306   0.00000  Uiso   1.00
O205   O     0.77788   0.00200   0.01452   0.00000  Uiso   1.00
O206   O     0.88721   0.00305   0.48139   0.00000  Uiso   1.00
O207   O     0.85149   0.03128   0.41515   0.00000  Uiso   1.00
O208   O     0.89441   0.12846   0.25000   0.00000  Uiso   1.00
O209   O     0.93040   0.04842   0.42294   0.00000  Uiso   1.00
O210   O     0.89441   0.20487   0.25000   0.00000  Uiso   1.00
O211   O     0.77226   0.12846   0.24999   0.00000  Uiso   1.00
O212   O     0.83333   0.20489   0.18392   0.00000  Uiso   1.00
O213   O     0.83334   0.12844   0.31607   0.00000  Uiso   1.00
O214   O     0.83334   0.20489   0.31607   0.00000  Uiso   1.00
O215   O     0.83333   0.12844   0.18392   0.00000  Uiso   1.00
O216   O     0.72522   0.23475   0.41551   0.00000  Uiso   1.00
S217   S     0.74607   0.26432   0.44977   0.00000  Uiso   1.00
S218   S     0.91903   0.06782   0.05121   0.00000  Uiso   1.00
S219   S     0.78302   0.29170   0.05045   0.00000  Uiso   1.00
S220   S     0.88450   0.04216   0.44917   0.00000  Uiso   1.00
Zn221  Zn    0.83333   0.21771   0.25000   0.00000  Uiso   1.00
Zn222  Zn    0.83333   0.11563   0.25000   0.00000  Uiso   1.00
C223   C     0.08661   0.50000   0.24997   0.00000  Uiso   1.00
C224   C     0.04248   0.49999   0.24997   0.00000  Uiso   1.00
C225   C     0.18977   0.35725   0.28054   0.00000  Uiso   1.00
C226   C     0.14356   0.64275   0.21947   0.00000  Uiso   1.00
C227   C     0.14356   0.35741   0.21948   0.00000  Uiso   1.00
C228   C     0.18977   0.64259   0.28053   0.00000  Uiso   1.00
C229   C     0.16678   0.50010   0.16334   0.00000  Uiso   1.00
C230   C     0.16655   0.49990   0.33664   0.00000  Uiso   1.00
C231   C     0.18545   0.46453   0.40719   0.00000  Uiso   1.00
C232   C     0.14881   0.53612   0.09274   0.00000  Uiso   1.00
C233   C     0.16555   0.49938   0.38447   0.00000  Uiso   1.00
C234   C     0.24672   0.50000   0.25002   0.00000  Uiso   1.00
C235   C     0.16779   0.50064   0.11548   0.00000  Uiso   1.00
C236   C     0.14432   0.53324   0.40694   0.00000  Uiso   1.00
C237   C     0.18814   0.46615   0.09297   0.00000  Uiso   1.00
C238   C     0.14312   0.53342   0.45341   0.00000  Uiso   1.00
C239   C     0.18987   0.46639   0.04653   0.00000  Uiso   1.00
C240   C     0.16577   0.49940   0.47678   0.00000  Uiso   1.00
C241   C     0.16771   0.50074   0.02313   0.00000  Uiso   1.00
C242   C     0.18520   0.46314   0.45363   0.00000  Uiso   1.00
C243   C     0.14866   0.53723   0.04626   0.00000  Uiso   1.00
C244   C     0.12092   0.56745   0.47670   0.00000  Uiso   1.00
C245   C     0.12845   0.57282   0.02281   0.00000  Uiso   1.00
C246   C     0.21211   0.43238   0.02335   0.00000  Uiso   1.00
C247   C     0.20531   0.42745   0.47706   0.00000  Uiso   1.00
C248   C     0.02133   0.45986   0.26009   0.00000  Uiso   1.00
C249   C     0.31201   0.54014   0.23989   0.00000  Uiso   1.00
C250   C     0.31202   0.45987   0.26013   0.00000  Uiso   1.00
C251   C     0.02131   0.54013   0.23986   0.00000  Uiso   1.00
C252   C     0.29085   0.50001   0.25002   0.00000  Uiso   1.00
H253   H     0.20303   0.44019   0.38797   0.00000  Uiso   1.00
H254   H     0.12509   0.62460   0.19509   0.00000  Uiso   1.00
H255   H     0.12508   0.37570   0.19510   0.00000  Uiso   1.00
H256   H     0.20824   0.62430   0.30491   0.00000  Uiso   1.00
H257   H     0.12482   0.63540   0.41128   0.00000  Uiso   1.00
H258   H     0.28623   0.46038   0.07332   0.00000  Uiso   1.00
H259   H     0.13989   0.34249   0.00475   0.00000  Uiso   1.00
H260   H     0.26742   0.35345   0.40562   0.00000  Uiso   1.00
H261   H     0.13205   0.56110   0.11198   0.00000  Uiso   1.00
H262   H     0.12988   0.55990   0.38752   0.00000  Uiso   1.00
H263   H     0.20161   0.43871   0.11220   0.00000  Uiso   1.00
H264   H     0.03760   0.42872   0.26827   0.00000  Uiso   1.00
H265   H     0.29573   0.57128   0.23171   0.00000  Uiso   1.00
H266   H     0.29576   0.42873   0.26835   0.00000  Uiso   1.00
H267   H     0.03757   0.57126   0.23164   0.00000  Uiso   1.00
H268   H     0.20823   0.37540   0.30493   0.00000  Uiso   1.00
N269   N     0.16667   0.61907   0.25000   0.00000  Uiso   1.00
N270   N     0.16667   0.38093   0.25000   0.00000  Uiso   1.00
O271   O     0.10559   0.53821   0.24999   0.00000  Uiso   1.00
O272   O     0.04700   0.61145   0.48325   0.00000  Uiso   1.00
O273   O     0.09779   0.64447   0.42427   0.00000  Uiso   1.00
O274   O     0.23354   0.36058   0.07402   0.00000  Uiso   1.00
O275   O     0.28521   0.38551   0.01904   0.00000  Uiso   1.00
O276   O     0.27575   0.43365   0.09001   0.00000  Uiso   1.00
O277   O     0.07633   0.61938   0.07579   0.00000  Uiso   1.00
O278   O     0.15032   0.63690   0.08306   0.00000  Uiso   1.00
O279   O     0.11121   0.33533   0.01452   0.00000  Uiso   1.00
O280   O     0.22054   0.33638   0.48139   0.00000  Uiso   1.00
O281   O     0.18482   0.36461   0.41515   0.00000  Uiso   1.00
O282   O     0.22774   0.46179   0.25000   0.00000  Uiso   1.00
O283   O     0.26374   0.38176   0.42294   0.00000  Uiso   1.00
O284   O     0.22774   0.53821   0.25000   0.00000  Uiso   1.00
O285   O     0.10559   0.46179   0.24999   0.00000  Uiso   1.00
O286   O     0.16666   0.53823   0.18392   0.00000  Uiso   1.00
O287   O     0.16667   0.46177   0.31607   0.00000  Uiso   1.00
O288   O     0.16667   0.53823   0.31607   0.00000  Uiso   1.00
O289   O     0.16666   0.46177   0.18392   0.00000  Uiso   1.00
O290   O     0.05855   0.56808   0.41551   0.00000  Uiso   1.00
S291   S     0.07940   0.59766   0.44977   0.00000  Uiso   1.00
S292   S     0.25236   0.40115   0.05121   0.00000  Uiso   1.00
S293   S     0.11635   0.62504   0.05045   0.00000  Uiso   1.00
S294   S     0.21784   0.37549   0.44917   0.00000  Uiso   1.00
Zn295  Zn    0.16667   0.55104   0.25000   0.00000  Uiso   1.00
Zn296  Zn    0.16667   0.44896   0.25000   0.00000  Uiso   1.00
C297   C     0.41995   0.50000   0.24997   0.00000  Uiso   1.00
C298   C     0.37581   0.49999   0.24997   0.00000  Uiso   1.00
C299   C     0.52310   0.35725   0.28054   0.00000  Uiso   1.00
C300   C     0.47689   0.64275   0.21947   0.00000  Uiso   1.00
C301   C     0.47689   0.35741   0.21948   0.00000  Uiso   1.00
C302   C     0.52310   0.64259   0.28053   0.00000  Uiso   1.00
C303   C     0.50011   0.50010   0.16334   0.00000  Uiso   1.00
C304   C     0.49988   0.49990   0.33664   0.00000  Uiso   1.00
C305   C     0.51878   0.46453   0.40719   0.00000  Uiso   1.00
C306   C     0.48215   0.53612   0.09274   0.00000  Uiso   1.00
C307   C     0.49889   0.49938   0.38447   0.00000  Uiso   1.00
C308   C     0.58005   0.50000   0.25002   0.00000  Uiso   1.00
C309   C     0.50113   0.50064   0.11548   0.00000  Uiso   1.00
C310   C     0.47765   0.53324   0.40694   0.00000  Uiso   1.00
C311   C     0.52147   0.46615   0.09297   0.00000  Uiso   1.00
C312   C     0.47646   0.53342   0.45341   0.00000  Uiso   1.00
C313   C     0.52320   0.46639   0.04653   0.00000  Uiso   1.00
C314   C     0.49910   0.49940   0.47678   0.00000  Uiso   1.00
C315   C     0.50104   0.50074   0.02313   0.00000  Uiso   1.00
C316   C     0.51854   0.46314   0.45363   0.00000  Uiso   1.00
C317   C     0.48200   0.53723   0.04626   0.00000  Uiso   1.00
C318   C     0.45425   0.56745   0.47670   0.00000  Uiso   1.00
C319   C     0.46178   0.57282   0.02281   0.00000  Uiso   1.00
C320   C     0.54544   0.43238   0.02335   0.00000  Uiso   1.00
C321   C     0.53864   0.42745   0.47706   0.00000  Uiso   1.00
C322   C     0.35466   0.45986   0.26009   0.00000  Uiso   1.00
C323   C     0.64534   0.54014   0.23989   0.00000  Uiso   1.00
C324   C     0.64536   0.45987   0.26013   0.00000  Uiso   1.00
C325   C     0.35464   0.54013   0.23986   0.00000  Uiso   1.00
C326   C     0.62419   0.50001   0.25002   0.00000  Uiso   1.00
H327   H     0.53637   0.44019   0.38797   0.00000  Uiso   1.00
H328   H     0.45842   0.62460   0.19509   0.00000  Uiso   1.00
H329   H     0.45841   0.37570   0.19510   0.00000  Uiso   1.00
H330   H     0.54158   0.62430   0.30491   0.00000  Uiso   1.00
H331   H     0.45816   0.63540   0.41128   0.00000  Uiso   1.00
H332   H     0.61956   0.46038   0.07332   0.00000  Uiso   1.00
H333   H     0.47322   0.34249   0.00475   0.00000  Uiso   1.00
H334   H     0.60076   0.35345   0.40562   0.00000  Uiso   1.00
H335   H     0.46538   0.56110   0.11198   0.00000  Uiso   1.00
H336   H     0.46322   0.55990   0.38752   0.00000  Uiso   1.00
H337   H     0.53494   0.43871   0.11220   0.00000  Uiso   1.00
H338   H     0.37093   0.42872   0.26827   0.00000  Uiso   1.00
H339   H     0.62907   0.57128   0.23171   0.00000  Uiso   1.00
H340   H     0.62910   0.42873   0.26835   0.00000  Uiso   1.00
H341   H     0.37090   0.57126   0.23164   0.00000  Uiso   1.00
H342   H     0.54157   0.37540   0.30493   0.00000  Uiso   1.00
N343   N     0.50000   0.61907   0.25000   0.00000  Uiso   1.00
N344   N     0.50000   0.38093   0.25000   0.00000  Uiso   1.00
O345   O     0.43892   0.53821   0.24999   0.00000  Uiso   1.00
O346   O     0.38033   0.61145   0.48325   0.00000  Uiso   1.00
O347   O     0.43112   0.64447   0.42427   0.00000  Uiso   1.00
O348   O     0.56687   0.36058   0.07402   0.00000  Uiso   1.00
O349   O     0.61855   0.38551   0.01904   0.00000  Uiso   1.00
O350   O     0.60908   0.43365   0.09001   0.00000  Uiso   1.00
O351   O     0.40966   0.61938   0.07579   0.00000  Uiso   1.00
O352   O     0.48366   0.63690   0.08306   0.00000  Uiso   1.00
O353   O     0.44454   0.33533   0.01452   0.00000  Uiso   1.00
O354   O     0.55388   0.33638   0.48139   0.00000  Uiso   1.00
O355   O     0.51815   0.36461   0.41515   0.00000  Uiso   1.00
O356   O     0.56108   0.46179   0.25000   0.00000  Uiso   1.00
O357   O     0.59707   0.38176   0.42294   0.00000  Uiso   1.00
O358   O     0.56108   0.53821   0.25000   0.00000  Uiso   1.00
O359   O     0.43892   0.46179   0.24999   0.00000  Uiso   1.00
O360   O     0.49999   0.53823   0.18392   0.00000  Uiso   1.00
O361   O     0.50001   0.46177   0.31607   0.00000  Uiso   1.00
O362   O     0.50001   0.53823   0.31607   0.00000  Uiso   1.00
O363   O     0.49999   0.46177   0.18392   0.00000  Uiso   1.00
O364   O     0.39189   0.56808   0.41551   0.00000  Uiso   1.00
S365   S     0.41273   0.59766   0.44977   0.00000  Uiso   1.00
S366   S     0.58569   0.40115   0.05121   0.00000  Uiso   1.00
S367   S     0.44968   0.62504   0.05045   0.00000  Uiso   1.00
S368   S     0.55117   0.37549   0.44917   0.00000  Uiso   1.00
Zn369  Zn    0.50000   0.55104   0.25000   0.00000  Uiso   1.00
Zn370  Zn    0.50000   0.44896   0.25000   0.00000  Uiso   1.00
C371   C     0.75328   0.50000   0.24997   0.00000  Uiso   1.00
C372   C     0.70914   0.49999   0.24997   0.00000  Uiso   1.00
C373   C     0.85644   0.35725   0.28054   0.00000  Uiso   1.00
C374   C     0.81023   0.64275   0.21947   0.00000  Uiso   1.00
C375   C     0.81022   0.35741   0.21948   0.00000  Uiso   1.00
C376   C     0.85644   0.64259   0.28053   0.00000  Uiso   1.00
C377   C     0.83344   0.50010   0.16334   0.00000  Uiso   1.00
C378   C     0.83321   0.49990   0.33664   0.00000  Uiso   1.00
C379   C     0.85212   0.46453   0.40719   0.00000  Uiso   1.00
C380   C     0.81548   0.53612   0.09274   0.00000  Uiso   1.00
C381   C     0.83222   0.49938   0.38447   0.00000  Uiso   1.00
C382   C     0.91339   0.50000   0.25002   0.00000  Uiso   1.00
C383   C     0.83446   0.50064   0.11548   0.00000  Uiso   1.00
C384   C     0.81098   0.53324   0.40694   0.00000  Uiso   1.00
C385   C     0.85480   0.46615   0.09297   0.00000  Uiso   1.00
C386   C     0.80979   0.53342   0.45341   0.00000  Uiso   1.00
C387   C     0.85654   0.46639   0.04653   0.00000  Uiso   1.00
C388   C     0.83244   0.49940   0.47678   0.00000  Uiso   1.00
C389   C     0.83437   0.50074   0.02313   0.00000  Uiso   1.00
C390   C     0.85187   0.46314   0.45363   0.00000  Uiso   1.00
C391   C     0.81533   0.53723   0.04626   0.00000  Uiso   1.00
C392   C     0.78759   0.56745   0.47670   0.00000  Uiso   1.00
C393   C     0.79512   0.57282   0.02281   0.00000  Uiso   1.00
C394   C     0.87877   0.43238   0.02335   0.00000  Uiso   1.00
C395   C     0.87198   0.42745   0.47706   0.00000  Uiso   1.00
C396   C     0.68799   0.45986   0.26009   0.00000  Uiso   1.00
C397   C     0.97867   0.54014   0.23989   0.00000  Uiso   1.00
C398   C     0.97869   0.45987   0.26013   0.00000  Uiso   1.00
C399   C     0.68798   0.54013   0.23986   0.00000  Uiso   1.00
C400   C     0.95752   0.50001   0.25002   0.00000  Uiso   1.00
H401   H     0.86970   0.44019   0.38797   0.00000  Uiso   1.00
H402   H     0.79176   0.62460   0.19509   0.00000  Uiso   1.00
H403   H     0.79174   0.37570   0.19510   0.00000  Uiso   1.00
H404   H     0.87491   0.62430   0.30491   0.00000  Uiso   1.00
H405   H     0.79149   0.63540   0.41128   0.00000  Uiso   1.00
H406   H     0.95290   0.46038   0.07332   0.00000  Uiso   1.00
H407   H     0.80656   0.34249   0.00475   0.00000  Uiso   1.00
H408   H     0.93409   0.35345   0.40562   0.00000  Uiso   1.00
H409   H     0.79871   0.56110   0.11198   0.00000  Uiso   1.00
H410   H     0.79655   0.55990   0.38752   0.00000  Uiso   1.00
H411   H     0.86828   0.43871   0.11220   0.00000  Uiso   1.00
H412   H     0.70427   0.42872   0.26827   0.00000  Uiso   1.00
H413   H     0.96240   0.57128   0.23171   0.00000  Uiso   1.00
H414   H     0.96243   0.42873   0.26835   0.00000  Uiso   1.00
H415   H     0.70424   0.57126   0.23164   0.00000  Uiso   1.00
H416   H     0.87490   0.37540   0.30493   0.00000  Uiso   1.00
N417   N     0.83333   0.61907   0.25000   0.00000  Uiso   1.00
N418   N     0.83333   0.38093   0.25000   0.00000  Uiso   1.00
O419   O     0.77226   0.53821   0.24999   0.00000  Uiso   1.00
O420   O     0.71367   0.61145   0.48325   0.00000  Uiso   1.00
O421   O     0.76446   0.64447   0.42427   0.00000  Uiso   1.00
O422   O     0.90020   0.36058   0.07402   0.00000  Uiso   1.00
O423   O     0.95188   0.38551   0.01904   0.00000  Uiso   1.00
O424   O     0.94242   0.43365   0.09001   0.00000  Uiso   1.00
O425   O     0.74299   0.61938   0.07579   0.00000  Uiso   1.00
O426   O     0.81699   0.63690   0.08306   0.00000  Uiso   1.00
O427   O     0.77788   0.33533   0.01452   0.00000  Uiso   1.00
O428   O     0.88721   0.33638   0.48139   0.00000  Uiso   1.00
O429   O     0.85149   0.36461   0.41515   0.00000  Uiso   1.00
O430   O     0.89441   0.46179   0.25000   0.00000  Uiso   1.00
O431   O     0.93040   0.38176   0.42294   0.00000  Uiso   1.00
O432   O     0.89441   0.53821   0.25000   0.00000  Uiso   1.00
O433   O     0.77226   0.46179   0.24999   0.00000  Uiso   1.00
O434   O     0.83333   0.53823   0.18392   0.00000  Uiso   1.00
O435   O     0.83334   0.46177   0.31607   0.00000  Uiso   1.00
O436   O     0.83334   0.53823   0.31607   0.00000  Uiso   1.00
O437   O     0.83333   0.46177   0.18392   0.00000  Uiso   1.00
O438   O     0.72522   0.56808   0.41551   0.00000  Uiso   1.00
S439   S     0.74607   0.59766   0.44977   0.00000  Uiso   1.00
S440   S     0.91903   0.40115   0.05121   0.00000  Uiso   1.00
S441   S     0.78302   0.62504   0.05045   0.00000  Uiso   1.00
S442   S     0.88450   0.37549   0.44917   0.00000  Uiso   1.00
Zn443  Zn    0.83333   0.55104   0.25000   0.00000  Uiso   1.00
Zn444  Zn    0.83333   0.44896   0.25000   0.00000  Uiso   1.00
C445   C     0.08661   0.83333   0.24997   0.00000  Uiso   1.00
C446   C     0.04248   0.83332   0.24997   0.00000  Uiso   1.00
C447   C     0.18977   0.69058   0.28054   0.00000  Uiso   1.00
C448   C     0.14356   0.97608   0.21947   0.00000  Uiso   1.00
C449   C     0.14356   0.69075   0.21948   0.00000  Uiso   1.00
C450   C     0.18977   0.97592   0.28053   0.00000  Uiso   1.00
C451   C     0.16678   0.83343   0.16334   0.00000  Uiso   1.00
C452   C     0.16655   0.83324   0.33664   0.00000  Uiso   1.00
C453   C     0.18545   0.79787   0.40719   0.00000  Uiso   1.00
C454   C     0.14881   0.86945   0.09274   0.00000  Uiso   1.00
C455   C     0.16555   0.83272   0.38447   0.00000  Uiso   1.00
C456   C     0.24672   0.83334   0.25002   0.00000  Uiso   1.00
C457   C     0.16779   0.83397   0.11548   0.00000  Uiso   1.00
C458   C     0.14432   0.86657   0.40694   0.00000  Uiso   1.00
C459   C     0.18814   0.79949   0.09297   0.00000  Uiso   1.00
C460   C     0.14312   0.86675   0.45341   0.00000  Uiso   1.00
C461   C     0.18987   0.79972   0.04653   0.00000  Uiso   1.00
C462   C     0.16577   0.83273   0.47678   0.00000  Uiso   1.00
C463   C     0.16771   0.83407   0.02313   0.00000  Uiso   1.00
C464   C     0.18520   0.79647   0.45363   0.00000  Uiso   1.00
C465   C     0.14866   0.87057   0.04626   0.00000  Uiso   1.00
C466   C     0.12092   0.90078   0.47670   0.00000  Uiso   1.00
C467   C     0.12845   0.90616   0.02281   0.00000  Uiso   1.00
C468   C     0.21211   0.76571   0.02335   0.00000  Uiso   1.00
C469   C     0.20531   0.76078   0.47706   0.00000  Uiso   1.00
C470   C     0.02133   0.79319   0.26009   0.00000  Uiso   1.00
C471   C     0.31201   0.87347   0.23989   0.00000  Uiso   1.00
C472   C     0.31202   0.79320   0.26013   0.00000  Uiso   1.00
C473   C     0.02131   0.87346   0.23986   0.00000  Uiso   1.00
C474   C     0.29085   0.83334   0.25002   0.00000  Uiso   1.00
H475   H     0.20303   0.77352   0.38797   0.00000  Uiso   1.00
H476   H     0.12509   0.95793   0.19509   0.00000  Uiso   1.00
H477   H     0.12508   0.70903   0.19510   0.00000  Uiso   1.00
H478   H     0.20824   0.95764   0.30491   0.00000  Uiso   1.00
H479   H     0.12482   0.96873   0.41128   0.00000  Uiso   1.00
H480   H     0.28623   0.79371   0.07332   0.00000  Uiso   1.00
H481   H     0.13989   0.67582   0.00475   0.00000  Uiso   1.00
H482   H     0.26742   0.68678   0.40562   0.00000  Uiso   1.00
H483   H     0.13205   0.89443   0.11198   0.00000  Uiso   1.00
H484   H     0.12988   0.89324   0.38752   0.00000  Uiso   1.00
H485   H     0.20161   0.77204   0.11220   0.00000  Uiso   1.00
H486   H     0.03760   0.76205   0.26827   0.00000  Uiso   1.00
H487   H     0.29573   0.90461   0.23171   0.00000  Uiso   1.00
H488   H     0.29576   0.76207   0.26835   0.00000  Uiso   1.00
H489   H     0.03757   0.90460   0.23164   0.00000  Uiso   1.00
H490   H     0.20823   0.70873   0.30493   0.00000  Uiso   1.00
N491   N     0.16667   0.95240   0.25000   0.00000  Uiso   1.00
N492   N     0.16667   0.71427   0.25000   0.00000  Uiso   1.00
O493   O     0.10559   0.87154   0.24999   0.00000  Uiso   1.00
O494   O     0.04700   0.94478   0.48325   0.00000  Uiso   1.00
O495   O     0.09779   0.97780   0.42427   0.00000  Uiso   1.00
O496   O     0.23354   0.69391   0.07402   0.00000  Uiso   1.00
O497   O     0.28521   0.71884   0.01904   0.00000  Uiso   1.00
O498   O     0.27575   0.76699   0.09001   0.00000  Uiso   1.00
O499   O     0.07633   0.95271   0.07579   0.00000  Uiso   1.00
O500   O     0.15032   0.97023   0.08306   0.00000  Uiso   1.00
O501   O     0.11121   0.66867   0.01452   0.00000  Uiso   1.00
O502   O     0.22054   0.66972   0.48139   0.00000  Uiso   1.00
O503   O     0.18482   0.69795   0.41515   0.00000  Uiso   1.00
O504   O     0.22774   0.79513   0.25000   0.00000  Uiso   1.00
O505   O     0.26374   0.71509   0.42294   0.00000  Uiso   1.00
O506   O     0.22774   0.87154   0.25000   0.00000  Uiso   1.00
O507   O     0.10559   0.79513   0.24999   0.00000  Uiso   1.00
O508   O     0.16666   0.87156   0.18392   0.00000  Uiso   1.00
O509   O     0.16667   0.79511   0.31607   0.00000  Uiso   1.00
O510   O     0.16667   0.87156   0.31607   0.00000  Uiso   1.00
O511   O     0.16666   0.79511   0.18392   0.00000  Uiso   1.00
O512   O     0.05855   0.90141   0.41551   0.00000  Uiso   1.00
S513   S     0.07940   0.93099   0.44977   0.00000  Uiso   1.00
S514   S     0.25236   0.73448   0.05121   0.00000  Uiso   1.00
S515   S     0.11635   0.95837   0.05045   0.00000  Uiso   1.00
S516   S     0.21784   0.70883   0.44917   0.00000  Uiso   1.00
Zn517  Zn    0.16667   0.88437   0.25000   0.00000  Uiso   1.00
Zn518  Zn    0.16667   0.78229   0.25000   0.00000  Uiso   1.00
C519   C     0.41995   0.83333   0.24997   0.00000  Uiso   1.00
C520   C     0.37581   0.83332   0.24997   0.00000  Uiso   1.00
C521   C     0.52310   0.69058   0.28054   0.00000  Uiso   1.00
C522   C     0.47689   0.97608   0.21947   0.00000  Uiso   1.00
C523   C     0.47689   0.69075   0.21948   0.00000  Uiso   1.00
C524   C     0.52310   0.97592   0.28053   0.00000  Uiso   1.00
C525   C     0.50011   0.83343   0.16334   0.00000  Uiso   1.00
C526   C     0.49988   0.83324   0.33664   0.00000  Uiso   1.00
C527   C     0.51878   0.79787   0.40719   0.00000  Uiso   1.00
C528   C     0.48215   0.86945   0.09274   0.00000  Uiso   1.00
C529   C     0.49889   0.83272   0.38447   0.00000  Uiso   1.00
C530   C     0.58005   0.83334   0.25002   0.00000  Uiso   1.00
C531   C     0.50113   0.83397   0.11548   0.00000  Uiso   1.00
C532   C     0.47765   0.86657   0.40694   0.00000  Uiso   1.00
C533   C     0.52147   0.79949   0.09297   0.00000  Uiso   1.00
C534   C     0.47646   0.86675   0.45341   0.00000  Uiso   1.00
C535   C     0.52320   0.79972   0.04653   0.00000  Uiso   1.00
C536   C     0.49910   0.83273   0.47678   0.00000  Uiso   1.00
C537   C     0.50104   0.83407   0.02313   0.00000  Uiso   1.00
C538   C     0.51854   0.79647   0.45363   0.00000  Uiso   1.00
C539   C     0.48200   0.87057   0.04626   0.00000  Uiso   1.00
C540   C     0.45425   0.90078   0.47670   0.00000  Uiso   1.00
C541   C     0.46178   0.90616   0.02281   0.00000  Uiso   1.00
C542   C     0.54544   0.76571   0.02335   0.00000  Uiso   1.00
C543   C     0.53864   0.76078   0.47706   0.00000  Uiso   1.00
C544   C     0.35466   0.79319   0.26009   0.00000  Uiso   1.00
C545   C     0.64534   0.87347   0.23989   0.00000  Uiso   1.00
C546   C     0.64536   0.79320   0.26013   0.00000  Uiso   1.00
C547   C     0.35464   0.87346   0.23986   0.00000  Uiso   1.00
C548   C     0.62419   0.83334   0.25002   0.00000  Uiso   1.00
H549   H     0.53637   0.77352   0.38797   0.00000  Uiso   1.00
H550   H     0.45842   0.95793   0.19509   0.00000  Uiso   1.00
H551   H     0.45841   0.70903   0.19510   0.00000  Uiso   1.00
H552   H     0.54158   0.95764   0.30491   0.00000  Uiso   1.00
H553   H     0.45816   0.96873   0.41128   0.00000  Uiso   1.00
H554   H     0.61956   0.79371   0.07332   0.00000  Uiso   1.00
H555   H     0.47322   0.67582   0.00475   0.00000  Uiso   1.00
H556   H     0.60076   0.68678   0.40562   0.00000  Uiso   1.00
H557   H     0.46538   0.89443   0.11198   0.00000  Uiso   1.00
H558   H     0.46322   0.89324   0.38752   0.00000  Uiso   1.00
H559   H     0.53494   0.77204   0.11220   0.00000  Uiso   1.00
H560   H     0.37093   0.76205   0.26827   0.00000  Uiso   1.00
H561   H     0.62907   0.90461   0.23171   0.00000  Uiso   1.00
H562   H     0.62910   0.76207   0.26835   0.00000  Uiso   1.00
H563   H     0.37090   0.90460   0.23164   0.00000  Uiso   1.00
H564   H     0.54157   0.70873   0.30493   0.00000  Uiso   1.00
N565   N     0.50000   0.95240   0.25000   0.00000  Uiso   1.00
N566   N     0.50000   0.71427   0.25000   0.00000  Uiso   1.00
O567   O     0.43892   0.87154   0.24999   0.00000  Uiso   1.00
O568   O     0.38033   0.94478   0.48325   0.00000  Uiso   1.00
O569   O     0.43112   0.97780   0.42427   0.00000  Uiso   1.00
O570   O     0.56687   0.69391   0.07402   0.00000  Uiso   1.00
O571   O     0.61855   0.71884   0.01904   0.00000  Uiso   1.00
O572   O     0.60908   0.76699   0.09001   0.00000  Uiso   1.00
O573   O     0.40966   0.95271   0.07579   0.00000  Uiso   1.00
O574   O     0.48366   0.97023   0.08306   0.00000  Uiso   1.00
O575   O     0.44454   0.66867   0.01452   0.00000  Uiso   1.00
O576   O     0.55388   0.66972   0.48139   0.00000  Uiso   1.00
O577   O     0.51815   0.69795   0.41515   0.00000  Uiso   1.00
O578   O     0.56108   0.79513   0.25000   0.00000  Uiso   1.00
O579   O     0.59707   0.71509   0.42294   0.00000  Uiso   1.00
O580   O     0.56108   0.87154   0.25000   0.00000  Uiso   1.00
O581   O     0.43892   0.79513   0.24999   0.00000  Uiso   1.00
O582   O     0.49999   0.87156   0.18392   0.00000  Uiso   1.00
O583   O     0.50001   0.79511   0.31607   0.00000  Uiso   1.00
O584   O     0.50001   0.87156   0.31607   0.00000  Uiso   1.00
O585   O     0.49999   0.79511   0.18392   0.00000  Uiso   1.00
O586   O     0.39189   0.90141   0.41551   0.00000  Uiso   1.00
S587   S     0.41273   0.93099   0.44977   0.00000  Uiso   1.00
S588   S     0.58569   0.73448   0.05121   0.00000  Uiso   1.00
S589   S     0.44968   0.95837   0.05045   0.00000  Uiso   1.00
S590   S     0.55117   0.70883   0.44917   0.00000  Uiso   1.00
Zn591  Zn    0.50000   0.88437   0.25000   0.00000  Uiso   1.00
Zn592  Zn    0.50000   0.78229   0.25000   0.00000  Uiso   1.00
C593   C     0.75328   0.83333   0.24997   0.00000  Uiso   1.00
C594   C     0.70914   0.83332   0.24997   0.00000  Uiso   1.00
C595   C     0.85644   0.69058   0.28054   0.00000  Uiso   1.00
C596   C     0.81023   0.97608   0.21947   0.00000  Uiso   1.00
C597   C     0.81022   0.69075   0.21948   0.00000  Uiso   1.00
C598   C     0.85644   0.97592   0.28053   0.00000  Uiso   1.00
C599   C     0.83344   0.83343   0.16334   0.00000  Uiso   1.00
C600   C     0.83321   0.83324   0.33664   0.00000  Uiso   1.00
C601   C     0.85212   0.79787   0.40719   0.00000  Uiso   1.00
C602   C     0.81548   0.86945   0.09274   0.00000  Uiso   1.00
C603   C     0.83222   0.83272   0.38447   0.00000  Uiso   1.00
C604   C     0.91339   0.83334   0.25002   0.00000  Uiso   1.00
C605   C     0.83446   0.83397   0.11548   0.00000  Uiso   1.00
C606   C     0.81098   0.86657   0.40694   0.00000  Uiso   1.00
C607   C     0.85480   0.79949   0.09297   0.00000  Uiso   1.00
C608   C     0.80979   0.86675   0.45341   0.00000  Uiso   1.00
C609   C     0.85654   0.79972   0.04653   0.00000  Uiso   1.00
C610   C     0.83244   0.83273   0.47678   0.00000  Uiso   1.00
C611   C     0.83437   0.83407   0.02313   0.00000  Uiso   1.00
C612   C     0.85187   0.79647   0.45363   0.00000  Uiso   1.00
C613   C     0.81533   0.87057   0.04626   0.00000  Uiso   1.00
C614   C     0.78759   0.90078   0.47670   0.00000  Uiso   1.00
C615   C     0.79512   0.90616   0.02281   0.00000  Uiso   1.00
C616   C     0.87877   0.76571   0.02335   0.00000  Uiso   1.00
C617   C     0.87198   0.76078   0.47706   0.00000  Uiso   1.00
C618   C     0.68799   0.79319   0.26009   0.00000  Uiso   1.00
C619   C     0.97867   0.87347   0.23989   0.00000  Uiso   1.00
C620   C     0.97869   0.79320   0.26013   0.00000  Uiso   1.00
C621   C     0.68798   0.87346   0.23986   0.00000  Uiso   1.00
C622   C     0.95752   0.83334   0.25002   0.00000  Uiso   1.00
H623   H     0.86970   0.77352   0.38797   0.00000  Uiso   1.00
H624   H     0.79176   0.95793   0.19509   0.00000  Uiso   1.00
H625   H     0.79174   0.70903   0.19510   0.00000  Uiso   1.00
H626   H     0.87491   0.95764   0.30491   0.00000  Uiso   1.00
H627   H     0.79149   0.96873   0.41128   0.00000  Uiso   1.00
H628   H     0.95290   0.79371   0.07332   0.00000  Uiso   1.00
H629   H     0.80656   0.67582   0.00475   0.00000  Uiso   1.00
H630   H     0.93409   0.68678   0.40562   0.00000  Uiso   1.00
H631   H     0.79871   0.89443   0.11198   0.00000  Uiso   1.00
H632   H     0.79655   0.89324   0.38752   0.00000  Uiso   1.00
H633   H     0.86828   0.77204   0.11220   0.00000  Uiso   1.00
H634   H     0.70427   0.76205   0.26827   0.00000  Uiso   1.00
H635   H     0.96240   0.90461   0.23171   0.00000  Uiso   1.00
H636   H     0.96243   0.76207   0.26835   0.00000  Uiso   1.00
H637   H     0.70424   0.90460   0.23164   0.00000  Uiso   1.00
H638   H     0.87490   0.70873   0.30493   0.00000  Uiso   1.00
N639   N     0.83333   0.95240   0.25000   0.00000  Uiso   1.00
N640   N     0.83333   0.71427   0.25000   0.00000  Uiso   1.00
O641   O     0.77226   0.87154   0.24999   0.00000  Uiso   1.00
O642   O     0.71367   0.94478   0.48325   0.00000  Uiso   1.00
O643   O     0.76446   0.97780   0.42427   0.00000  Uiso   1.00
O644   O     0.90020   0.69391   0.07402   0.00000  Uiso   1.00
O645   O     0.95188   0.71884   0.01904   0.00000  Uiso   1.00
O646   O     0.94242   0.76699   0.09001   0.00000  Uiso   1.00
O647   O     0.74299   0.95271   0.07579   0.00000  Uiso   1.00
O648   O     0.81699   0.97023   0.08306   0.00000  Uiso   1.00
O649   O     0.77788   0.66867   0.01452   0.00000  Uiso   1.00
O650   O     0.88721   0.66972   0.48139   0.00000  Uiso   1.00
O651   O     0.85149   0.69795   0.41515   0.00000  Uiso   1.00
O652   O     0.89441   0.79513   0.25000   0.00000  Uiso   1.00
O653   O     0.93040   0.71509   0.42294   0.00000  Uiso   1.00
O654   O     0.89441   0.87154   0.25000   0.00000  Uiso   1.00
O655   O     0.77226   0.79513   0.24999   0.00000  Uiso   1.00
O656   O     0.83333   0.87156   0.18392   0.00000  Uiso   1.00
O657   O     0.83334   0.79511   0.31607   0.00000  Uiso   1.00
O658   O     0.83334   0.87156   0.31607   0.00000  Uiso   1.00
O659   O     0.83333   0.79511   0.18392   0.00000  Uiso   1.00
O660   O     0.72522   0.90141   0.41551   0.00000  Uiso   1.00
S661   S     0.74607   0.93099   0.44977   0.00000  Uiso   1.00
S662   S     0.91903   0.73448   0.05121   0.00000  Uiso   1.00
S663   S     0.78302   0.95837   0.05045   0.00000  Uiso   1.00
S664   S     0.88450   0.70883   0.44917   0.00000  Uiso   1.00
Zn665  Zn    0.83333   0.88437   0.25000   0.00000  Uiso   1.00
Zn666  Zn    0.83333   0.78229   0.25000   0.00000  Uiso   1.00
C667   C     0.08661   0.16666   0.74997   0.00000  Uiso   1.00
C668   C     0.04248   0.16666   0.74997   0.00000  Uiso   1.00
C669   C     0.18977   0.02392   0.78054   0.00000  Uiso   1.00
C670   C     0.14356   0.30942   0.71947   0.00000  Uiso   1.00
C671   C     0.14356   0.02408   0.71948   0.00000  Uiso   1.00
C672   C     0.18977   0.30925   0.78053   0.00000  Uiso   1.00
C673   C     0.16678   0.16677   0.66334   0.00000  Uiso   1.00
C674   C     0.16655   0.16657   0.83664   0.00000  Uiso   1.00
C675   C     0.18545   0.13120   0.90719   0.00000  Uiso   1.00
C676   C     0.14881   0.20278   0.59274   0.00000  Uiso   1.00
C677   C     0.16555   0.16605   0.88447   0.00000  Uiso   1.00
C678   C     0.24672   0.16667   0.75002   0.00000  Uiso   1.00
C679   C     0.16779   0.16730   0.61548   0.00000  Uiso   1.00
C680   C     0.14432   0.19991   0.90694   0.00000  Uiso   1.00
C681   C     0.18814   0.13282   0.59297   0.00000  Uiso   1.00
C682   C     0.14312   0.20009   0.95341   0.00000  Uiso   1.00
C683   C     0.18987   0.13305   0.54653   0.00000  Uiso   1.00
C684   C     0.16577   0.16606   0.97678   0.00000  Uiso   1.00
C685   C     0.16771   0.16740   0.52313   0.00000  Uiso   1.00
C686   C     0.18520   0.12980   0.95363   0.00000  Uiso   1.00
C687   C     0.14866   0.20390   0.54626   0.00000  Uiso   1.00
C688   C     0.12092   0.23412   0.97670   0.00000  Uiso   1.00
C689   C     0.12845   0.23949   0.52281   0.00000  Uiso   1.00
C690   C     0.21211   0.09904   0.52335   0.00000  Uiso   1.00
C691   C     0.20531   0.09412   0.97706   0.00000  Uiso   1.00
C692   C     0.02133   0.12653   0.76009   0.00000  Uiso   1.00
C693   C     0.31201   0.20680   0.73989   0.00000  Uiso   1.00
C694   C     0.31202   0.12654   0.76013   0.00000  Uiso   1.00
C695   C     0.02131   0.20679   0.73986   0.00000  Uiso   1.00
C696   C     0.29085   0.16667   0.75002   0.00000  Uiso   1.00
H697   H     0.20303   0.10686   0.88797   0.00000  Uiso   1.00
H698   H     0.12509   0.29126   0.69509   0.00000  Uiso   1.00
H699   H     0.12508   0.04236   0.69510   0.00000  Uiso   1.00
H700   H     0.20824   0.29097   0.80491   0.00000  Uiso   1.00
H701   H     0.12482   0.30206   0.91128   0.00000  Uiso   1.00
H702   H     0.28623   0.12705   0.57332   0.00000  Uiso   1.00
H703   H     0.13989   0.00915   0.50475   0.00000  Uiso   1.00
H704   H     0.26742   0.02012   0.90562   0.00000  Uiso   1.00
H705   H     0.13205   0.22776   0.61198   0.00000  Uiso   1.00
H706   H     0.12988   0.22657   0.88752   0.00000  Uiso   1.00
H707   H     0.20161   0.10538   0.61220   0.00000  Uiso   1.00
H708   H     0.03760   0.09538   0.76827   0.00000  Uiso   1.00
H709   H     0.29573   0.23795   0.73171   0.00000  Uiso   1.00
H710   H     0.29576   0.09540   0.76835   0.00000  Uiso   1.00
H711   H     0.03757   0.23793   0.73164   0.00000  Uiso   1.00
H712   H     0.20823   0.04207   0.80493   0.00000  Uiso   1.00
N713   N     0.16667   0.28573   0.75000   0.00000  Uiso   1.00
N714   N     0.16667   0.04760   0.75000   0.00000  Uiso   1.00
O715   O     0.10559   0.20487   0.74999   0.00000  Uiso   1.00
O716   O     0.04700   0.27811   0.98325   0.00000  Uiso   1.00
O717   O     0.09779   0.31113   0.92427   0.00000  Uiso   1.00
O718   O     0.23354   0.02724   0.57402   0.00000  Uiso   1.00
O719   O     0.28521   0.05218   0.51904   0.00000  Uiso   1.00
O720   O     0.27575   0.10032   0.59001   0.00000  Uiso   1.00
O721   O     0.07633   0.28605   0.57579   0.00000  Uiso   1.00
O722   O     0.15032   0.30356   0.58306   0.00000  Uiso   1.00
O723   O     0.11121   0.00200   0.51452   0.00000  Uiso   1.00
O724   O     0.22054   0.00305   0.98139   0.00000  Uiso   1.00
O725   O     0.18482   0.03128   0.91515   0.00000  Uiso   1.00
O726   O     0.22774   0.12846   0.75000   0.00000  Uiso   1.00
O727   O     0.26374   0.04842   0.92294   0.00000  Uiso   1.00
O728   O     0.22774   0.20487   0.75000   0.00000  Uiso   1.00
O729   O     0.10559   0.12846   0.74999   0.00000  Uiso   1.00
O730   O     0.16666   0.20489   0.68392   0.00000  Uiso   1.00
O731   O     0.16667   0.12844   0.81607   0.00000  Uiso   1.00
O732   O     0.16667   0.20489   0.81607   0.00000  Uiso   1.00
O733   O     0.16666   0.12844   0.68392   0.00000  Uiso   1.00
O734   O     0.05855   0.23475   0.91551   0.00000  Uiso   1.00
S735   S     0.07940   0.26432   0.94977   0.00000  Uiso   1.00
S736   S     0.25236   0.06782   0.55121   0.00000  Uiso   1.00
S737   S     0.11635   0.29170   0.55045   0.00000  Uiso   1.00
S738   S     0.21784   0.04216   0.94917   0.00000  Uiso   1.00
Zn739  Zn    0.16667   0.21771   0.75000   0.00000  Uiso   1.00
Zn740  Zn    0.16667   0.11563   0.75000   0.00000  Uiso   1.00
C741   C     0.41995   0.16666   0.74997   0.00000  Uiso   1.00
C742   C     0.37581   0.16666   0.74997   0.00000  Uiso   1.00
C743   C     0.52310   0.02392   0.78054   0.00000  Uiso   1.00
C744   C     0.47689   0.30942   0.71947   0.00000  Uiso   1.00
C745   C     0.47689   0.02408   0.71948   0.00000  Uiso   1.00
C746   C     0.52310   0.30925   0.78053   0.00000  Uiso   1.00
C747   C     0.50011   0.16677   0.66334   0.00000  Uiso   1.00
C748   C     0.49988   0.16657   0.83664   0.00000  Uiso   1.00
C749   C     0.51878   0.13120   0.90719   0.00000  Uiso   1.00
C750   C     0.48215   0.20278   0.59274   0.00000  Uiso   1.00
C751   C     0.49889   0.16605   0.88447   0.00000  Uiso   1.00
C752   C     0.58005   0.16667   0.75002   0.00000  Uiso   1.00
C753   C     0.50113   0.16730   0.61548   0.00000  Uiso   1.00
C754   C     0.47765   0.19991   0.90694   0.00000  Uiso   1.00
C755   C     0.52147   0.13282   0.59297   0.00000  Uiso   1.00
C756   C     0.47646   0.20009   0.95341   0.00000  Uiso   1.00
C757   C     0.52320   0.13305   0.54653   0.00000  Uiso   1.00
C758   C     0.49910   0.16606   0.97678   0.00000  Uiso   1.00
C759   C     0.50104   0.16740   0.52313   0.00000  Uiso   1.00
C760   C     0.51854   0.12980   0.95363   0.00000  Uiso   1.00
C761   C     0.48200   0.20390   0.54626   0.00000  Uiso   1.00
C762   C     0.45425   0.23412   0.97670   0.00000  Uiso   1.00
C763   C     0.46178   0.23949   0.52281   0.00000  Uiso   1.00
C764   C     0.54544   0.09904   0.52335   0.00000  Uiso   1.00
C765   C     0.53864   0.09412   0.97706   0.00000  Uiso   1.00
C766   C     0.35466   0.12653   0.76009   0.00000  Uiso   1.00
C767   C     0.64534   0.20680   0.73989   0.00000  Uiso   1.00
C768   C     0.64536   0.12654   0.76013   0.00000  Uiso   1.00
C769   C     0.35464   0.20679   0.73986   0.00000  Uiso   1.00
C770   C     0.62419   0.16667   0.75002   0.00000  Uiso   1.00
H771   H     0.53637   0.10686   0.88797   0.00000  Uiso   1.00
H772   H     0.45842   0.29126   0.69509   0.00000  Uiso   1.00
H773   H     0.45841   0.04236   0.69510   0.00000  Uiso   1.00
H774   H     0.54158   0.29097   0.80491   0.00000  Uiso   1.00
H775   H     0.45816   0.30206   0.91128   0.00000  Uiso   1.00
H776   H     0.61956   0.12705   0.57332   0.00000  Uiso   1.00
H777   H     0.47322   0.00915   0.50475   0.00000  Uiso   1.00
H778   H     0.60076   0.02012   0.90562   0.00000  Uiso   1.00
H779   H     0.46538   0.22776   0.61198   0.00000  Uiso   1.00
H780   H     0.46322   0.22657   0.88752   0.00000  Uiso   1.00
H781   H     0.53494   0.10538   0.61220   0.00000  Uiso   1.00
H782   H     0.37093   0.09538   0.76827   0.00000  Uiso   1.00
H783   H     0.62907   0.23795   0.73171   0.00000  Uiso   1.00
H784   H     0.62910   0.09540   0.76835   0.00000  Uiso   1.00
H785   H     0.37090   0.23793   0.73164   0.00000  Uiso   1.00
H786   H     0.54157   0.04207   0.80493   0.00000  Uiso   1.00
N787   N     0.50000   0.28573   0.75000   0.00000  Uiso   1.00
N788   N     0.50000   0.04760   0.75000   0.00000  Uiso   1.00
O789   O     0.43892   0.20487   0.74999   0.00000  Uiso   1.00
O790   O     0.38033   0.27811   0.98325   0.00000  Uiso   1.00
O791   O     0.43112   0.31113   0.92427   0.00000  Uiso   1.00
O792   O     0.56687   0.02724   0.57402   0.00000  Uiso   1.00
O793   O     0.61855   0.05218   0.51904   0.00000  Uiso   1.00
O794   O     0.60908   0.10032   0.59001   0.00000  Uiso   1.00
O795   O     0.40966   0.28605   0.57579   0.00000  Uiso   1.00
O796   O     0.48366   0.30356   0.58306   0.00000  Uiso   1.00
O797   O     0.44454   0.00200   0.51452   0.00000  Uiso   1.00
O798   O     0.55388   0.00305   0.98139   0.00000  Uiso   1.00
O799   O     0.51815   0.03128   0.91515   0.00000  Uiso   1.00
O800   O     0.56108   0.12846   0.75000   0.00000  Uiso   1.00
O801   O     0.59707   0.04842   0.92294   0.00000  Uiso   1.00
O802   O     0.56108   0.20487   0.75000   0.00000  Uiso   1.00
O803   O     0.43892   0.12846   0.74999   0.00000  Uiso   1.00
O804   O     0.49999   0.20489   0.68392   0.00000  Uiso   1.00
O805   O     0.50001   0.12844   0.81607   0.00000  Uiso   1.00
O806   O     0.50001   0.20489   0.81607   0.00000  Uiso   1.00
O807   O     0.49999   0.12844   0.68392   0.00000  Uiso   1.00
O808   O     0.39189   0.23475   0.91551   0.00000  Uiso   1.00
S809   S     0.41273   0.26432   0.94977   0.00000  Uiso   1.00
S810   S     0.58569   0.06782   0.55121   0.00000  Uiso   1.00
S811   S     0.44968   0.29170   0.55045   0.00000  Uiso   1.00
S812   S     0.55117   0.04216   0.94917   0.00000  Uiso   1.00
Zn813  Zn    0.50000   0.21771   0.75000   0.00000  Uiso   1.00
Zn814  Zn    0.50000   0.11563   0.75000   0.00000  Uiso   1.00
C815   C     0.75328   0.16666   0.74997   0.00000  Uiso   1.00
C816   C     0.70914   0.16666   0.74997   0.00000  Uiso   1.00
C817   C     0.85644   0.02392   0.78054   0.00000  Uiso   1.00
C818   C     0.81023   0.30942   0.71947   0.00000  Uiso   1.00
C819   C     0.81022   0.02408   0.71948   0.00000  Uiso   1.00
C820   C     0.85644   0.30925   0.78053   0.00000  Uiso   1.00
C821   C     0.83344   0.16677   0.66334   0.00000  Uiso   1.00
C822   C     0.83321   0.16657   0.83664   0.00000  Uiso   1.00
C823   C     0.85212   0.13120   0.90719   0.00000  Uiso   1.00
C824   C     0.81548   0.20278   0.59274   0.00000  Uiso   1.00
C825   C     0.83222   0.16605   0.88447   0.00000  Uiso   1.00
C826   C     0.91339   0.16667   0.75002   0.00000  Uiso   1.00
C827   C     0.83446   0.16730   0.61548   0.00000  Uiso   1.00
C828   C     0.81098   0.19991   0.90694   0.00000  Uiso   1.00
C829   C     0.85480   0.13282   0.59297   0.00000  Uiso   1.00
C830   C     0.80979   0.20009   0.95341   0.00000  Uiso   1.00
C831   C     0.85654   0.13305   0.54653   0.00000  Uiso   1.00
C832   C     0.83244   0.16606   0.97678   0.00000  Uiso   1.00
C833   C     0.83437   0.16740   0.52313   0.00000  Uiso   1.00
C834   C     0.85187   0.12980   0.95363   0.00000  Uiso   1.00
C835   C     0.81533   0.20390   0.54626   0.00000  Uiso   1.00
C836   C     0.78759   0.23412   0.97670   0.00000  Uiso   1.00
C837   C     0.79512   0.23949   0.52281   0.00000  Uiso   1.00
C838   C     0.87877   0.09904   0.52335   0.00000  Uiso   1.00
C839   C     0.87198   0.09412   0.97706   0.00000  Uiso   1.00
C840   C     0.68799   0.12653   0.76009   0.00000  Uiso   1.00
C841   C     0.97867   0.20680   0.73989   0.00000  Uiso   1.00
C842   C     0.97869   0.12654   0.76013   0.00000  Uiso   1.00
C843   C     0.68798   0.20679   0.73986   0.00000  Uiso   1.00
C844   C     0.95752   0.16667   0.75002   0.00000  Uiso   1.00
H845   H     0.86970   0.10686   0.88797   0.00000  Uiso   1.00
H846   H     0.79176   0.29126   0.69509   0.00000  Uiso   1.00
H847   H     0.79174   0.04236   0.69510   0.00000  Uiso   1.00
H848   H     0.87491   0.29097   0.80491   0.00000  Uiso   1.00
H849   H     0.79149   0.30206   0.91128   0.00000  Uiso   1.00
H850   H     0.95290   0.12705   0.57332   0.00000  Uiso   1.00
H851   H     0.80656   0.00915   0.50475   0.00000  Uiso   1.00
H852   H     0.93409   0.02012   0.90562   0.00000  Uiso   1.00
H853   H     0.79871   0.22776   0.61198   0.00000  Uiso   1.00
H854   H     0.79655   0.22657   0.88752   0.00000  Uiso   1.00
H855   H     0.86828   0.10538   0.61220   0.00000  Uiso   1.00
H856   H     0.70427   0.09538   0.76827   0.00000  Uiso   1.00
H857   H     0.96240   0.23795   0.73171   0.00000  Uiso   1.00
H858   H     0.96243   0.09540   0.76835   0.00000  Uiso   1.00
H859   H     0.70424   0.23793   0.73164   0.00000  Uiso   1.00
H860   H     0.87490   0.04207   0.80493   0.00000  Uiso   1.00
N861   N     0.83333   0.28573   0.75000   0.00000  Uiso   1.00
N862   N     0.83333   0.04760   0.75000   0.00000  Uiso   1.00
O863   O     0.77226   0.20487   0.74999   0.00000  Uiso   1.00
O864   O     0.71367   0.27811   0.98325   0.00000  Uiso   1.00
O865   O     0.76446   0.31113   0.92427   0.00000  Uiso   1.00
O866   O     0.90020   0.02724   0.57402   0.00000  Uiso   1.00
O867   O     0.95188   0.05218   0.51904   0.00000  Uiso   1.00
O868   O     0.94242   0.10032   0.59001   0.00000  Uiso   1.00
O869   O     0.74299   0.28605   0.57579   0.00000  Uiso   1.00
O870   O     0.81699   0.30356   0.58306   0.00000  Uiso   1.00
O871   O     0.77788   0.00200   0.51452   0.00000  Uiso   1.00
O872   O     0.88721   0.00305   0.98139   0.00000  Uiso   1.00
O873   O     0.85149   0.03128   0.91515   0.00000  Uiso   1.00
O874   O     0.89441   0.12846   0.75000   0.00000  Uiso   1.00
O875   O     0.93040   0.04842   0.92294   0.00000  Uiso   1.00
O876   O     0.89441   0.20487   0.75000   0.00000  Uiso   1.00
O877   O     0.77226   0.12846   0.74999   0.00000  Uiso   1.00
O878   O     0.83333   0.20489   0.68392   0.00000  Uiso   1.00
O879   O     0.83334   0.12844   0.81607   0.00000  Uiso   1.00
O880   O     0.83334   0.20489   0.81607   0.00000  Uiso   1.00
O881   O     0.83333   0.12844   0.68392   0.00000  Uiso   1.00
O882   O     0.72522   0.23475   0.91551   0.00000  Uiso   1.00
S883   S     0.74607   0.26432   0.94977   0.00000  Uiso   1.00
S884   S     0.91903   0.06782   0.55121   0.00000  Uiso   1.00
S885   S     0.78302   0.29170   0.55045   0.00000  Uiso   1.00
S886   S     0.88450   0.04216   0.94917   0.00000  Uiso   1.00
Zn887  Zn    0.83333   0.21771   0.75000   0.00000  Uiso   1.00
Zn888  Zn    0.83333   0.11563   0.75000   0.00000  Uiso   1.00
C889   C     0.08661   0.50000   0.74997   0.00000  Uiso   1.00
C890   C     0.04248   0.49999   0.74997   0.00000  Uiso   1.00
C891   C     0.18977   0.35725   0.78054   0.00000  Uiso   1.00
C892   C     0.14356   0.64275   0.71947   0.00000  Uiso   1.00
C893   C     0.14356   0.35741   0.71948   0.00000  Uiso   1.00
C894   C     0.18977   0.64259   0.78053   0.00000  Uiso   1.00
C895   C     0.16678   0.50010   0.66334   0.00000  Uiso   1.00
C896   C     0.16655   0.49990   0.83664   0.00000  Uiso   1.00
C897   C     0.18545   0.46453   0.90719   0.00000  Uiso   1.00
C898   C     0.14881   0.53612   0.59274   0.00000  Uiso   1.00
C899   C     0.16555   0.49938   0.88447   0.00000  Uiso   1.00
C900   C     0.24672   0.50000   0.75002   0.00000  Uiso   1.00
C901   C     0.16779   0.50064   0.61548   0.00000  Uiso   1.00
C902   C     0.14432   0.53324   0.90694   0.00000  Uiso   1.00
C903   C     0.18814   0.46615   0.59297   0.00000  Uiso   1.00
C904   C     0.14312   0.53342   0.95341   0.00000  Uiso   1.00
C905   C     0.18987   0.46639   0.54653   0.00000  Uiso   1.00
C906   C     0.16577   0.49940   0.97678   0.00000  Uiso   1.00
C907   C     0.16771   0.50074   0.52313   0.00000  Uiso   1.00
C908   C     0.18520   0.46314   0.95363   0.00000  Uiso   1.00
C909   C     0.14866   0.53723   0.54626   0.00000  Uiso   1.00
C910   C     0.12092   0.56745   0.97670   0.00000  Uiso   1.00
C911   C     0.12845   0.57282   0.52281   0.00000  Uiso   1.00
C912   C     0.21211   0.43238   0.52335   0.00000  Uiso   1.00
C913   C     0.20531   0.42745   0.97706   0.00000  Uiso   1.00
C914   C     0.02133   0.45986   0.76009   0.00000  Uiso   1.00
C915   C     0.31201   0.54014   0.73989   0.00000  Uiso   1.00
C916   C     0.31202   0.45987   0.76013   0.00000  Uiso   1.00
C917   C     0.02131   0.54013   0.73986   0.00000  Uiso   1.00
C918   C     0.29085   0.50001   0.75002   0.00000  Uiso   1.00
H919   H     0.20303   0.44019   0.88797   0.00000  Uiso   1.00
H920   H     0.12509   0.62460   0.69509   0.00000  Uiso   1.00
H921   H     0.12508   0.37570   0.69510   0.00000  Uiso   1.00
H922   H     0.20824   0.62430   0.80491   0.00000  Uiso   1.00
H923   H     0.12482   0.63540   0.91128   0.00000  Uiso   1.00
H924   H     0.28623   0.46038   0.57332   0.00000  Uiso   1.00
H925   H     0.13989   0.34249   0.50475   0.00000  Uiso   1.00
H926   H     0.26742   0.35345   0.90562   0.00000  Uiso   1.00
H927   H     0.13205   0.56110   0.61198   0.00000  Uiso   1.00
H928   H     0.12988   0.55990   0.88752   0.00000  Uiso   1.00
H929   H     0.20161   0.43871   0.61220   0.00000  Uiso   1.00
H930   H     0.03760   0.42872   0.76827   0.00000  Uiso   1.00
H931   H     0.29573   0.57128   0.73171   0.00000  Uiso   1.00
H932   H     0.29576   0.42873   0.76835   0.00000  Uiso   1.00
H933   H     0.03757   0.57126   0.73164   0.00000  Uiso   1.00
H934   H     0.20823   0.37540   0.80493   0.00000  Uiso   1.00
N935   N     0.16667   0.61907   0.75000   0.00000  Uiso   1.00
N936   N     0.16667   0.38093   0.75000   0.00000  Uiso   1.00
O937   O     0.10559   0.53821   0.74999   0.00000  Uiso   1.00
O938   O     0.04700   0.61145   0.98325   0.00000  Uiso   1.00
O939   O     0.09779   0.64447   0.92427   0.00000  Uiso   1.00
O940   O     0.23354   0.36058   0.57402   0.00000  Uiso   1.00
O941   O     0.28521   0.38551   0.51904   0.00000  Uiso   1.00
O942   O     0.27575   0.43365   0.59001   0.00000  Uiso   1.00
O943   O     0.07633   0.61938   0.57579   0.00000  Uiso   1.00
O944   O     0.15032   0.63690   0.58306   0.00000  Uiso   1.00
O945   O     0.11121   0.33533   0.51452   0.00000  Uiso   1.00
O946   O     0.22054   0.33638   0.98139   0.00000  Uiso   1.00
O947   O     0.18482   0.36461   0.91515   0.00000  Uiso   1.00
O948   O     0.22774   0.46179   0.75000   0.00000  Uiso   1.00
O949   O     0.26374   0.38176   0.92294   0.00000  Uiso   1.00
O950   O     0.22774   0.53821   0.75000   0.00000  Uiso   1.00
O951   O     0.10559   0.46179   0.74999   0.00000  Uiso   1.00
O952   O     0.16666   0.53823   0.68392   0.00000  Uiso   1.00
O953   O     0.16667   0.46177   0.81607   0.00000  Uiso   1.00
O954   O     0.16667   0.53823   0.81607   0.00000  Uiso   1.00
O955   O     0.16666   0.46177   0.68392   0.00000  Uiso   1.00
O956   O     0.05855   0.56808   0.91551   0.00000  Uiso   1.00
S957   S     0.07940   0.59766   0.94977   0.00000  Uiso   1.00
S958   S     0.25236   0.40115   0.55121   0.00000  Uiso   1.00
S959   S     0.11635   0.62504   0.55045   0.00000  Uiso   1.00
S960   S     0.21784   0.37549   0.94917   0.00000  Uiso   1.00
Zn961  Zn    0.16667   0.55104   0.75000   0.00000  Uiso   1.00
Zn962  Zn    0.16667   0.44896   0.75000   0.00000  Uiso   1.00
C963   C     0.41995   0.50000   0.74997   0.00000  Uiso   1.00
C964   C     0.37581   0.49999   0.74997   0.00000  Uiso   1.00
C965   C     0.52310   0.35725   0.78054   0.00000  Uiso   1.00
C966   C     0.47689   0.64275   0.71947   0.00000  Uiso   1.00
C967   C     0.47689   0.35741   0.71948   0.00000  Uiso   1.00
C968   C     0.52310   0.64259   0.78053   0.00000  Uiso   1.00
C969   C     0.50011   0.50010   0.66334   0.00000  Uiso   1.00
C970   C     0.49988   0.49990   0.83664   0.00000  Uiso   1.00
C971   C     0.51878   0.46453   0.90719   0.00000  Uiso   1.00
C972   C     0.48215   0.53612   0.59274   0.00000  Uiso   1.00
C973   C     0.49889   0.49938   0.88447   0.00000  Uiso   1.00
C974   C     0.58005   0.50000   0.75002   0.00000  Uiso   1.00
C975   C     0.50113   0.50064   0.61548   0.00000  Uiso   1.00
C976   C     0.47765   0.53324   0.90694   0.00000  Uiso   1.00
C977   C     0.52147   0.46615   0.59297   0.00000  Uiso   1.00
C978   C     0.47646   0.53342   0.95341   0.00000  Uiso   1.00
C979   C     0.52320   0.46639   0.54653   0.00000  Uiso   1.00
C980   C     0.49910   0.49940   0.97678   0.00000  Uiso   1.00
C981   C     0.50104   0.50074   0.52313   0.00000  Uiso   1.00
C982   C     0.51854   0.46314   0.95363   0.00000  Uiso   1.00
C983   C     0.48200   0.53723   0.54626   0.00000  Uiso   1.00
C984   C     0.45425   0.56745   0.97670   0.00000  Uiso   1.00
C985   C     0.46178   0.57282   0.52281   0.00000  Uiso   1.00
C986   C     0.54544   0.43238   0.52335   0.00000  Uiso   1.00
C987   C     0.53864   0.42745   0.97706   0.00000  Uiso   1.00
C988   C     0.35466   0.45986   0.76009   0.00000  Uiso   1.00
C989   C     0.64534   0.54014   0.73989   0.00000  Uiso   1.00
C990   C     0.64536   0.45987   0.76013   0.00000  Uiso   1.00
C991   C     0.35464   0.54013   0.73986   0.00000  Uiso   1.00
C992   C     0.62419   0.50001   0.75002   0.00000  Uiso   1.00
H993   H     0.53637   0.44019   0.88797   0.00000  Uiso   1.00
H994   H     0.45842   0.62460   0.69509   0.00000  Uiso   1.00
H995   H     0.45841   0.37570   0.69510   0.00000  Uiso   1.00
H996   H     0.54158   0.62430   0.80491   0.00000  Uiso   1.00
H997   H     0.45816   0.63540   0.91128   0.00000  Uiso   1.00
H998   H     0.61956   0.46038   0.57332   0.00000  Uiso   1.00
H999   H     0.47322   0.34249   0.50475   0.00000  Uiso   1.00
H1000  H     0.60076   0.35345   0.90562   0.00000  Uiso   1.00
H1001  H     0.46538   0.56110   0.61198   0.00000  Uiso   1.00
H1002  H     0.46322   0.55990   0.88752   0.00000  Uiso   1.00
H1003  H     0.53494   0.43871   0.61220   0.00000  Uiso   1.00
H1004  H     0.37093   0.42872   0.76827   0.00000  Uiso   1.00
H1005  H     0.62907   0.57128   0.73171   0.00000  Uiso   1.00
H1006  H     0.62910   0.42873   0.76835   0.00000  Uiso   1.00
H1007  H     0.37090   0.57126   0.73164   0.00000  Uiso   1.00
H1008  H     0.54157   0.37540   0.80493   0.00000  Uiso   1.00
N1009  N     0.50000   0.61907   0.75000   0.00000  Uiso   1.00
N1010  N     0.50000   0.38093   0.75000   0.00000  Uiso   1.00
O1011  O     0.43892   0.53821   0.74999   0.00000  Uiso   1.00
O1012  O     0.38033   0.61145   0.98325   0.00000  Uiso   1.00
O1013  O     0.43112   0.64447   0.92427   0.00000  Uiso   1.00
O1014  O     0.56687   0.36058   0.57402   0.00000  Uiso   1.00
O1015  O     0.61855   0.38551   0.51904   0.00000  Uiso   1.00
O1016  O     0.60908   0.43365   0.59001   0.00000  Uiso   1.00
O1017  O     0.40966   0.61938   0.57579   0.00000  Uiso   1.00
O1018  O     0.48366   0.63690   0.58306   0.00000  Uiso   1.00
O1019  O     0.44454   0.33533   0.51452   0.00000  Uiso   1.00
O1020  O     0.55388   0.33638   0.98139   0.00000  Uiso   1.00
O1021  O     0.51815   0.36461   0.91515   0.00000  Uiso   1.00
O1022  O     0.56108   0.46179   0.75000   0.00000  Uiso   1.00
O1023  O     0.59707   0.38176   0.92294   0.00000  Uiso   1.00
O1024  O     0.56108   0.53821   0.75000   0.00000  Uiso   1.00
O1025  O     0.43892   0.46179   0.74999   0.00000  Uiso   1.00
O1026  O     0.49999   0.53823   0.68392   0.00000  Uiso   1.00
O1027  O     0.50001   0.46177   0.81607   0.00000  Uiso   1.00
O1028  O     0.50001   0.53823   0.81607   0.00000  Uiso   1.00
O1029  O     0.49999   0.46177   0.68392   0.00000  Uiso   1.00
O1030  O     0.39189   0.56808   0.91551   0.00000  Uiso   1.00
S1031  S     0.41273   0.59766   0.94977   0.00000  Uiso   1.00
S1032  S     0.58569   0.40115   0.55121   0.00000  Uiso   1.00
S1033  S     0.44968   0.62504   0.55045   0.00000  Uiso   1.00
S1034  S     0.55117   0.37549   0.94917   0.00000  Uiso   1.00
Zn1035 Zn    0.50000   0.55104   0.75000   0.00000  Uiso   1.00
Zn1036 Zn    0.50000   0.44896   0.75000   0.00000  Uiso   1.00
C1037  C     0.75328   0.50000   0.74997   0.00000  Uiso   1.00
C1038  C     0.70914   0.49999   0.74997   0.00000  Uiso   1.00
C1039  C     0.85644   0.35725   0.78054   0.00000  Uiso   1.00
C1040  C     0.81023   0.64275   0.71947   0.00000  Uiso   1.00
C1041  C     0.81022   0.35741   0.71948   0.00000  Uiso   1.00
C1042  C     0.85644   0.64259   0.78053   0.00000  Uiso   1.00
C1043  C     0.83344   0.50010   0.66334   0.00000  Uiso   1.00
C1044  C     0.83321   0.49990   0.83664   0.00000  Uiso   1.00
C1045  C     0.85212   0.46453   0.90719   0.00000  Uiso   1.00
C1046  C     0.81548   0.53612   0.59274   0.00000  Uiso   1.00
C1047  C     0.83222   0.49938   0.88447   0.00000  Uiso   1.00
C1048  C     0.91339   0.50000   0.75002   0.00000  Uiso   1.00
C1049  C     0.83446   0.50064   0.61548   0.00000  Uiso   1.00
C1050  C     0.81098   0.53324   0.90694   0.00000  Uiso   1.00
C1051  C     0.85480   0.46615   0.59297   0.00000  Uiso   1.00
C1052  C     0.80979   0.53342   0.95341   0.00000  Uiso   1.00
C1053  C     0.85654   0.46639   0.54653   0.00000  Uiso   1.00
C1054  C     0.83244   0.49940   0.97678   0.00000  Uiso   1.00
C1055  C     0.83437   0.50074   0.52313   0.00000  Uiso   1.00
C1056  C     0.85187   0.46314   0.95363   0.00000  Uiso   1.00
C1057  C     0.81533   0.53723   0.54626   0.00000  Uiso   1.00
C1058  C     0.78759   0.56745   0.97670   0.00000  Uiso   1.00
C1059  C     0.79512   0.57282   0.52281   0.00000  Uiso   1.00
C1060  C     0.87877   0.43238   0.52335   0.00000  Uiso   1.00
C1061  C     0.87198   0.42745   0.97706   0.00000  Uiso   1.00
C1062  C     0.68799   0.45986   0.76009   0.00000  Uiso   1.00
C1063  C     0.97867   0.54014   0.73989   0.00000  Uiso   1.00
C1064  C     0.97869   0.45987   0.76013   0.00000  Uiso   1.00
C1065  C     0.68798   0.54013   0.73986   0.00000  Uiso   1.00
C1066  C     0.95752   0.50001   0.75002   0.00000  Uiso   1.00
H1067  H     0.86970   0.44019   0.88797   0.00000  Uiso   1.00
H1068  H     0.79176   0.62460   0.69509   0.00000  Uiso   1.00
H1069  H     0.79174   0.37570   0.69510   0.00000  Uiso   1.00
H1070  H     0.87491   0.62430   0.80491   0.00000  Uiso   1.00
H1071  H     0.79149   0.63540   0.91128   0.00000  Uiso   1.00
H1072  H     0.95290   0.46038   0.57332   0.00000  Uiso   1.00
H1073  H     0.80656   0.34249   0.50475   0.00000  Uiso   1.00
H1074  H     0.93409   0.35345   0.90562   0.00000  Uiso   1.00
H1075  H     0.79871   0.56110   0.61198   0.00000  Uiso   1.00
H1076  H     0.79655   0.55990   0.88752   0.00000  Uiso   1.00
H1077  H     0.86828   0.43871   0.61220   0.00000  Uiso   1.00
H1078  H     0.70427   0.42872   0.76827   0.00000  Uiso   1.00
H1079  H     0.96240   0.57128   0.73171   0.00000  Uiso   1.00
H1080  H     0.96243   0.42873   0.76835   0.00000  Uiso   1.00
H1081  H     0.70424   0.57126   0.73164   0.00000  Uiso   1.00
H1082  H     0.87490   0.37540   0.80493   0.00000  Uiso   1.00
N1083  N     0.83333   0.61907   0.75000   0.00000  Uiso   1.00
N1084  N     0.83333   0.38093   0.75000   0.00000  Uiso   1.00
O1085  O     0.77226   0.53821   0.74999   0.00000  Uiso   1.00
O1086  O     0.71367   0.61145   0.98325   0.00000  Uiso   1.00
O1087  O     0.76446   0.64447   0.92427   0.00000  Uiso   1.00
O1088  O     0.90020   0.36058   0.57402   0.00000  Uiso   1.00
O1089  O     0.95188   0.38551   0.51904   0.00000  Uiso   1.00
O1090  O     0.94242   0.43365   0.59001   0.00000  Uiso   1.00
O1091  O     0.74299   0.61938   0.57579   0.00000  Uiso   1.00
O1092  O     0.81699   0.63690   0.58306   0.00000  Uiso   1.00
O1093  O     0.77788   0.33533   0.51452   0.00000  Uiso   1.00
O1094  O     0.88721   0.33638   0.98139   0.00000  Uiso   1.00
O1095  O     0.85149   0.36461   0.91515   0.00000  Uiso   1.00
O1096  O     0.89441   0.46179   0.75000   0.00000  Uiso   1.00
O1097  O     0.93040   0.38176   0.92294   0.00000  Uiso   1.00
O1098  O     0.89441   0.53821   0.75000   0.00000  Uiso   1.00
O1099  O     0.77226   0.46179   0.74999   0.00000  Uiso   1.00
O1100  O     0.83333   0.53823   0.68392   0.00000  Uiso   1.00
O1101  O     0.83334   0.46177   0.81607   0.00000  Uiso   1.00
O1102  O     0.83334   0.53823   0.81607   0.00000  Uiso   1.00
O1103  O     0.83333   0.46177   0.68392   0.00000  Uiso   1.00
O1104  O     0.72522   0.56808   0.91551   0.00000  Uiso   1.00
S1105  S     0.74607   0.59766   0.94977   0.00000  Uiso   1.00
S1106  S     0.91903   0.40115   0.55121   0.00000  Uiso   1.00
S1107  S     0.78302   0.62504   0.55045   0.00000  Uiso   1.00
S1108  S     0.88450   0.37549   0.94917   0.00000  Uiso   1.00
Zn1109 Zn    0.83333   0.55104   0.75000   0.00000  Uiso   1.00
Zn1110 Zn    0.83333   0.44896   0.75000   0.00000  Uiso   1.00
C1111  C     0.08661   0.83333   0.74997   0.00000  Uiso   1.00
C1112  C     0.04248   0.83332   0.74997   0.00000  Uiso   1.00
C1113  C     0.18977   0.69058   0.78054   0.00000  Uiso   1.00
C1114  C     0.14356   0.97608   0.71947   0.00000  Uiso   1.00
C1115  C     0.14356   0.69075   0.71948   0.00000  Uiso   1.00
C1116  C     0.18977   0.97592   0.78053   0.00000  Uiso   1.00
C1117  C     0.16678   0.83343   0.66334   0.00000  Uiso   1.00
C1118  C     0.16655   0.83324   0.83664   0.00000  Uiso   1.00
C1119  C     0.18545   0.79787   0.90719   0.00000  Uiso   1.00
C1120  C     0.14881   0.86945   0.59274   0.00000  Uiso   1.00
C1121  C     0.16555   0.83272   0.88447   0.00000  Uiso   1.00
C1122  C     0.24672   0.83334   0.75002   0.00000  Uiso   1.00
C1123  C     0.16779   0.83397   0.61548   0.00000  Uiso   1.00
C1124  C     0.14432   0.86657   0.90694   0.00000  Uiso   1.00
C1125  C     0.18814   0.79949   0.59297   0.00000  Uiso   1.00
C1126  C     0.14312   0.86675   0.95341   0.00000  Uiso   1.00
C1127  C     0.18987   0.79972   0.54653   0.00000  Uiso   1.00
C1128  C     0.16577   0.83273   0.97678   0.00000  Uiso   1.00
C1129  C     0.16771   0.83407   0.52313   0.00000  Uiso   1.00
C1130  C     0.18520   0.79647   0.95363   0.00000  Uiso   1.00
C1131  C     0.14866   0.87057   0.54626   0.00000  Uiso   1.00
C1132  C     0.12092   0.90078   0.97670   0.00000  Uiso   1.00
C1133  C     0.12845   0.90616   0.52281   0.00000  Uiso   1.00
C1134  C     0.21211   0.76571   0.52335   0.00000  Uiso   1.00
C1135  C     0.20531   0.76078   0.97706   0.00000  Uiso   1.00
C1136  C     0.02133   0.79319   0.76009   0.00000  Uiso   1.00
C1137  C     0.31201   0.87347   0.73989   0.00000  Uiso   1.00
C1138  C     0.31202   0.79320   0.76013   0.00000  Uiso   1.00
C1139  C     0.02131   0.87346   0.73986   0.00000  Uiso   1.00
C1140  C     0.29085   0.83334   0.75002   0.00000  Uiso   1.00
H1141  H     0.20303   0.77352   0.88797   0.00000  Uiso   1.00
H1142  H     0.12509   0.95793   0.69509   0.00000  Uiso   1.00
H1143  H     0.12508   0.70903   0.69510   0.00000  Uiso   1.00
H1144  H     0.20824   0.95764   0.80491   0.00000  Uiso   1.00
H1145  H     0.12482   0.96873   0.91128   0.00000  Uiso   1.00
H1146  H     0.28623   0.79371   0.57332   0.00000  Uiso   1.00
H1147  H     0.13989   0.67582   0.50475   0.00000  Uiso   1.00
H1148  H     0.26742   0.68678   0.90562   0.00000  Uiso   1.00
H1149  H     0.13205   0.89443   0.61198   0.00000  Uiso   1.00
H1150  H     0.12988   0.89324   0.88752   0.00000  Uiso   1.00
H1151  H     0.20161   0.77204   0.61220   0.00000  Uiso   1.00
H1152  H     0.03760   0.76205   0.76827   0.00000  Uiso   1.00
H1153  H     0.29573   0.90461   0.73171   0.00000  Uiso   1.00
H1154  H     0.29576   0.76207   0.76835   0.00000  Uiso   1.00
H1155  H     0.03757   0.90460   0.73164   0.00000  Uiso   1.00
H1156  H     0.20823   0.70873   0.80493   0.00000  Uiso   1.00
N1157  N     0.16667   0.95240   0.75000   0.00000  Uiso   1.00
N1158  N     0.16667   0.71427   0.75000   0.00000  Uiso   1.00
O1159  O     0.10559   0.87154   0.74999   0.00000  Uiso   1.00
O1160  O     0.04700   0.94478   0.98325   0.00000  Uiso   1.00
O1161  O     0.09779   0.97780   0.92427   0.00000  Uiso   1.00
O1162  O     0.23354   0.69391   0.57402   0.00000  Uiso   1.00
O1163  O     0.28521   0.71884   0.51904   0.00000  Uiso   1.00
O1164  O     0.27575   0.76699   0.59001   0.00000  Uiso   1.00
O1165  O     0.07633   0.95271   0.57579   0.00000  Uiso   1.00
O1166  O     0.15032   0.97023   0.58306   0.00000  Uiso   1.00
O1167  O     0.11121   0.66867   0.51452   0.00000  Uiso   1.00
O1168  O     0.22054   0.66972   0.98139   0.00000  Uiso   1.00
O1169  O     0.18482   0.69795   0.91515   0.00000  Uiso   1.00
O1170  O     0.22774   0.79513   0.75000   0.00000  Uiso   1.00
O1171  O     0.26374   0.71509   0.92294   0.00000  Uiso   1.00
O1172  O     0.22774   0.87154   0.75000   0.00000  Uiso   1.00
O1173  O     0.10559   0.79513   0.74999   0.00000  Uiso   1.00
O1174  O     0.16666   0.87156   0.68392   0.00000  Uiso   1.00
O1175  O     0.16667   0.79511   0.81607   0.00000  Uiso   1.00
O1176  O     0.16667   0.87156   0.81607   0.00000  Uiso   1.00
O1177  O     0.16666   0.79511   0.68392   0.00000  Uiso   1.00
O1178  O     0.05855   0.90141   0.91551   0.00000  Uiso   1.00
S1179  S     0.07940   0.93099   0.94977   0.00000  Uiso   1.00
S1180  S     0.25236   0.73448   0.55121   0.00000  Uiso   1.00
S1181  S     0.11635   0.95837   0.55045   0.00000  Uiso   1.00
S1182  S     0.21784   0.70883   0.94917   0.00000  Uiso   1.00
Zn1183 Zn    0.16667   0.88437   0.75000   0.00000  Uiso   1.00
Zn1184 Zn    0.16667   0.78229   0.75000   0.00000  Uiso   1.00
C1185  C     0.41995   0.83333   0.74997   0.00000  Uiso   1.00
C1186  C     0.37581   0.83332   0.74997   0.00000  Uiso   1.00
C1187  C     0.52310   0.69058   0.78054   0.00000  Uiso   1.00
C1188  C     0.47689   0.97608   0.71947   0.00000  Uiso   1.00
C1189  C     0.47689   0.69075   0.71948   0.00000  Uiso   1.00
C1190  C     0.52310   0.97592   0.78053   0.00000  Uiso   1.00
C1191  C     0.50011   0.83343   0.66334   0.00000  Uiso   1.00
C1192  C     0.49988   0.83324   0.83664   0.00000  Uiso   1.00
C1193  C     0.51878   0.79787   0.90719   0.00000  Uiso   1.00
C1194  C     0.48215   0.86945   0.59274   0.00000  Uiso   1.00
C1195  C     0.49889   0.83272   0.88447   0.00000  Uiso   1.00
C1196  C     0.58005   0.83334   0.75002   0.00000  Uiso   1.00
C1197  C     0.50113   0.83397   0.61548   0.00000  Uiso   1.00
C1198  C     0.47765   0.86657   0.90694   0.00000  Uiso   1.00
C1199  C     0.52147   0.79949   0.59297   0.00000  Uiso   1.00
C1200  C     0.47646   0.86675   0.95341   0.00000  Uiso   1.00
C1201  C     0.52320   0.79972   0.54653   0.00000  Uiso   1.00
C1202  C     0.49910   0.83273   0.97678   0.00000  Uiso   1.00
C1203  C     0.50104   0.83407   0.52313   0.00000  Uiso   1.00
C1204  C     0.51854   0.79647   0.95363   0.00000  Uiso   1.00
C1205  C     0.48200   0.87057   0.54626   0.00000  Uiso   1.00
C1206  C     0.45425   0.90078   0.97670   0.00000  Uiso   1.00
C1207  C     0.46178   0.90616   0.52281   0.00000  Uiso   1.00
C1208  C     0.54544   0.76571   0.52335   0.00000  Uiso   1.00
C1209  C     0.53864   0.76078   0.97706   0.00000  Uiso   1.00
C1210  C     0.35466   0.79319   0.76009   0.00000  Uiso   1.00
C1211  C     0.64534   0.87347   0.73989   0.00000  Uiso   1.00
C1212  C     0.64536   0.79320   0.76013   0.00000  Uiso   1.00
C1213  C     0.35464   0.87346   0.73986   0.00000  Uiso   1.00
C1214  C     0.62419   0.83334   0.75002   0.00000  Uiso   1.00
H1215  H     0.53637   0.77352   0.88797   0.00000  Uiso   1.00
H1216  H     0.45842   0.95793   0.69509   0.00000  Uiso   1.00
H1217  H     0.45841   0.70903   0.69510   0.00000  Uiso   1.00
H1218  H     0.54158   0.95764   0.80491   0.00000  Uiso   1.00
H1219  H     0.45816   0.96873   0.91128   0.00000  Uiso   1.00
H1220  H     0.61956   0.79371   0.57332   0.00000  Uiso   1.00
H1221  H     0.47322   0.67582   0.50475   0.00000  Uiso   1.00
H1222  H     0.60076   0.68678   0.90562   0.00000  Uiso   1.00
H1223  H     0.46538   0.89443   0.61198   0.00000  Uiso   1.00
H1224  H     0.46322   0.89324   0.88752   0.00000  Uiso   1.00
H1225  H     0.53494   0.77204   0.61220   0.00000  Uiso   1.00
H1226  H     0.37093   0.76205   0.76827   0.00000  Uiso   1.00
H1227  H     0.62907   0.90461   0.73171   0.00000  Uiso   1.00
H1228  H     0.62910   0.76207   0.76835   0.00000  Uiso   1.00
H1229  H     0.37090   0.90460   0.73164   0.00000  Uiso   1.00
H1230  H     0.54157   0.70873   0.80493   0.00000  Uiso   1.00
N1231  N     0.50000   0.95240   0.75000   0.00000  Uiso   1.00
N1232  N     0.50000   0.71427   0.75000   0.00000  Uiso   1.00
O1233  O     0.43892   0.87154   0.74999   0.00000  Uiso   1.00
O1234  O     0.38033   0.94478   0.98325   0.00000  Uiso   1.00
O1235  O     0.43112   0.97780   0.92427   0.00000  Uiso   1.00
O1236  O     0.56687   0.69391   0.57402   0.00000  Uiso   1.00
O1237  O     0.61855   0.71884   0.51904   0.00000  Uiso   1.00
O1238  O     0.60908   0.76699   0.59001   0.00000  Uiso   1.00
O1239  O     0.40966   0.95271   0.57579   0.00000  Uiso   1.00
O1240  O     0.48366   0.97023   0.58306   0.00000  Uiso   1.00
O1241  O     0.44454   0.66867   0.51452   0.00000  Uiso   1.00
O1242  O     0.55388   0.66972   0.98139   0.00000  Uiso   1.00
O1243  O     0.51815   0.69795   0.91515   0.00000  Uiso   1.00
O1244  O     0.56108   0.79513   0.75000   0.00000  Uiso   1.00
O1245  O     0.59707   0.71509   0.92294   0.00000  Uiso   1.00
O1246  O     0.56108   0.87154   0.75000   0.00000  Uiso   1.00
O1247  O     0.43892   0.79513   0.74999   0.00000  Uiso   1.00
O1248  O     0.49999   0.87156   0.68392   0.00000  Uiso   1.00
O1249  O     0.50001   0.79511   0.81607   0.00000  Uiso   1.00
O1250  O     0.50001   0.87156   0.81607   0.00000  Uiso   1.00
O1251  O     0.49999   0.79511   0.68392   0.00000  Uiso   1.00
O1252  O     0.39189   0.90141   0.91551   0.00000  Uiso   1.00
S1253  S     0.41273   0.93099   0.94977   0.00000  Uiso   1.00
S1254  S     0.58569   0.73448   0.55121   0.00000  Uiso   1.00
S1255  S     0.44968   0.95837   0.55045   0.00000  Uiso   1.00
S1256  S     0.55117   0.70883   0.94917   0.00000  Uiso   1.00
Zn1257 Zn    0.50000   0.88437   0.75000   0.00000  Uiso   1.00
Zn1258 Zn    0.50000   0.78229   0.75000   0.00000  Uiso   1.00
C1259  C     0.75328   0.83333   0.74997   0.00000  Uiso   1.00
C1260  C     0.70914   0.83332   0.74997   0.00000  Uiso   1.00
C1261  C     0.85644   0.69058   0.78054   0.00000  Uiso   1.00
C1262  C     0.81023   0.97608   0.71947   0.00000  Uiso   1.00
C1263  C     0.81022   0.69075   0.71948   0.00000  Uiso   1.00
C1264  C     0.85644   0.97592   0.78053   0.00000  Uiso   1.00
C1265  C     0.83344   0.83343   0.66334   0.00000  Uiso   1.00
C1266  C     0.83321   0.83324   0.83664   0.00000  Uiso   1.00
C1267  C     0.85212   0.79787   0.90719   0.00000  Uiso   1.00
C1268  C     0.81548   0.86945   0.59274   0.00000  Uiso   1.00
C1269  C     0.83222   0.83272   0.88447   0.00000  Uiso   1.00
C1270  C     0.91339   0.83334   0.75002   0.00000  Uiso   1.00
C1271  C     0.83446   0.83397   0.61548   0.00000  Uiso   1.00
C1272  C     0.81098   0.86657   0.90694   0.00000  Uiso   1.00
C1273  C     0.85480   0.79949   0.59297   0.00000  Uiso   1.00
C1274  C     0.80979   0.86675   0.95341   0.00000  Uiso   1.00
C1275  C     0.85654   0.79972   0.54653   0.00000  Uiso   1.00
C1276  C     0.83244   0.83273   0.97678   0.00000  Uiso   1.00
C1277  C     0.83437   0.83407   0.52313   0.00000  Uiso   1.00
C1278  C     0.85187   0.79647   0.95363   0.00000  Uiso   1.00
C1279  C     0.81533   0.87057   0.54626   0.00000  Uiso   1.00
C1280  C     0.78759   0.90078   0.97670   0.00000  Uiso   1.00
C1281  C     0.79512   0.90616   0.52281   0.00000  Uiso   1.00
C1282  C     0.87877   0.76571   0.52335   0.00000  Uiso   1.00
C1283  C     0.87198   0.76078   0.97706   0.00000  Uiso   1.00
C1284  C     0.68799   0.79319   0.76009   0.00000  Uiso   1.00
C1285  C     0.97867   0.87347   0.73989   0.00000  Uiso   1.00
C1286  C     0.97869   0.79320   0.76013   0.00000  Uiso   1.00
C1287  C     0.68798   0.87346   0.73986   0.00000  Uiso   1.00
C1288  C     0.95752   0.83334   0.75002   0.00000  Uiso   1.00
H1289  H     0.86970   0.77352   0.88797   0.00000  Uiso   1.00
H1290  H     0.79176   0.95793   0.69509   0.00000  Uiso   1.00
H1291  H     0.79174   0.70903   0.69510   0.00000  Uiso   1.00
H1292  H     0.87491   0.95764   0.80491   0.00000  Uiso   1.00
H1293  H     0.79149   0.96873   0.91128   0.00000  Uiso   1.00
H1294  H     0.95290   0.79371   0.57332   0.00000  Uiso   1.00
H1295  H     0.80656   0.67582   0.50475   0.00000  Uiso   1.00
H1296  H     0.93409   0.68678   0.90562   0.00000  Uiso   1.00
H1297  H     0.79871   0.89443   0.61198   0.00000  Uiso   1.00
H1298  H     0.79655   0.89324   0.88752   0.00000  Uiso   1.00
H1299  H     0.86828   0.77204   0.61220   0.00000  Uiso   1.00
H1300  H     0.70427   0.76205   0.76827   0.00000  Uiso   1.00
H1301  H     0.96240   0.90461   0.73171   0.00000  Uiso   1.00
H1302  H     0.96243   0.76207   0.76835   0.00000  Uiso   1.00
H1303  H     0.70424   0.90460   0.73164   0.00000  Uiso   1.00
H1304  H     0.87490   0.70873   0.80493   0.00000  Uiso   1.00
N1305  N     0.83333   0.95240   0.75000   0.00000  Uiso   1.00
N1306  N     0.83333   0.71427   0.75000   0.00000  Uiso   1.00
O1307  O     0.77226   0.87154   0.74999   0.00000  Uiso   1.00
O1308  O     0.71367   0.94478   0.98325   0.00000  Uiso   1.00
O1309  O     0.76446   0.97780   0.92427   0.00000  Uiso   1.00
O1310  O     0.90020   0.69391   0.57402   0.00000  Uiso   1.00
O1311  O     0.95188   0.71884   0.51904   0.00000  Uiso   1.00
O1312  O     0.94242   0.76699   0.59001   0.00000  Uiso   1.00
O1313  O     0.74299   0.95271   0.57579   0.00000  Uiso   1.00
O1314  O     0.81699   0.97023   0.58306   0.00000  Uiso   1.00
O1315  O     0.77788   0.66867   0.51452   0.00000  Uiso   1.00
O1316  O     0.88721   0.66972   0.98139   0.00000  Uiso   1.00
O1317  O     0.85149   0.69795   0.91515   0.00000  Uiso   1.00
O1318  O     0.89441   0.79513   0.75000   0.00000  Uiso   1.00
O1319  O     0.93040   0.71509   0.92294   0.00000  Uiso   1.00
O1320  O     0.89441   0.87154   0.75000   0.00000  Uiso   1.00
O1321  O     0.77226   0.79513   0.74999   0.00000  Uiso   1.00
O1322  O     0.83333   0.87156   0.68392   0.00000  Uiso   1.00
O1323  O     0.83334   0.79511   0.81607   0.00000  Uiso   1.00
O1324  O     0.83334   0.87156   0.81607   0.00000  Uiso   1.00
O1325  O     0.83333   0.79511   0.68392   0.00000  Uiso   1.00
O1326  O     0.72522   0.90141   0.91551   0.00000  Uiso   1.00
S1327  S     0.74607   0.93099   0.94977   0.00000  Uiso   1.00
S1328  S     0.91903   0.73448   0.55121   0.00000  Uiso   1.00
S1329  S     0.78302   0.95837   0.55045   0.00000  Uiso   1.00
S1330  S     0.88450   0.70883   0.94917   0.00000  Uiso   1.00
Zn1331 Zn    0.83333   0.88437   0.75000   0.00000  Uiso   1.00
Zn1332 Zn    0.83333   0.78229   0.75000   0.00000  Uiso   1.00
loop_
_geom_bond_atom_site_label_1
_geom_bond_atom_site_label_2
_geom_bond_distance
_geom_bond_site_symmetry_2
_ccdc_geom_bond_type
C1     O63     1.281   .     A
C1     C2      1.418   .     S
C1     O49     1.281   .     A
C2     C26     1.397   .     A
C2     C29     1.397   .     A
C3     N48     1.366   .     A
C3     H46     1.082   .     S
C3     C450    1.415   1_545 S
C4     N47     1.366   .     A
C4     H32     1.082   .     S
C4     C227    1.415   .     S
C5     N48     1.366   .     A
C5     H33     1.082   .     S
C5     C448    1.415   1_545 S
C6     N47     1.366   .     A
C6     H34     1.082   .     S
C6     C225    1.415   .     S
C7     O64     1.283   .     A
C7     O67     1.285   .     A
C7     C13     1.432   .     S
C8     O66     1.285   .     A
C8     O65     1.283   .     A
C8     C11     1.431   .     S
C9     C20     1.390   .     A
C9     C11     1.386   .     A
C9     H31     1.081   .     S
C10    C21     1.390   .     A
C10    H39     1.081   .     S
C10    C13     1.387   .     A
C11    C14     1.385   .     A
C12    O62     1.281   .     A
C12    O60     1.281   .     A
C12    C30     1.418   .     S
C13    C15     1.386   .     A
C14    H40     1.080   .     S
C14    C16     1.390   .     A
C15    H41     1.081   .     S
C15    C17     1.390   .     A
C16    C18     1.421   .     A
C16    C22     1.417   .     A
C17    C19     1.420   .     A
C17    C24     1.415   .     A
C18    C20     1.421   .     A
C18    C685    1.388   .     S
C19    C21     1.420   .     A
C19    C684    1.388   1_554 S
C20    C25     1.417   .     A
C21    C23     1.417   .     A
C22    S69     1.792   .     S
C22    C689    1.409   .     S
C23    S71     1.792   .     S
C23    C688    1.409   1_554 S
C24    S70     1.791   .     S
C24    C691    1.409   1_554 S
C25    S72     1.792   .     S
C25    C690    1.409   .     S
C26    H42     1.084   .     S
C26    C176    1.370   1_455 S
C27    C30     1.397   .     A
C27    H43     1.084   .     S
C27    C103    1.370   .     S
C28    C30     1.397   .     A
C28    H44     1.084   .     S
C28    C100    1.370   .     S
C29    H45     1.084   .     S
C29    C175    1.370   1_455 S
H35    O51     0.989   .     S
H36    O54     0.991   .     S
H37    O57     0.990   .     S
H38    O61     0.991   .     S
N47    Zn73    2.005   .     S
N48    Zn74    2.005   .     S
O49    Zn73    1.998   .     S
O50    S69     1.503   .     D
O51    S69     1.682   .     S
O52    S70     1.503   .     D
O53    S70     1.503   .     D
O54    S70     1.683   .     S
O55    S71     1.503   .     D
O56    S71     1.504   .     D
O57    S515    1.681   1_545 S
O58    S72     1.503   .     D
O59    S72     1.503   .     D
O60    Zn74    1.998   .     S
O61    S72     1.682   .     S
O62    Zn73    1.998   .     S
O63    Zn74    1.998   .     S
O64    Zn73    2.013   .     S
O65    Zn74    2.013   .     S
O66    Zn73    2.011   .     S
O67    Zn74    2.011   .     S
O68    S69     1.504   .     D
S71    O279    1.681   .     S
C75    O137    1.281   .     A
C75    C76     1.418   .     S
C75    O123    1.281   .     A
C76    C100    1.397   .     A
C76    C103    1.397   .     A
C77    N122    1.366   .     A
C77    H120    1.082   .     S
C77    C524    1.415   1_545 S
C78    N121    1.366   .     A
C78    H106    1.082   .     S
C78    C301    1.415   .     S
C79    N122    1.366   .     A
C79    H107    1.082   .     S
C79    C522    1.415   1_545 S
C80    N121    1.366   .     A
C80    H108    1.082   .     S
C80    C299    1.415   .     S
C81    O138    1.283   .     A
C81    O141    1.285   .     A
C81    C87     1.432   .     S
C82    O140    1.285   .     A
C82    O139    1.283   .     A
C82    C85     1.431   .     S
C83    C94     1.390   .     A
C83    C85     1.386   .     A
C83    H105    1.081   .     S
C84    C95     1.390   .     A
C84    H113    1.081   .     S
C84    C87     1.387   .     A
C85    C88     1.385   .     A
C86    O136    1.281   .     A
C86    O134    1.281   .     A
C86    C104    1.418   .     S
C87    C89     1.386   .     A
C88    H114    1.080   .     S
C88    C90     1.390   .     A
C89    H115    1.081   .     S
C89    C91     1.390   .     A
C90    C92     1.421   .     A
C90    C96     1.417   .     A
C91    C93     1.420   .     A
C91    C98     1.415   .     A
C92    C94     1.421   .     A
C92    C759    1.388   .     S
C93    C95     1.420   .     A
C93    C758    1.388   1_554 S
C94    C99     1.417   .     A
C95    C97     1.417   .     A
C96    S143    1.792   .     S
C96    C763    1.409   .     S
C97    S145    1.792   .     S
C97    C762    1.409   1_554 S
C98    S144    1.791   .     S
C98    C765    1.409   1_554 S
C99    S146    1.792   .     S
C99    C764    1.409   .     S
C100   H116    1.084   .     S
C101   C104    1.397   .     A
C101   H117    1.084   .     S
C101   C177    1.370   .     S
C102   C104    1.397   .     A
C102   H118    1.084   .     S
C102   C174    1.370   .     S
C103   H119    1.084   .     S
H109   O125    0.989   .     S
H110   O128    0.991   .     S
H111   O131    0.990   .     S
H112   O135    0.991   .     S
N121   Zn147   2.005   .     S
N122   Zn148   2.005   .     S
O123   Zn147   1.998   .     S
O124   S143    1.503   .     D
O125   S143    1.682   .     S
O126   S144    1.503   .     D
O127   S144    1.503   .     D
O128   S144    1.683   .     S
O129   S145    1.503   .     D
O130   S145    1.504   .     D
O131   S589    1.681   1_545 S
O132   S146    1.503   .     D
O133   S146    1.503   .     D
O134   Zn148   1.998   .     S
O135   S146    1.682   .     S
O136   Zn147   1.998   .     S
O137   Zn148   1.998   .     S
O138   Zn147   2.013   .     S
O139   Zn148   2.013   .     S
O140   Zn147   2.011   .     S
O141   Zn148   2.011   .     S
O142   S143    1.504   .     D
S145   O353    1.681   .     S
C149   O211    1.281   .     A
C149   C150    1.418   .     S
C149   O197    1.281   .     A
C150   C174    1.397   .     A
C150   C177    1.397   .     A
C151   N196    1.366   .     A
C151   H194    1.082   .     S
C151   C598    1.415   1_545 S
C152   N195    1.366   .     A
C152   H180    1.082   .     S
C152   C375    1.415   .     S
C153   N196    1.366   .     A
C153   H181    1.082   .     S
C153   C596    1.415   1_545 S
C154   N195    1.366   .     A
C154   H182    1.082   .     S
C154   C373    1.415   .     S
C155   O212    1.283   .     A
C155   O215    1.285   .     A
C155   C161    1.432   .     S
C156   O214    1.285   .     A
C156   O213    1.283   .     A
C156   C159    1.431   .     S
C157   C168    1.390   .     A
C157   C159    1.386   .     A
C157   H179    1.081   .     S
C158   C169    1.390   .     A
C158   H187    1.081   .     S
C158   C161    1.387   .     A
C159   C162    1.385   .     A
C160   O210    1.281   .     A
C160   O208    1.281   .     A
C160   C178    1.418   .     S
C161   C163    1.386   .     A
C162   H188    1.080   .     S
C162   C164    1.390   .     A
C163   H189    1.081   .     S
C163   C165    1.390   .     A
C164   C166    1.421   .     A
C164   C170    1.417   .     A
C165   C167    1.420   .     A
C165   C172    1.415   .     A
C166   C168    1.421   .     A
C166   C833    1.388   .     S
C167   C169    1.420   .     A
C167   C832    1.388   1_554 S
C168   C173    1.417   .     A
C169   C171    1.417   .     A
C170   S217    1.792   .     S
C170   C837    1.409   .     S
C171   S219    1.792   .     S
C171   C836    1.409   1_554 S
C172   S218    1.791   .     S
C172   C839    1.409   1_554 S
C173   S220    1.792   .     S
C173   C838    1.409   .     S
C174   H190    1.084   .     S
C175   C178    1.397   .     A
C175   H191    1.084   .     S
C175   C29     1.370   1_655 S
C176   C178    1.397   .     A
C176   H192    1.084   .     S
C176   C26     1.370   1_655 S
C177   H193    1.084   .     S
H183   O199    0.989   .     S
H184   O202    0.991   .     S
H185   O205    0.990   .     S
H186   O209    0.991   .     S
N195   Zn221   2.005   .     S
N196   Zn222   2.005   .     S
O197   Zn221   1.998   .     S
O198   S217    1.503   .     D
O199   S217    1.682   .     S
O200   S218    1.503   .     D
O201   S218    1.503   .     D
O202   S218    1.683   .     S
O203   S219    1.503   .     D
O204   S219    1.504   .     D
O205   S663    1.681   1_545 S
O206   S220    1.503   .     D
O207   S220    1.503   .     D
O208   Zn222   1.998   .     S
O209   S220    1.682   .     S
O210   Zn221   1.998   .     S
O211   Zn222   1.998   .     S
O212   Zn221   2.013   .     S
O213   Zn222   2.013   .     S
O214   Zn221   2.011   .     S
O215   Zn222   2.011   .     S
O216   S217    1.504   .     D
S219   O427    1.681   .     S
C223   O285    1.281   .     A
C223   C224    1.418   .     S
C223   O271    1.281   .     A
C224   C248    1.397   .     A
C224   C251    1.397   .     A
C225   N270    1.366   .     A
C225   H268    1.082   .     S
C226   N269    1.366   .     A
C226   H254    1.082   .     S
C226   C449    1.415   .     S
C227   N270    1.366   .     A
C227   H255    1.082   .     S
C228   N269    1.366   .     A
C228   H256    1.082   .     S
C228   C447    1.415   .     S
C229   O286    1.283   .     A
C229   O289    1.285   .     A
C229   C235    1.432   .     S
C230   O288    1.285   .     A
C230   O287    1.283   .     A
C230   C233    1.431   .     S
C231   C242    1.390   .     A
C231   C233    1.386   .     A
C231   H253    1.081   .     S
C232   C243    1.390   .     A
C232   H261    1.081   .     S
C232   C235    1.387   .     A
C233   C236    1.385   .     A
C234   O284    1.281   .     A
C234   O282    1.281   .     A
C234   C252    1.418   .     S
C235   C237    1.386   .     A
C236   H262    1.080   .     S
C236   C238    1.390   .     A
C237   H263    1.081   .     S
C237   C239    1.390   .     A
C238   C240    1.421   .     A
C238   C244    1.417   .     A
C239   C241    1.420   .     A
C239   C246    1.415   .     A
C240   C242    1.421   .     A
C240   C907    1.388   .     S
C241   C243    1.420   .     A
C241   C906    1.388   1_554 S
C242   C247    1.417   .     A
C243   C245    1.417   .     A
C244   S291    1.792   .     S
C244   C911    1.409   .     S
C245   S293    1.792   .     S
C245   C910    1.409   1_554 S
C246   S292    1.791   .     S
C246   C913    1.409   1_554 S
C247   S294    1.792   .     S
C247   C912    1.409   .     S
C248   H264    1.084   .     S
C248   C398    1.370   1_455 S
C249   C252    1.397   .     A
C249   H265    1.084   .     S
C249   C325    1.370   .     S
C250   C252    1.397   .     A
C250   H266    1.084   .     S
C250   C322    1.370   .     S
C251   H267    1.084   .     S
C251   C397    1.370   1_455 S
H257   O273    0.989   .     S
H258   O276    0.991   .     S
H259   O279    0.990   .     S
H260   O283    0.991   .     S
N269   Zn295   2.005   .     S
N270   Zn296   2.005   .     S
O271   Zn295   1.998   .     S
O272   S291    1.503   .     D
O273   S291    1.682   .     S
O274   S292    1.503   .     D
O275   S292    1.503   .     D
O276   S292    1.683   .     S
O277   S293    1.503   .     D
O278   S293    1.504   .     D
O280   S294    1.503   .     D
O281   S294    1.503   .     D
O282   Zn296   1.998   .     S
O283   S294    1.682   .     S
O284   Zn295   1.998   .     S
O285   Zn296   1.998   .     S
O286   Zn295   2.013   .     S
O287   Zn296   2.013   .     S
O288   Zn295   2.011   .     S
O289   Zn296   2.011   .     S
O290   S291    1.504   .     D
S293   O501    1.681   .     S
C297   O359    1.281   .     A
C297   C298    1.418   .     S
C297   O345    1.281   .     A
C298   C322    1.397   .     A
C298   C325    1.397   .     A
C299   N344    1.366   .     A
C299   H342    1.082   .     S
C300   N343    1.366   .     A
C300   H328    1.082   .     S
C300   C523    1.415   .     S
C301   N344    1.366   .     A
C301   H329    1.082   .     S
C302   N343    1.366   .     A
C302   H330    1.082   .     S
C302   C521    1.415   .     S
C303   O360    1.283   .     A
C303   O363    1.285   .     A
C303   C309    1.432   .     S
C304   O362    1.285   .     A
C304   O361    1.283   .     A
C304   C307    1.431   .     S
C305   C316    1.390   .     A
C305   C307    1.386   .     A
C305   H327    1.081   .     S
C306   C317    1.390   .     A
C306   H335    1.081   .     S
C306   C309    1.387   .     A
C307   C310    1.385   .     A
C308   O358    1.281   .     A
C308   O356    1.281   .     A
C308   C326    1.418   .     S
C309   C311    1.386   .     A
C310   H336    1.080   .     S
C310   C312    1.390   .     A
C311   H337    1.081   .     S
C311   C313    1.390   .     A
C312   C314    1.421   .     A
C312   C318    1.417   .     A
C313   C315    1.420   .     A
C313   C320    1.415   .     A
C314   C316    1.421   .     A
C314   C981    1.388   .     S
C315   C317    1.420   .     A
C315   C980    1.388   1_554 S
C316   C321    1.417   .     A
C317   C319    1.417   .     A
C318   S365    1.792   .     S
C318   C985    1.409   .     S
C319   S367    1.792   .     S
C319   C984    1.409   1_554 S
C320   S366    1.791   .     S
C320   C987    1.409   1_554 S
C321   S368    1.792   .     S
C321   C986    1.409   .     S
C322   H338    1.084   .     S
C323   C326    1.397   .     A
C323   H339    1.084   .     S
C323   C399    1.370   .     S
C324   C326    1.397   .     A
C324   H340    1.084   .     S
C324   C396    1.370   .     S
C325   H341    1.084   .     S
H331   O347    0.989   .     S
H332   O350    0.991   .     S
H333   O353    0.990   .     S
H334   O357    0.991   .     S
N343   Zn369   2.005   .     S
N344   Zn370   2.005   .     S
O345   Zn369   1.998   .     S
O346   S365    1.503   .     D
O347   S365    1.682   .     S
O348   S366    1.503   .     D
O349   S366    1.503   .     D
O350   S366    1.683   .     S
O351   S367    1.503   .     D
O352   S367    1.504   .     D
O354   S368    1.503   .     D
O355   S368    1.503   .     D
O356   Zn370   1.998   .     S
O357   S368    1.682   .     S
O358   Zn369   1.998   .     S
O359   Zn370   1.998   .     S
O360   Zn369   2.013   .     S
O361   Zn370   2.013   .     S
O362   Zn369   2.011   .     S
O363   Zn370   2.011   .     S
O364   S365    1.504   .     D
S367   O575    1.681   .     S
C371   O433    1.281   .     A
C371   C372    1.418   .     S
C371   O419    1.281   .     A
C372   C396    1.397   .     A
C372   C399    1.397   .     A
C373   N418    1.366   .     A
C373   H416    1.082   .     S
C374   N417    1.366   .     A
C374   H402    1.082   .     S
C374   C597    1.415   .     S
C375   N418    1.366   .     A
C375   H403    1.082   .     S
C376   N417    1.366   .     A
C376   H404    1.082   .     S
C376   C595    1.415   .     S
C377   O434    1.283   .     A
C377   O437    1.285   .     A
C377   C383    1.432   .     S
C378   O436    1.285   .     A
C378   O435    1.283   .     A
C378   C381    1.431   .     S
C379   C390    1.390   .     A
C379   C381    1.386   .     A
C379   H401    1.081   .     S
C380   C391    1.390   .     A
C380   H409    1.081   .     S
C380   C383    1.387   .     A
C381   C384    1.385   .     A
C382   O432    1.281   .     A
C382   O430    1.281   .     A
C382   C400    1.418   .     S
C383   C385    1.386   .     A
C384   H410    1.080   .     S
C384   C386    1.390   .     A
C385   H411    1.081   .     S
C385   C387    1.390   .     A
C386   C388    1.421   .     A
C386   C392    1.417   .     A
C387   C389    1.420   .     A
C387   C394    1.415   .     A
C388   C390    1.421   .     A
C388   C1055   1.388   .     S
C389   C391    1.420   .     A
C389   C1054   1.388   1_554 S
C390   C395    1.417   .     A
C391   C393    1.417   .     A
C392   S439    1.792   .     S
C392   C1059   1.409   .     S
C393   S441    1.792   .     S
C393   C1058   1.409   1_554 S
C394   S440    1.791   .     S
C394   C1061   1.409   1_554 S
C395   S442    1.792   .     S
C395   C1060   1.409   .     S
C396   H412    1.084   .     S
C397   C400    1.397   .     A
C397   H413    1.084   .     S
C397   C251    1.370   1_655 S
C398   C400    1.397   .     A
C398   H414    1.084   .     S
C398   C248    1.370   1_655 S
C399   H415    1.084   .     S
H405   O421    0.989   .     S
H406   O424    0.991   .     S
H407   O427    0.990   .     S
H408   O431    0.991   .     S
N417   Zn443   2.005   .     S
N418   Zn444   2.005   .     S
O419   Zn443   1.998   .     S
O420   S439    1.503   .     D
O421   S439    1.682   .     S
O422   S440    1.503   .     D
O423   S440    1.503   .     D
O424   S440    1.683   .     S
O425   S441    1.503   .     D
O426   S441    1.504   .     D
O428   S442    1.503   .     D
O429   S442    1.503   .     D
O430   Zn444   1.998   .     S
O431   S442    1.682   .     S
O432   Zn443   1.998   .     S
O433   Zn444   1.998   .     S
O434   Zn443   2.013   .     S
O435   Zn444   2.013   .     S
O436   Zn443   2.011   .     S
O437   Zn444   2.011   .     S
O438   S439    1.504   .     D
S441   O649    1.681   .     S
C445   O507    1.281   .     A
C445   C446    1.418   .     S
C445   O493    1.281   .     A
C446   C470    1.397   .     A
C446   C473    1.397   .     A
C447   N492    1.366   .     A
C447   H490    1.082   .     S
C448   N491    1.366   .     A
C448   H476    1.082   .     S
C448   C5      1.415   1_565 S
C449   N492    1.366   .     A
C449   H477    1.082   .     S
C450   N491    1.366   .     A
C450   H478    1.082   .     S
C450   C3      1.415   1_565 S
C451   O508    1.283   .     A
C451   O511    1.285   .     A
C451   C457    1.432   .     S
C452   O510    1.285   .     A
C452   O509    1.283   .     A
C452   C455    1.431   .     S
C453   C464    1.390   .     A
C453   C455    1.386   .     A
C453   H475    1.081   .     S
C454   C465    1.390   .     A
C454   H483    1.081   .     S
C454   C457    1.387   .     A
C455   C458    1.385   .     A
C456   O506    1.281   .     A
C456   O504    1.281   .     A
C456   C474    1.418   .     S
C457   C459    1.386   .     A
C458   H484    1.080   .     S
C458   C460    1.390   .     A
C459   H485    1.081   .     S
C459   C461    1.390   .     A
C460   C462    1.421   .     A
C460   C466    1.417   .     A
C461   C463    1.420   .     A
C461   C468    1.415   .     A
C462   C464    1.421   .     A
C462   C1129   1.388   .     S
C463   C465    1.420   .     A
C463   C1128   1.388   1_554 S
C464   C469    1.417   .     A
C465   C467    1.417   .     A
C466   S513    1.792   .     S
C466   C1133   1.409   .     S
C467   S515    1.792   .     S
C467   C1132   1.409   1_554 S
C468   S514    1.791   .     S
C468   C1135   1.409   1_554 S
C469   S516    1.792   .     S
C469   C1134   1.409   .     S
C470   H486    1.084   .     S
C470   C620    1.370   1_455 S
C471   C474    1.397   .     A
C471   H487    1.084   .     S
C471   C547    1.370   .     S
C472   C474    1.397   .     A
C472   H488    1.084   .     S
C472   C544    1.370   .     S
C473   H489    1.084   .     S
C473   C619    1.370   1_455 S
H479   O495    0.989   .     S
H480   O498    0.991   .     S
H481   O501    0.990   .     S
H482   O505    0.991   .     S
N491   Zn517   2.005   .     S
N492   Zn518   2.005   .     S
O493   Zn517   1.998   .     S
O494   S513    1.503   .     D
O495   S513    1.682   .     S
O496   S514    1.503   .     D
O497   S514    1.503   .     D
O498   S514    1.683   .     S
O499   S515    1.503   .     D
O500   S515    1.504   .     D
O502   S516    1.503   .     D
O503   S516    1.503   .     D
O504   Zn518   1.998   .     S
O505   S516    1.682   .     S
O506   Zn517   1.998   .     S
O507   Zn518   1.998   .     S
O508   Zn517   2.013   .     S
O509   Zn518   2.013   .     S
O510   Zn517   2.011   .     S
O511   Zn518   2.011   .     S
O512   S513    1.504   .     D
S515   O57     1.681   1_565 S
C519   O581    1.281   .     A
C519   C520    1.418   .     S
C519   O567    1.281   .     A
C520   C544    1.397   .     A
C520   C547    1.397   .     A
C521   N566    1.366   .     A
C521   H564    1.082   .     S
C522   N565    1.366   .     A
C522   H550    1.082   .     S
C522   C79     1.415   1_565 S
C523   N566    1.366   .     A
C523   H551    1.082   .     S
C524   N565    1.366   .     A
C524   H552    1.082   .     S
C524   C77     1.415   1_565 S
C525   O582    1.283   .     A
C525   O585    1.285   .     A
C525   C531    1.432   .     S
C526   O584    1.285   .     A
C526   O583    1.283   .     A
C526   C529    1.431   .     S
C527   C538    1.390   .     A
C527   C529    1.386   .     A
C527   H549    1.081   .     S
C528   C539    1.390   .     A
C528   H557    1.081   .     S
C528   C531    1.387   .     A
C529   C532    1.385   .     A
C530   O580    1.281   .     A
C530   O578    1.281   .     A
C530   C548    1.418   .     S
C531   C533    1.386   .     A
C532   H558    1.080   .     S
C532   C534    1.390   .     A
C533   H559    1.081   .     S
C533   C535    1.390   .     A
C534   C536    1.421   .     A
C534   C540    1.417   .     A
C535   C537    1.420   .     A
C535   C542    1.415   .     A
C536   C538    1.421   .     A
C536   C1203   1.388   .     S
C537   C539    1.420   .     A
C537   C1202   1.388   1_554 S
C538   C543    1.417   .     A
C539   C541    1.417   .     A
C540   S587    1.792   .     S
C540   C1207   1.409   .     S
C541   S589    1.792   .     S
C541   C1206   1.409   1_554 S
C542   S588    1.791   .     S
C542   C1209   1.409   1_554 S
C543   S590    1.792   .     S
C543   C1208   1.409   .     S
C544   H560    1.084   .     S
C545   C548    1.397   .     A
C545   H561    1.084   .     S
C545   C621    1.370   .     S
C546   C548    1.397   .     A
C546   H562    1.084   .     S
C546   C618    1.370   .     S
C547   H563    1.084   .     S
H553   O569    0.989   .     S
H554   O572    0.991   .     S
H555   O575    0.990   .     S
H556   O579    0.991   .     S
N565   Zn591   2.005   .     S
N566   Zn592   2.005   .     S
O567   Zn591   1.998   .     S
O568   S587    1.503   .     D
O569   S587    1.682   .     S
O570   S588    1.503   .     D
O571   S588    1.503   .     D
O572   S588    1.683   .     S
O573   S589    1.503   .     D
O574   S589    1.504   .     D
O576   S590    1.503   .     D
O577   S590    1.503   .     D
O578   Zn592   1.998   .     S
O579   S590    1.682   .     S
O580   Zn591   1.998   .     S
O581   Zn592   1.998   .     S
O582   Zn591   2.013   .     S
O583   Zn592   2.013   .     S
O584   Zn591   2.011   .     S
O585   Zn592   2.011   .     S
O586   S587    1.504   .     D
S589   O131    1.681   1_565 S
C593   O655    1.281   .     A
C593   C594    1.418   .     S
C593   O641    1.281   .     A
C594   C618    1.397   .     A
C594   C621    1.397   .     A
C595   N640    1.366   .     A
C595   H638    1.082   .     S
C596   N639    1.366   .     A
C596   H624    1.082   .     S
C596   C153    1.415   1_565 S
C597   N640    1.366   .     A
C597   H625    1.082   .     S
C598   N639    1.366   .     A
C598   H626    1.082   .     S
C598   C151    1.415   1_565 S
C599   O656    1.283   .     A
C599   O659    1.285   .     A
C599   C605    1.432   .     S
C600   O658    1.285   .     A
C600   O657    1.283   .     A
C600   C603    1.431   .     S
C601   C612    1.390   .     A
C601   C603    1.386   .     A
C601   H623    1.081   .     S
C602   C613    1.390   .     A
C602   H631    1.081   .     S
C602   C605    1.387   .     A
C603   C606    1.385   .     A
C604   O654    1.281   .     A
C604   O652    1.281   .     A
C604   C622    1.418   .     S
C605   C607    1.386   .     A
C606   H632    1.080   .     S
C606   C608    1.390   .     A
C607   H633    1.081   .     S
C607   C609    1.390   .     A
C608   C610    1.421   .     A
C608   C614    1.417   .     A
C609   C611    1.420   .     A
C609   C616    1.415   .     A
C610   C612    1.421   .     A
C610   C1277   1.388   .     S
C611   C613    1.420   .     A
C611   C1276   1.388   1_554 S
C612   C617    1.417   .     A
C613   C615    1.417   .     A
C614   S661    1.792   .     S
C614   C1281   1.409   .     S
C615   S663    1.792   .     S
C615   C1280   1.409   1_554 S
C616   S662    1.791   .     S
C616   C1283   1.409   1_554 S
C617   S664    1.792   .     S
C617   C1282   1.409   .     S
C618   H634    1.084   .     S
C619   C622    1.397   .     A
C619   H635    1.084   .     S
C619   C473    1.370   1_655 S
C620   C622    1.397   .     A
C620   H636    1.084   .     S
C620   C470    1.370   1_655 S
C621   H637    1.084   .     S
H627   O643    0.989   .     S
H628   O646    0.991   .     S
H629   O649    0.990   .     S
H630   O653    0.991   .     S
N639   Zn665   2.005   .     S
N640   Zn666   2.005   .     S
O641   Zn665   1.998   .     S
O642   S661    1.503   .     D
O643   S661    1.682   .     S
O644   S662    1.503   .     D
O645   S662    1.503   .     D
O646   S662    1.683   .     S
O647   S663    1.503   .     D
O648   S663    1.504   .     D
O650   S664    1.503   .     D
O651   S664    1.503   .     D
O652   Zn666   1.998   .     S
O653   S664    1.682   .     S
O654   Zn665   1.998   .     S
O655   Zn666   1.998   .     S
O656   Zn665   2.013   .     S
O657   Zn666   2.013   .     S
O658   Zn665   2.011   .     S
O659   Zn666   2.011   .     S
O660   S661    1.504   .     D
S663   O205    1.681   1_565 S
C667   O729    1.281   .     A
C667   C668    1.418   .     S
C667   O715    1.281   .     A
C668   C692    1.397   .     A
C668   C695    1.397   .     A
C669   N714    1.366   .     A
C669   H712    1.082   .     S
C669   C1116   1.415   1_545 S
C670   N713    1.366   .     A
C670   H698    1.082   .     S
C670   C893    1.415   .     S
C671   N714    1.366   .     A
C671   H699    1.082   .     S
C671   C1114   1.415   1_545 S
C672   N713    1.366   .     A
C672   H700    1.082   .     S
C672   C891    1.415   .     S
C673   O730    1.283   .     A
C673   O733    1.285   .     A
C673   C679    1.432   .     S
C674   O732    1.285   .     A
C674   O731    1.283   .     A
C674   C677    1.431   .     S
C675   C686    1.390   .     A
C675   C677    1.386   .     A
C675   H697    1.081   .     S
C676   C687    1.390   .     A
C676   H705    1.081   .     S
C676   C679    1.387   .     A
C677   C680    1.385   .     A
C678   O728    1.281   .     A
C678   O726    1.281   .     A
C678   C696    1.418   .     S
C679   C681    1.386   .     A
C680   H706    1.080   .     S
C680   C682    1.390   .     A
C681   H707    1.081   .     S
C681   C683    1.390   .     A
C682   C684    1.421   .     A
C682   C688    1.417   .     A
C683   C685    1.420   .     A
C683   C690    1.415   .     A
C684   C686    1.421   .     A
C684   C19     1.388   1_556 S
C685   C687    1.420   .     A
C686   C691    1.417   .     A
C687   C689    1.417   .     A
C688   S735    1.792   .     S
C688   C23     1.409   1_556 S
C689   S737    1.792   .     S
C690   S736    1.791   .     S
C691   S738    1.792   .     S
C691   C24     1.409   1_556 S
C692   H708    1.084   .     S
C692   C842    1.370   1_455 S
C693   C696    1.397   .     A
C693   H709    1.084   .     S
C693   C769    1.370   .     S
C694   C696    1.397   .     A
C694   H710    1.084   .     S
C694   C766    1.370   .     S
C695   H711    1.084   .     S
C695   C841    1.370   1_455 S
H701   O717    0.989   .     S
H702   O720    0.991   .     S
H703   O723    0.990   .     S
H704   O727    0.991   .     S
N713   Zn739   2.005   .     S
N714   Zn740   2.005   .     S
O715   Zn739   1.998   .     S
O716   S735    1.503   .     D
O717   S735    1.682   .     S
O718   S736    1.503   .     D
O719   S736    1.503   .     D
O720   S736    1.683   .     S
O721   S737    1.503   .     D
O722   S737    1.504   .     D
O723   S1181   1.681   1_545 S
O724   S738    1.503   .     D
O725   S738    1.503   .     D
O726   Zn740   1.998   .     S
O727   S738    1.682   .     S
O728   Zn739   1.998   .     S
O729   Zn740   1.998   .     S
O730   Zn739   2.013   .     S
O731   Zn740   2.013   .     S
O732   Zn739   2.011   .     S
O733   Zn740   2.011   .     S
O734   S735    1.504   .     D
S737   O945    1.681   .     S
C741   O803    1.281   .     A
C741   C742    1.418   .     S
C741   O789    1.281   .     A
C742   C766    1.397   .     A
C742   C769    1.397   .     A
C743   N788    1.366   .     A
C743   H786    1.082   .     S
C743   C1190   1.415   1_545 S
C744   N787    1.366   .     A
C744   H772    1.082   .     S
C744   C967    1.415   .     S
C745   N788    1.366   .     A
C745   H773    1.082   .     S
C745   C1188   1.415   1_545 S
C746   N787    1.366   .     A
C746   H774    1.082   .     S
C746   C965    1.415   .     S
C747   O804    1.283   .     A
C747   O807    1.285   .     A
C747   C753    1.432   .     S
C748   O806    1.285   .     A
C748   O805    1.283   .     A
C748   C751    1.431   .     S
C749   C760    1.390   .     A
C749   C751    1.386   .     A
C749   H771    1.081   .     S
C750   C761    1.390   .     A
C750   H779    1.081   .     S
C750   C753    1.387   .     A
C751   C754    1.385   .     A
C752   O802    1.281   .     A
C752   O800    1.281   .     A
C752   C770    1.418   .     S
C753   C755    1.386   .     A
C754   H780    1.080   .     S
C754   C756    1.390   .     A
C755   H781    1.081   .     S
C755   C757    1.390   .     A
C756   C758    1.421   .     A
C756   C762    1.417   .     A
C757   C759    1.420   .     A
C757   C764    1.415   .     A
C758   C760    1.421   .     A
C758   C93     1.388   1_556 S
C759   C761    1.420   .     A
C760   C765    1.417   .     A
C761   C763    1.417   .     A
C762   S809    1.792   .     S
C762   C97     1.409   1_556 S
C763   S811    1.792   .     S
C764   S810    1.791   .     S
C765   S812    1.792   .     S
C765   C98     1.409   1_556 S
C766   H782    1.084   .     S
C767   C770    1.397   .     A
C767   H783    1.084   .     S
C767   C843    1.370   .     S
C768   C770    1.397   .     A
C768   H784    1.084   .     S
C768   C840    1.370   .     S
C769   H785    1.084   .     S
H775   O791    0.989   .     S
H776   O794    0.991   .     S
H777   O797    0.990   .     S
H778   O801    0.991   .     S
N787   Zn813   2.005   .     S
N788   Zn814   2.005   .     S
O789   Zn813   1.998   .     S
O790   S809    1.503   .     D
O791   S809    1.682   .     S
O792   S810    1.503   .     D
O793   S810    1.503   .     D
O794   S810    1.683   .     S
O795   S811    1.503   .     D
O796   S811    1.504   .     D
O797   S1255   1.681   1_545 S
O798   S812    1.503   .     D
O799   S812    1.503   .     D
O800   Zn814   1.998   .     S
O801   S812    1.682   .     S
O802   Zn813   1.998   .     S
O803   Zn814   1.998   .     S
O804   Zn813   2.013   .     S
O805   Zn814   2.013   .     S
O806   Zn813   2.011   .     S
O807   Zn814   2.011   .     S
O808   S809    1.504   .     D
S811   O1019   1.681   .     S
C815   O877    1.281   .     A
C815   C816    1.418   .     S
C815   O863    1.281   .     A
C816   C840    1.397   .     A
C816   C843    1.397   .     A
C817   N862    1.366   .     A
C817   H860    1.082   .     S
C817   C1264   1.415   1_545 S
C818   N861    1.366   .     A
C818   H846    1.082   .     S
C818   C1041   1.415   .     S
C819   N862    1.366   .     A
C819   H847    1.082   .     S
C819   C1262   1.415   1_545 S
C820   N861    1.366   .     A
C820   H848    1.082   .     S
C820   C1039   1.415   .     S
C821   O878    1.283   .     A
C821   O881    1.285   .     A
C821   C827    1.432   .     S
C822   O880    1.285   .     A
C822   O879    1.283   .     A
C822   C825    1.431   .     S
C823   C834    1.390   .     A
C823   C825    1.386   .     A
C823   H845    1.081   .     S
C824   C835    1.390   .     A
C824   H853    1.081   .     S
C824   C827    1.387   .     A
C825   C828    1.385   .     A
C826   O876    1.281   .     A
C826   O874    1.281   .     A
C826   C844    1.418   .     S
C827   C829    1.386   .     A
C828   H854    1.080   .     S
C828   C830    1.390   .     A
C829   H855    1.081   .     S
C829   C831    1.390   .     A
C830   C832    1.421   .     A
C830   C836    1.417   .     A
C831   C833    1.420   .     A
C831   C838    1.415   .     A
C832   C834    1.421   .     A
C832   C167    1.388   1_556 S
C833   C835    1.420   .     A
C834   C839    1.417   .     A
C835   C837    1.417   .     A
C836   S883    1.792   .     S
C836   C171    1.409   1_556 S
C837   S885    1.792   .     S
C838   S884    1.791   .     S
C839   S886    1.792   .     S
C839   C172    1.409   1_556 S
C840   H856    1.084   .     S
C841   C844    1.397   .     A
C841   H857    1.084   .     S
C841   C695    1.370   1_655 S
C842   C844    1.397   .     A
C842   H858    1.084   .     S
C842   C692    1.370   1_655 S
C843   H859    1.084   .     S
H849   O865    0.989   .     S
H850   O868    0.991   .     S
H851   O871    0.990   .     S
H852   O875    0.991   .     S
N861   Zn887   2.005   .     S
N862   Zn888   2.005   .     S
O863   Zn887   1.998   .     S
O864   S883    1.503   .     D
O865   S883    1.682   .     S
O866   S884    1.503   .     D
O867   S884    1.503   .     D
O868   S884    1.683   .     S
O869   S885    1.503   .     D
O870   S885    1.504   .     D
O871   S1329   1.681   1_545 S
O872   S886    1.503   .     D
O873   S886    1.503   .     D
O874   Zn888   1.998   .     S
O875   S886    1.682   .     S
O876   Zn887   1.998   .     S
O877   Zn888   1.998   .     S
O878   Zn887   2.013   .     S
O879   Zn888   2.013   .     S
O880   Zn887   2.011   .     S
O881   Zn888   2.011   .     S
O882   S883    1.504   .     D
S885   O1093   1.681   .     S
C889   O951    1.281   .     A
C889   C890    1.418   .     S
C889   O937    1.281   .     A
C890   C914    1.397   .     A
C890   C917    1.397   .     A
C891   N936    1.366   .     A
C891   H934    1.082   .     S
C892   N935    1.366   .     A
C892   H920    1.082   .     S
C892   C1115   1.415   .     S
C893   N936    1.366   .     A
C893   H921    1.082   .     S
C894   N935    1.366   .     A
C894   H922    1.082   .     S
C894   C1113   1.415   .     S
C895   O952    1.283   .     A
C895   O955    1.285   .     A
C895   C901    1.432   .     S
C896   O954    1.285   .     A
C896   O953    1.283   .     A
C896   C899    1.431   .     S
C897   C908    1.390   .     A
C897   C899    1.386   .     A
C897   H919    1.081   .     S
C898   C909    1.390   .     A
C898   H927    1.081   .     S
C898   C901    1.387   .     A
C899   C902    1.385   .     A
C900   O950    1.281   .     A
C900   O948    1.281   .     A
C900   C918    1.418   .     S
C901   C903    1.386   .     A
C902   H928    1.080   .     S
C902   C904    1.390   .     A
C903   H929    1.081   .     S
C903   C905    1.390   .     A
C904   C906    1.421   .     A
C904   C910    1.417   .     A
C905   C907    1.420   .     A
C905   C912    1.415   .     A
C906   C908    1.421   .     A
C906   C241    1.388   1_556 S
C907   C909    1.420   .     A
C908   C913    1.417   .     A
C909   C911    1.417   .     A
C910   S957    1.792   .     S
C910   C245    1.409   1_556 S
C911   S959    1.792   .     S
C912   S958    1.791   .     S
C913   S960    1.792   .     S
C913   C246    1.409   1_556 S
C914   H930    1.084   .     S
C914   C1064   1.370   1_455 S
C915   C918    1.397   .     A
C915   H931    1.084   .     S
C915   C991    1.370   .     S
C916   C918    1.397   .     A
C916   H932    1.084   .     S
C916   C988    1.370   .     S
C917   H933    1.084   .     S
C917   C1063   1.370   1_455 S
H923   O939    0.989   .     S
H924   O942    0.991   .     S
H925   O945    0.990   .     S
H926   O949    0.991   .     S
N935   Zn961   2.005   .     S
N936   Zn962   2.005   .     S
O937   Zn961   1.998   .     S
O938   S957    1.503   .     D
O939   S957    1.682   .     S
O940   S958    1.503   .     D
O941   S958    1.503   .     D
O942   S958    1.683   .     S
O943   S959    1.503   .     D
O944   S959    1.504   .     D
O946   S960    1.503   .     D
O947   S960    1.503   .     D
O948   Zn962   1.998   .     S
O949   S960    1.682   .     S
O950   Zn961   1.998   .     S
O951   Zn962   1.998   .     S
O952   Zn961   2.013   .     S
O953   Zn962   2.013   .     S
O954   Zn961   2.011   .     S
O955   Zn962   2.011   .     S
O956   S957    1.504   .     D
S959   O1167   1.681   .     S
C963   O1025   1.281   .     A
C963   C964    1.418   .     S
C963   O1011   1.281   .     A
C964   C988    1.397   .     A
C964   C991    1.397   .     A
C965   N1010   1.366   .     A
C965   H1008   1.082   .     S
C966   N1009   1.366   .     A
C966   H994    1.082   .     S
C966   C1189   1.415   .     S
C967   N1010   1.366   .     A
C967   H995    1.082   .     S
C968   N1009   1.366   .     A
C968   H996    1.082   .     S
C968   C1187   1.415   .     S
C969   O1026   1.283   .     A
C969   O1029   1.285   .     A
C969   C975    1.432   .     S
C970   O1028   1.285   .     A
C970   O1027   1.283   .     A
C970   C973    1.431   .     S
C971   C982    1.390   .     A
C971   C973    1.386   .     A
C971   H993    1.081   .     S
C972   C983    1.390   .     A
C972   H1001   1.081   .     S
C972   C975    1.387   .     A
C973   C976    1.385   .     A
C974   O1024   1.281   .     A
C974   O1022   1.281   .     A
C974   C992    1.418   .     S
C975   C977    1.386   .     A
C976   H1002   1.080   .     S
C976   C978    1.390   .     A
C977   H1003   1.081   .     S
C977   C979    1.390   .     A
C978   C980    1.421   .     A
C978   C984    1.417   .     A
C979   C981    1.420   .     A
C979   C986    1.415   .     A
C980   C982    1.421   .     A
C980   C315    1.388   1_556 S
C981   C983    1.420   .     A
C982   C987    1.417   .     A
C983   C985    1.417   .     A
C984   S1031   1.792   .     S
C984   C319    1.409   1_556 S
C985   S1033   1.792   .     S
C986   S1032   1.791   .     S
C987   S1034   1.792   .     S
C987   C320    1.409   1_556 S
C988   H1004   1.084   .     S
C989   C992    1.397   .     A
C989   H1005   1.084   .     S
C989   C1065   1.370   .     S
C990   C992    1.397   .     A
C990   H1006   1.084   .     S
C990   C1062   1.370   .     S
C991   H1007   1.084   .     S
H997   O1013   0.989   .     S
H998   O1016   0.991   .     S
H999   O1019   0.990   .     S
H1000  O1023   0.991   .     S
N1009  Zn1035  2.005   .     S
N1010  Zn1036  2.005   .     S
O1011  Zn1035  1.998   .     S
O1012  S1031   1.503   .     D
O1013  S1031   1.682   .     S
O1014  S1032   1.503   .     D
O1015  S1032   1.503   .     D
O1016  S1032   1.683   .     S
O1017  S1033   1.503   .     D
O1018  S1033   1.504   .     D
O1020  S1034   1.503   .     D
O1021  S1034   1.503   .     D
O1022  Zn1036  1.998   .     S
O1023  S1034   1.682   .     S
O1024  Zn1035  1.998   .     S
O1025  Zn1036  1.998   .     S
O1026  Zn1035  2.013   .     S
O1027  Zn1036  2.013   .     S
O1028  Zn1035  2.011   .     S
O1029  Zn1036  2.011   .     S
O1030  S1031   1.504   .     D
S1033  O1241   1.681   .     S
C1037  O1099   1.281   .     A
C1037  C1038   1.418   .     S
C1037  O1085   1.281   .     A
C1038  C1062   1.397   .     A
C1038  C1065   1.397   .     A
C1039  N1084   1.366   .     A
C1039  H1082   1.082   .     S
C1040  N1083   1.366   .     A
C1040  H1068   1.082   .     S
C1040  C1263   1.415   .     S
C1041  N1084   1.366   .     A
C1041  H1069   1.082   .     S
C1042  N1083   1.366   .     A
C1042  H1070   1.082   .     S
C1042  C1261   1.415   .     S
C1043  O1100   1.283   .     A
C1043  O1103   1.285   .     A
C1043  C1049   1.432   .     S
C1044  O1102   1.285   .     A
C1044  O1101   1.283   .     A
C1044  C1047   1.431   .     S
C1045  C1056   1.390   .     A
C1045  C1047   1.386   .     A
C1045  H1067   1.081   .     S
C1046  C1057   1.390   .     A
C1046  H1075   1.081   .     S
C1046  C1049   1.387   .     A
C1047  C1050   1.385   .     A
C1048  O1098   1.281   .     A
C1048  O1096   1.281   .     A
C1048  C1066   1.418   .     S
C1049  C1051   1.386   .     A
C1050  H1076   1.080   .     S
C1050  C1052   1.390   .     A
C1051  H1077   1.081   .     S
C1051  C1053   1.390   .     A
C1052  C1054   1.421   .     A
C1052  C1058   1.417   .     A
C1053  C1055   1.420   .     A
C1053  C1060   1.415   .     A
C1054  C1056   1.421   .     A
C1054  C389    1.388   1_556 S
C1055  C1057   1.420   .     A
C1056  C1061   1.417   .     A
C1057  C1059   1.417   .     A
C1058  S1105   1.792   .     S
C1058  C393    1.409   1_556 S
C1059  S1107   1.792   .     S
C1060  S1106   1.791   .     S
C1061  S1108   1.792   .     S
C1061  C394    1.409   1_556 S
C1062  H1078   1.084   .     S
C1063  C1066   1.397   .     A
C1063  H1079   1.084   .     S
C1063  C917    1.370   1_655 S
C1064  C1066   1.397   .     A
C1064  H1080   1.084   .     S
C1064  C914    1.370   1_655 S
C1065  H1081   1.084   .     S
H1071  O1087   0.989   .     S
H1072  O1090   0.991   .     S
H1073  O1093   0.990   .     S
H1074  O1097   0.991   .     S
N1083  Zn1109  2.005   .     S
N1084  Zn1110  2.005   .     S
O1085  Zn1109  1.998   .     S
O1086  S1105   1.503   .     D
O1087  S1105   1.682   .     S
O1088  S1106   1.503   .     D
O1089  S1106   1.503   .     D
O1090  S1106   1.683   .     S
O1091  S1107   1.503   .     D
O1092  S1107   1.504   .     D
O1094  S1108   1.503   .     D
O1095  S1108   1.503   .     D
O1096  Zn1110  1.998   .     S
O1097  S1108   1.682   .     S
O1098  Zn1109  1.998   .     S
O1099  Zn1110  1.998   .     S
O1100  Zn1109  2.013   .     S
O1101  Zn1110  2.013   .     S
O1102  Zn1109  2.011   .     S
O1103  Zn1110  2.011   .     S
O1104  S1105   1.504   .     D
S1107  O1315   1.681   .     S
C1111  O1173   1.281   .     A
C1111  C1112   1.418   .     S
C1111  O1159   1.281   .     A
C1112  C1136   1.397   .     A
C1112  C1139   1.397   .     A
C1113  N1158   1.366   .     A
C1113  H1156   1.082   .     S
C1114  N1157   1.366   .     A
C1114  H1142   1.082   .     S
C1114  C671    1.415   1_565 S
C1115  N1158   1.366   .     A
C1115  H1143   1.082   .     S
C1116  N1157   1.366   .     A
C1116  H1144   1.082   .     S
C1116  C669    1.415   1_565 S
C1117  O1174   1.283   .     A
C1117  O1177   1.285   .     A
C1117  C1123   1.432   .     S
C1118  O1176   1.285   .     A
C1118  O1175   1.283   .     A
C1118  C1121   1.431   .     S
C1119  C1130   1.390   .     A
C1119  C1121   1.386   .     A
C1119  H1141   1.081   .     S
C1120  C1131   1.390   .     A
C1120  H1149   1.081   .     S
C1120  C1123   1.387   .     A
C1121  C1124   1.385   .     A
C1122  O1172   1.281   .     A
C1122  O1170   1.281   .     A
C1122  C1140   1.418   .     S
C1123  C1125   1.386   .     A
C1124  H1150   1.080   .     S
C1124  C1126   1.390   .     A
C1125  H1151   1.081   .     S
C1125  C1127   1.390   .     A
C1126  C1128   1.421   .     A
C1126  C1132   1.417   .     A
C1127  C1129   1.420   .     A
C1127  C1134   1.415   .     A
C1128  C1130   1.421   .     A
C1128  C463    1.388   1_556 S
C1129  C1131   1.420   .     A
C1130  C1135   1.417   .     A
C1131  C1133   1.417   .     A
C1132  S1179   1.792   .     S
C1132  C467    1.409   1_556 S
C1133  S1181   1.792   .     S
C1134  S1180   1.791   .     S
C1135  S1182   1.792   .     S
C1135  C468    1.409   1_556 S
C1136  H1152   1.084   .     S
C1136  C1286   1.370   1_455 S
C1137  C1140   1.397   .     A
C1137  H1153   1.084   .     S
C1137  C1213   1.370   .     S
C1138  C1140   1.397   .     A
C1138  H1154   1.084   .     S
C1138  C1210   1.370   .     S
C1139  H1155   1.084   .     S
C1139  C1285   1.370   1_455 S
H1145  O1161   0.989   .     S
H1146  O1164   0.991   .     S
H1147  O1167   0.990   .     S
H1148  O1171   0.991   .     S
N1157  Zn1183  2.005   .     S
N1158  Zn1184  2.005   .     S
O1159  Zn1183  1.998   .     S
O1160  S1179   1.503   .     D
O1161  S1179   1.682   .     S
O1162  S1180   1.503   .     D
O1163  S1180   1.503   .     D
O1164  S1180   1.683   .     S
O1165  S1181   1.503   .     D
O1166  S1181   1.504   .     D
O1168  S1182   1.503   .     D
O1169  S1182   1.503   .     D
O1170  Zn1184  1.998   .     S
O1171  S1182   1.682   .     S
O1172  Zn1183  1.998   .     S
O1173  Zn1184  1.998   .     S
O1174  Zn1183  2.013   .     S
O1175  Zn1184  2.013   .     S
O1176  Zn1183  2.011   .     S
O1177  Zn1184  2.011   .     S
O1178  S1179   1.504   .     D
S1181  O723    1.681   1_565 S
C1185  O1247   1.281   .     A
C1185  C1186   1.418   .     S
C1185  O1233   1.281   .     A
C1186  C1210   1.397   .     A
C1186  C1213   1.397   .     A
C1187  N1232   1.366   .     A
C1187  H1230   1.082   .     S
C1188  N1231   1.366   .     A
C1188  H1216   1.082   .     S
C1188  C745    1.415   1_565 S
C1189  N1232   1.366   .     A
C1189  H1217   1.082   .     S
C1190  N1231   1.366   .     A
C1190  H1218   1.082   .     S
C1190  C743    1.415   1_565 S
C1191  O1248   1.283   .     A
C1191  O1251   1.285   .     A
C1191  C1197   1.432   .     S
C1192  O1250   1.285   .     A
C1192  O1249   1.283   .     A
C1192  C1195   1.431   .     S
C1193  C1204   1.390   .     A
C1193  C1195   1.386   .     A
C1193  H1215   1.081   .     S
C1194  C1205   1.390   .     A
C1194  H1223   1.081   .     S
C1194  C1197   1.387   .     A
C1195  C1198   1.385   .     A
C1196  O1246   1.281   .     A
C1196  O1244   1.281   .     A
C1196  C1214   1.418   .     S
C1197  C1199   1.386   .     A
C1198  H1224   1.080   .     S
C1198  C1200   1.390   .     A
C1199  H1225   1.081   .     S
C1199  C1201   1.390   .     A
C1200  C1202   1.421   .     A
C1200  C1206   1.417   .     A
C1201  C1203   1.420   .     A
C1201  C1208   1.415   .     A
C1202  C1204   1.421   .     A
C1202  C537    1.388   1_556 S
C1203  C1205   1.420   .     A
C1204  C1209   1.417   .     A
C1205  C1207   1.417   .     A
C1206  S1253   1.792   .     S
C1206  C541    1.409   1_556 S
C1207  S1255   1.792   .     S
C1208  S1254   1.791   .     S
C1209  S1256   1.792   .     S
C1209  C542    1.409   1_556 S
C1210  H1226   1.084   .     S
C1211  C1214   1.397   .     A
C1211  H1227   1.084   .     S
C1211  C1287   1.370   .     S
C1212  C1214   1.397   .     A
C1212  H1228   1.084   .     S
C1212  C1284   1.370   .     S
C1213  H1229   1.084   .     S
H1219  O1235   0.989   .     S
H1220  O1238   0.991   .     S
H1221  O1241   0.990   .     S
H1222  O1245   0.991   .     S
N1231  Zn1257  2.005   .     S
N1232  Zn1258  2.005   .     S
O1233  Zn1257  1.998   .     S
O1234  S1253   1.503   .     D
O1235  S1253   1.682   .     S
O1236  S1254   1.503   .     D
O1237  S1254   1.503   .     D
O1238  S1254   1.683   .     S
O1239  S1255   1.503   .     D
O1240  S1255   1.504   .     D
O1242  S1256   1.503   .     D
O1243  S1256   1.503   .     D
O1244  Zn1258  1.998   .     S
O1245  S1256   1.682   .     S
O1246  Zn1257  1.998   .     S
O1247  Zn1258  1.998   .     S
O1248  Zn1257  2.013   .     S
O1249  Zn1258  2.013   .     S
O1250  Zn1257  2.011   .     S
O1251  Zn1258  2.011   .     S
O1252  S1253   1.504   .     D
S1255  O797    1.681   1_565 S
C1259  O1321   1.281   .     A
C1259  C1260   1.418   .     S
C1259  O1307   1.281   .     A
C1260  C1284   1.397   .     A
C1260  C1287   1.397   .     A
C1261  N1306   1.366   .     A
C1261  H1304   1.082   .     S
C1262  N1305   1.366   .     A
C1262  H1290   1.082   .     S
C1262  C819    1.415   1_565 S
C1263  N1306   1.366   .     A
C1263  H1291   1.082   .     S
C1264  N1305   1.366   .     A
C1264  H1292   1.082   .     S
C1264  C817    1.415   1_565 S
C1265  O1322   1.283   .     A
C1265  O1325   1.285   .     A
C1265  C1271   1.432   .     S
C1266  O1324   1.285   .     A
C1266  O1323   1.283   .     A
C1266  C1269   1.431   .     S
C1267  C1278   1.390   .     A
C1267  C1269   1.386   .     A
C1267  H1289   1.081   .     S
C1268  C1279   1.390   .     A
C1268  H1297   1.081   .     S
C1268  C1271   1.387   .     A
C1269  C1272   1.385   .     A
C1270  O1320   1.281   .     A
C1270  O1318   1.281   .     A
C1270  C1288   1.418   .     S
C1271  C1273   1.386   .     A
C1272  H1298   1.080   .     S
C1272  C1274   1.390   .     A
C1273  H1299   1.081   .     S
C1273  C1275   1.390   .     A
C1274  C1276   1.421   .     A
C1274  C1280   1.417   .     A
C1275  C1277   1.420   .     A
C1275  C1282   1.415   .     A
C1276  C1278   1.421   .     A
C1276  C611    1.388   1_556 S
C1277  C1279   1.420   .     A
C1278  C1283   1.417   .     A
C1279  C1281   1.417   .     A
C1280  S1327   1.792   .     S
C1280  C615    1.409   1_556 S
C1281  S1329   1.792   .     S
C1282  S1328   1.791   .     S
C1283  S1330   1.792   .     S
C1283  C616    1.409   1_556 S
C1284  H1300   1.084   .     S
C1285  C1288   1.397   .     A
C1285  H1301   1.084   .     S
C1285  C1139   1.370   1_655 S
C1286  C1288   1.397   .     A
C1286  H1302   1.084   .     S
C1286  C1136   1.370   1_655 S
C1287  H1303   1.084   .     S
H1293  O1309   0.989   .     S
H1294  O1312   0.991   .     S
H1295  O1315   0.990   .     S
H1296  O1319   0.991   .     S
N1305  Zn1331  2.005   .     S
N1306  Zn1332  2.005   .     S
O1307  Zn1331  1.998   .     S
O1308  S1327   1.503   .     D
O1309  S1327   1.682   .     S
O1310  S1328   1.503   .     D
O1311  S1328   1.503   .     D
O1312  S1328   1.683   .     S
O1313  S1329   1.503   .     D
O1314  S1329   1.504   .     D
O1316  S1330   1.503   .     D
O1317  S1330   1.503   .     D
O1318  Zn1332  1.998   .     S
O1319  S1330   1.682   .     S
O1320  Zn1331  1.998   .     S
O1321  Zn1332  1.998   .     S
O1322  Zn1331  2.013   .     S
O1323  Zn1332  2.013   .     S
O1324  Zn1331  2.011   .     S
O1325  Zn1332  2.011   .     S
O1326  S1327   1.504   .     D
S1329  O871    1.681   1_565 S
