data_str_m3_o1_o18_pcu_sym.146
_audit_creation_date              2020-01-03
_audit_creation_method            'Materials Studio'
_symmetry_space_group_name_H-M    'P1'
_symmetry_Int_Tables_number       1
_symmetry_cell_setting            triclinic
loop_
_symmetry_equiv_pos_as_xyz
  x,y,z
_cell_length_a                    29.6996
_cell_length_b                    31.8494
_cell_length_c                    30.8804
_cell_angle_alpha                 91.3696
_cell_angle_beta                  68.5254
_cell_angle_gamma                 91.3407
loop_
_atom_site_label
_atom_site_type_symbol
_atom_site_fract_x
_atom_site_fract_y
_atom_site_fract_z
_atom_site_U_iso_or_equiv
_atom_site_adp_type
_atom_site_occupancy
C1     C     0.16754   0.24646   0.24898   0.00000  Uiso   1.00
C2     C     0.16601   0.08679   0.25028   0.00000  Uiso   1.00
C3     C     0.12400   0.11805   0.04166   0.00000  Uiso   1.00
C4     C     0.22876   0.15709   0.44354   0.00000  Uiso   1.00
C5     C     0.09216   0.10745   0.01920   0.00000  Uiso   1.00
C6     C     0.26327   0.16167   0.46431   0.00000  Uiso   1.00
C7     C     0.20046   0.31201   0.21064   0.00000  Uiso   1.00
C8     C     0.13145   0.02083   0.28668   0.00000  Uiso   1.00
C9     C     0.19895   0.02205   0.21139   0.00000  Uiso   1.00
C10    C     0.13409   0.31103   0.28662   0.00000  Uiso   1.00
C11    C     0.16510   0.04259   0.24950   0.00000  Uiso   1.00
C12    C     0.16835   0.29055   0.24900   0.00000  Uiso   1.00
C13    C     0.31684   0.13560   0.22746   0.00000  Uiso   1.00
C14    C     0.01681   0.19805   0.27186   0.00000  Uiso   1.00
C15    C     0.03133   0.13462   0.22835   0.00000  Uiso   1.00
C16    C     0.30177   0.19815   0.27253   0.00000  Uiso   1.00
C17    C     0.13641   0.16572   0.33785   0.00000  Uiso   1.00
C18    C     0.19676   0.16776   0.16187   0.00000  Uiso   1.00
C19    C     0.11776   0.15732   0.38758   0.00000  Uiso   1.00
C20    C     0.21514   0.16779   0.11066   0.00000  Uiso   1.00
C21    C     0.06852   0.11393   0.45150   0.00000  Uiso   1.00
C22    C     0.28162   0.16856   0.03563   0.00000  Uiso   1.00
C23    C     0.07850   0.12959   0.40712   0.00000  Uiso   1.00
C24    C     0.26518   0.16924   0.08423   0.00000  Uiso   1.00
C25    C     0.14512   0.17122   0.41364   0.00000  Uiso   1.00
C26    C     0.18223   0.16510   0.08726   0.00000  Uiso   1.00
C27    C     0.14266   0.14780   0.45247   0.00000  Uiso   1.00
C28    C     0.19933   0.15415   0.04001   0.00000  Uiso   1.00
C29    C     0.10067   0.12276   0.47464   0.00000  Uiso   1.00
C30    C     0.24874   0.16117   0.01299   0.00000  Uiso   1.00
C31    C     0.17947   0.14986   0.47108   0.00000  Uiso   1.00
C32    C     0.16699   0.14126   0.01832   0.00000  Uiso   1.00
N33    N     0.04759   0.16668   0.25001   0.00000  Uiso   1.00
N34    N     0.28574   0.16666   0.24999   0.00000  Uiso   1.00
O35    O     0.12846   0.22775   0.25000   0.00000  Uiso   1.00
O36    O     0.20488   0.10558   0.24999   0.00000  Uiso   1.00
O37    O     0.20490   0.22774   0.25000   0.00000  Uiso   1.00
O38    O     0.12843   0.10559   0.25000   0.00000  Uiso   1.00
O39    O     0.10661   0.16667   0.31612   0.00000  Uiso   1.00
O40    O     0.22672   0.16666   0.18388   0.00000  Uiso   1.00
O41    O     0.18305   0.16666   0.31612   0.00000  Uiso   1.00
O42    O     0.15028   0.16667   0.18388   0.00000  Uiso   1.00
Zn43   Zn    0.11562   0.16667   0.25000   0.00000  Uiso   1.00
Zn44   Zn    0.21771   0.16666   0.25000   0.00000  Uiso   1.00
F45    F     0.05250   0.08334   0.04178   0.00000  Uiso   1.00
F46    F     0.31009   0.16905   0.43685   0.00000  Uiso   1.00
N47    N     0.13462   0.18189   0.10703   0.00000  Uiso   1.00
H48    H     0.10898   0.16519   0.13288   0.00000  Uiso   1.00
C49    C     0.13220   0.22707   0.11314   0.00000  Uiso   1.00
H50    H     0.09396   0.23692   0.12414   0.00000  Uiso   1.00
H51    H     0.15334   0.24255   0.07977   0.00000  Uiso   1.00
H52    H     0.14659   0.23746   0.14022   0.00000  Uiso   1.00
N53    N     0.16832   0.21180   0.40503   0.00000  Uiso   1.00
H54    H     0.18942   0.21949   0.42413   0.00000  Uiso   1.00
C55    C     0.13603   0.24605   0.40757   0.00000  Uiso   1.00
H56    H     0.15621   0.27644   0.40200   0.00000  Uiso   1.00
H57    H     0.10658   0.24723   0.44245   0.00000  Uiso   1.00
H58    H     0.12003   0.24236   0.38041   0.00000  Uiso   1.00
F59    F     0.29814   0.17378   0.10507   0.00000  Uiso   1.00
F60    F     0.04991   0.11774   0.38330   0.00000  Uiso   1.00
F61    F     0.02900   0.08865   0.47047   0.00000  Uiso   1.00
F62    F     0.32949   0.17495   0.01118   0.00000  Uiso   1.00
F63    F     0.11539   0.10149   0.08412   0.00000  Uiso   1.00
F64    F     0.24408   0.15653   0.39636   0.00000  Uiso   1.00
N65    N     0.23016   0.28995   0.16986   0.00000  Uiso   1.00
H66    H     0.22647   0.30042   0.13999   0.00000  Uiso   1.00
C67    C     0.28043   0.28716   0.16456   0.00000  Uiso   1.00
H68    H     0.29745   0.31896   0.16131   0.00000  Uiso   1.00
H69    H     0.30016   0.26844   0.13269   0.00000  Uiso   1.00
H70    H     0.28373   0.27115   0.19464   0.00000  Uiso   1.00
N71    N     0.09575   0.04208   0.32432   0.00000  Uiso   1.00
H72    H     0.09444   0.03232   0.35639   0.00000  Uiso   1.00
C73    C     0.04827   0.04113   0.32116   0.00000  Uiso   1.00
H74    H     0.03647   0.00835   0.31720   0.00000  Uiso   1.00
H75    H     0.04877   0.05986   0.29125   0.00000  Uiso   1.00
H76    H     0.02126   0.05482   0.35325   0.00000  Uiso   1.00
F77    F     0.22926   0.04416   0.17473   0.00000  Uiso   1.00
F78    F     0.10257   0.28894   0.32257   0.00000  Uiso   1.00
F79    F     0.30197   0.10660   0.20254   0.00000  Uiso   1.00
F80    F     0.03348   0.22957   0.29239   0.00000  Uiso   1.00
N81    N     0.06323   0.10115   0.20627   0.00000  Uiso   1.00
H82    H     0.09605   0.10912   0.18140   0.00000  Uiso   1.00
C83    C     0.04483   0.05950   0.20145   0.00000  Uiso   1.00
H84    H     0.07258   0.03606   0.19965   0.00000  Uiso   1.00
H85    H     0.03738   0.05700   0.16876   0.00000  Uiso   1.00
H86    H     0.01161   0.05197   0.23188   0.00000  Uiso   1.00
N87    N     0.27096   0.23262   0.29287   0.00000  Uiso   1.00
H88    H     0.27293   0.25529   0.26906   0.00000  Uiso   1.00
C89    C     0.27121   0.25093   0.33615   0.00000  Uiso   1.00
H90    H     0.30095   0.27457   0.32944   0.00000  Uiso   1.00
H91    H     0.27453   0.22642   0.35967   0.00000  Uiso   1.00
H92    H     0.23707   0.26793   0.35355   0.00000  Uiso   1.00
C93    C     0.50087   0.24646   0.24898   0.00000  Uiso   1.00
C94    C     0.49934   0.08679   0.25028   0.00000  Uiso   1.00
C95    C     0.45733   0.11805   0.04166   0.00000  Uiso   1.00
C96    C     0.56209   0.15709   0.44354   0.00000  Uiso   1.00
C97    C     0.42549   0.10745   0.01920   0.00000  Uiso   1.00
C98    C     0.59660   0.16167   0.46431   0.00000  Uiso   1.00
C99    C     0.53380   0.31201   0.21064   0.00000  Uiso   1.00
C100   C     0.46478   0.02083   0.28668   0.00000  Uiso   1.00
C101   C     0.53228   0.02205   0.21139   0.00000  Uiso   1.00
C102   C     0.46742   0.31103   0.28662   0.00000  Uiso   1.00
C103   C     0.49844   0.04259   0.24950   0.00000  Uiso   1.00
C104   C     0.50169   0.29055   0.24900   0.00000  Uiso   1.00
C105   C     0.65018   0.13560   0.22746   0.00000  Uiso   1.00
C106   C     0.35014   0.19805   0.27186   0.00000  Uiso   1.00
C107   C     0.36466   0.13462   0.22835   0.00000  Uiso   1.00
C108   C     0.63510   0.19815   0.27253   0.00000  Uiso   1.00
C109   C     0.46974   0.16572   0.33785   0.00000  Uiso   1.00
C110   C     0.53010   0.16776   0.16187   0.00000  Uiso   1.00
C111   C     0.45110   0.15732   0.38758   0.00000  Uiso   1.00
C112   C     0.54847   0.16779   0.11066   0.00000  Uiso   1.00
C113   C     0.40186   0.11393   0.45150   0.00000  Uiso   1.00
C114   C     0.61496   0.16856   0.03563   0.00000  Uiso   1.00
C115   C     0.41184   0.12959   0.40712   0.00000  Uiso   1.00
C116   C     0.59851   0.16924   0.08423   0.00000  Uiso   1.00
C117   C     0.47845   0.17122   0.41364   0.00000  Uiso   1.00
C118   C     0.51556   0.16510   0.08726   0.00000  Uiso   1.00
C119   C     0.47599   0.14780   0.45247   0.00000  Uiso   1.00
C120   C     0.53267   0.15415   0.04001   0.00000  Uiso   1.00
C121   C     0.43400   0.12276   0.47464   0.00000  Uiso   1.00
C122   C     0.58208   0.16117   0.01299   0.00000  Uiso   1.00
C123   C     0.51280   0.14986   0.47108   0.00000  Uiso   1.00
C124   C     0.50033   0.14126   0.01832   0.00000  Uiso   1.00
N125   N     0.38093   0.16668   0.25001   0.00000  Uiso   1.00
N126   N     0.61907   0.16666   0.24999   0.00000  Uiso   1.00
O127   O     0.46179   0.22775   0.25000   0.00000  Uiso   1.00
O128   O     0.53821   0.10558   0.24999   0.00000  Uiso   1.00
O129   O     0.53823   0.22774   0.25000   0.00000  Uiso   1.00
O130   O     0.46177   0.10559   0.25000   0.00000  Uiso   1.00
O131   O     0.43994   0.16667   0.31612   0.00000  Uiso   1.00
O132   O     0.56006   0.16666   0.18388   0.00000  Uiso   1.00
O133   O     0.51639   0.16666   0.31612   0.00000  Uiso   1.00
O134   O     0.48361   0.16667   0.18388   0.00000  Uiso   1.00
Zn135  Zn    0.44896   0.16667   0.25000   0.00000  Uiso   1.00
Zn136  Zn    0.55104   0.16666   0.25000   0.00000  Uiso   1.00
F137   F     0.38583   0.08334   0.04178   0.00000  Uiso   1.00
F138   F     0.64342   0.16905   0.43685   0.00000  Uiso   1.00
N139   N     0.46795   0.18189   0.10703   0.00000  Uiso   1.00
H140   H     0.44232   0.16519   0.13288   0.00000  Uiso   1.00
C141   C     0.46553   0.22707   0.11314   0.00000  Uiso   1.00
H142   H     0.42729   0.23692   0.12414   0.00000  Uiso   1.00
H143   H     0.48667   0.24255   0.07977   0.00000  Uiso   1.00
H144   H     0.47992   0.23746   0.14022   0.00000  Uiso   1.00
N145   N     0.50165   0.21180   0.40503   0.00000  Uiso   1.00
H146   H     0.52275   0.21949   0.42413   0.00000  Uiso   1.00
C147   C     0.46936   0.24605   0.40757   0.00000  Uiso   1.00
H148   H     0.48954   0.27644   0.40200   0.00000  Uiso   1.00
H149   H     0.43992   0.24723   0.44245   0.00000  Uiso   1.00
H150   H     0.45337   0.24236   0.38041   0.00000  Uiso   1.00
F151   F     0.63148   0.17378   0.10507   0.00000  Uiso   1.00
F152   F     0.38324   0.11774   0.38330   0.00000  Uiso   1.00
F153   F     0.36233   0.08865   0.47047   0.00000  Uiso   1.00
F154   F     0.66282   0.17495   0.01118   0.00000  Uiso   1.00
F155   F     0.44873   0.10149   0.08412   0.00000  Uiso   1.00
F156   F     0.57741   0.15653   0.39636   0.00000  Uiso   1.00
N157   N     0.56349   0.28995   0.16986   0.00000  Uiso   1.00
H158   H     0.55980   0.30042   0.13999   0.00000  Uiso   1.00
C159   C     0.61376   0.28716   0.16456   0.00000  Uiso   1.00
H160   H     0.63078   0.31896   0.16131   0.00000  Uiso   1.00
H161   H     0.63349   0.26844   0.13269   0.00000  Uiso   1.00
H162   H     0.61706   0.27115   0.19464   0.00000  Uiso   1.00
N163   N     0.42909   0.04208   0.32432   0.00000  Uiso   1.00
H164   H     0.42777   0.03232   0.35639   0.00000  Uiso   1.00
C165   C     0.38160   0.04113   0.32116   0.00000  Uiso   1.00
H166   H     0.36980   0.00835   0.31720   0.00000  Uiso   1.00
H167   H     0.38210   0.05986   0.29125   0.00000  Uiso   1.00
H168   H     0.35459   0.05482   0.35325   0.00000  Uiso   1.00
F169   F     0.56259   0.04416   0.17473   0.00000  Uiso   1.00
F170   F     0.43591   0.28894   0.32257   0.00000  Uiso   1.00
F171   F     0.63530   0.10660   0.20254   0.00000  Uiso   1.00
F172   F     0.36681   0.22957   0.29239   0.00000  Uiso   1.00
N173   N     0.39657   0.10115   0.20627   0.00000  Uiso   1.00
H174   H     0.42939   0.10912   0.18140   0.00000  Uiso   1.00
C175   C     0.37816   0.05950   0.20145   0.00000  Uiso   1.00
H176   H     0.40591   0.03606   0.19965   0.00000  Uiso   1.00
H177   H     0.37072   0.05700   0.16876   0.00000  Uiso   1.00
H178   H     0.34495   0.05197   0.23188   0.00000  Uiso   1.00
N179   N     0.60429   0.23262   0.29287   0.00000  Uiso   1.00
H180   H     0.60626   0.25529   0.26906   0.00000  Uiso   1.00
C181   C     0.60454   0.25093   0.33615   0.00000  Uiso   1.00
H182   H     0.63429   0.27457   0.32944   0.00000  Uiso   1.00
H183   H     0.60786   0.22642   0.35967   0.00000  Uiso   1.00
H184   H     0.57040   0.26793   0.35355   0.00000  Uiso   1.00
C185   C     0.83420   0.24646   0.24898   0.00000  Uiso   1.00
C186   C     0.83268   0.08679   0.25028   0.00000  Uiso   1.00
C187   C     0.79066   0.11805   0.04166   0.00000  Uiso   1.00
C188   C     0.89543   0.15709   0.44354   0.00000  Uiso   1.00
C189   C     0.75883   0.10745   0.01920   0.00000  Uiso   1.00
C190   C     0.92994   0.16167   0.46431   0.00000  Uiso   1.00
C191   C     0.86713   0.31201   0.21064   0.00000  Uiso   1.00
C192   C     0.79812   0.02083   0.28668   0.00000  Uiso   1.00
C193   C     0.86561   0.02205   0.21139   0.00000  Uiso   1.00
C194   C     0.80075   0.31103   0.28662   0.00000  Uiso   1.00
C195   C     0.83177   0.04259   0.24950   0.00000  Uiso   1.00
C196   C     0.83502   0.29055   0.24900   0.00000  Uiso   1.00
C197   C     0.98351   0.13560   0.22746   0.00000  Uiso   1.00
C198   C     0.68347   0.19805   0.27186   0.00000  Uiso   1.00
C199   C     0.69799   0.13462   0.22835   0.00000  Uiso   1.00
C200   C     0.96844   0.19815   0.27253   0.00000  Uiso   1.00
C201   C     0.80308   0.16572   0.33785   0.00000  Uiso   1.00
C202   C     0.86343   0.16776   0.16187   0.00000  Uiso   1.00
C203   C     0.78443   0.15732   0.38758   0.00000  Uiso   1.00
C204   C     0.88180   0.16779   0.11066   0.00000  Uiso   1.00
C205   C     0.73519   0.11393   0.45150   0.00000  Uiso   1.00
C206   C     0.94829   0.16856   0.03563   0.00000  Uiso   1.00
C207   C     0.74517   0.12959   0.40712   0.00000  Uiso   1.00
C208   C     0.93185   0.16924   0.08423   0.00000  Uiso   1.00
C209   C     0.81178   0.17122   0.41364   0.00000  Uiso   1.00
C210   C     0.84890   0.16510   0.08726   0.00000  Uiso   1.00
C211   C     0.80933   0.14780   0.45247   0.00000  Uiso   1.00
C212   C     0.86600   0.15415   0.04001   0.00000  Uiso   1.00
C213   C     0.76734   0.12276   0.47464   0.00000  Uiso   1.00
C214   C     0.91541   0.16117   0.01299   0.00000  Uiso   1.00
C215   C     0.84614   0.14986   0.47108   0.00000  Uiso   1.00
C216   C     0.83366   0.14126   0.01832   0.00000  Uiso   1.00
N217   N     0.71426   0.16668   0.25001   0.00000  Uiso   1.00
N218   N     0.95241   0.16666   0.24999   0.00000  Uiso   1.00
O219   O     0.79512   0.22775   0.25000   0.00000  Uiso   1.00
O220   O     0.87154   0.10558   0.24999   0.00000  Uiso   1.00
O221   O     0.87157   0.22774   0.25000   0.00000  Uiso   1.00
O222   O     0.79510   0.10559   0.25000   0.00000  Uiso   1.00
O223   O     0.77328   0.16667   0.31612   0.00000  Uiso   1.00
O224   O     0.89339   0.16666   0.18388   0.00000  Uiso   1.00
O225   O     0.84972   0.16666   0.31612   0.00000  Uiso   1.00
O226   O     0.81695   0.16667   0.18388   0.00000  Uiso   1.00
Zn227  Zn    0.78229   0.16667   0.25000   0.00000  Uiso   1.00
Zn228  Zn    0.88438   0.16666   0.25000   0.00000  Uiso   1.00
F229   F     0.71917   0.08334   0.04178   0.00000  Uiso   1.00
F230   F     0.97675   0.16905   0.43685   0.00000  Uiso   1.00
N231   N     0.80128   0.18189   0.10703   0.00000  Uiso   1.00
H232   H     0.77565   0.16519   0.13288   0.00000  Uiso   1.00
C233   C     0.79887   0.22707   0.11314   0.00000  Uiso   1.00
H234   H     0.76062   0.23692   0.12414   0.00000  Uiso   1.00
H235   H     0.82000   0.24255   0.07977   0.00000  Uiso   1.00
H236   H     0.81326   0.23746   0.14022   0.00000  Uiso   1.00
N237   N     0.83499   0.21180   0.40503   0.00000  Uiso   1.00
H238   H     0.85609   0.21949   0.42413   0.00000  Uiso   1.00
C239   C     0.80269   0.24605   0.40757   0.00000  Uiso   1.00
H240   H     0.82288   0.27644   0.40200   0.00000  Uiso   1.00
H241   H     0.77325   0.24723   0.44245   0.00000  Uiso   1.00
H242   H     0.78670   0.24236   0.38041   0.00000  Uiso   1.00
F243   F     0.96481   0.17378   0.10507   0.00000  Uiso   1.00
F244   F     0.71657   0.11774   0.38330   0.00000  Uiso   1.00
F245   F     0.69566   0.08865   0.47047   0.00000  Uiso   1.00
F246   F     0.99616   0.17495   0.01118   0.00000  Uiso   1.00
F247   F     0.78206   0.10149   0.08412   0.00000  Uiso   1.00
F248   F     0.91074   0.15653   0.39636   0.00000  Uiso   1.00
N249   N     0.89682   0.28995   0.16986   0.00000  Uiso   1.00
H250   H     0.89313   0.30042   0.13999   0.00000  Uiso   1.00
C251   C     0.94709   0.28716   0.16456   0.00000  Uiso   1.00
H252   H     0.96411   0.31896   0.16131   0.00000  Uiso   1.00
H253   H     0.96683   0.26844   0.13269   0.00000  Uiso   1.00
H254   H     0.95039   0.27115   0.19464   0.00000  Uiso   1.00
N255   N     0.76242   0.04208   0.32432   0.00000  Uiso   1.00
H256   H     0.76111   0.03232   0.35639   0.00000  Uiso   1.00
C257   C     0.71493   0.04113   0.32116   0.00000  Uiso   1.00
H258   H     0.70314   0.00835   0.31720   0.00000  Uiso   1.00
H259   H     0.71543   0.05986   0.29125   0.00000  Uiso   1.00
H260   H     0.68793   0.05482   0.35325   0.00000  Uiso   1.00
F261   F     0.89592   0.04416   0.17473   0.00000  Uiso   1.00
F262   F     0.76924   0.28894   0.32257   0.00000  Uiso   1.00
F263   F     0.96864   0.10660   0.20254   0.00000  Uiso   1.00
F264   F     0.70014   0.22957   0.29239   0.00000  Uiso   1.00
N265   N     0.72990   0.10115   0.20627   0.00000  Uiso   1.00
H266   H     0.76272   0.10912   0.18140   0.00000  Uiso   1.00
C267   C     0.71150   0.05950   0.20145   0.00000  Uiso   1.00
H268   H     0.73924   0.03606   0.19965   0.00000  Uiso   1.00
H269   H     0.70405   0.05700   0.16876   0.00000  Uiso   1.00
H270   H     0.67828   0.05197   0.23188   0.00000  Uiso   1.00
N271   N     0.93762   0.23262   0.29287   0.00000  Uiso   1.00
H272   H     0.93959   0.25529   0.26906   0.00000  Uiso   1.00
C273   C     0.93788   0.25093   0.33615   0.00000  Uiso   1.00
H274   H     0.96762   0.27457   0.32944   0.00000  Uiso   1.00
H275   H     0.94120   0.22642   0.35967   0.00000  Uiso   1.00
H276   H     0.90373   0.26793   0.35355   0.00000  Uiso   1.00
C277   C     0.16754   0.57979   0.24898   0.00000  Uiso   1.00
C278   C     0.16601   0.42012   0.25028   0.00000  Uiso   1.00
C279   C     0.12400   0.45138   0.04166   0.00000  Uiso   1.00
C280   C     0.22876   0.49043   0.44354   0.00000  Uiso   1.00
C281   C     0.09216   0.44078   0.01920   0.00000  Uiso   1.00
C282   C     0.26327   0.49500   0.46431   0.00000  Uiso   1.00
C283   C     0.20046   0.64534   0.21064   0.00000  Uiso   1.00
C284   C     0.13145   0.35417   0.28668   0.00000  Uiso   1.00
C285   C     0.19895   0.35538   0.21139   0.00000  Uiso   1.00
C286   C     0.13409   0.64436   0.28662   0.00000  Uiso   1.00
C287   C     0.16510   0.37592   0.24950   0.00000  Uiso   1.00
C288   C     0.16835   0.62388   0.24900   0.00000  Uiso   1.00
C289   C     0.31684   0.46893   0.22746   0.00000  Uiso   1.00
C290   C     0.01681   0.53138   0.27186   0.00000  Uiso   1.00
C291   C     0.03133   0.46796   0.22835   0.00000  Uiso   1.00
C292   C     0.30177   0.53148   0.27253   0.00000  Uiso   1.00
C293   C     0.13641   0.49905   0.33785   0.00000  Uiso   1.00
C294   C     0.19676   0.50109   0.16187   0.00000  Uiso   1.00
C295   C     0.11776   0.49066   0.38758   0.00000  Uiso   1.00
C296   C     0.21514   0.50112   0.11066   0.00000  Uiso   1.00
C297   C     0.06852   0.44726   0.45150   0.00000  Uiso   1.00
C298   C     0.28162   0.50190   0.03563   0.00000  Uiso   1.00
C299   C     0.07850   0.46293   0.40712   0.00000  Uiso   1.00
C300   C     0.26518   0.50258   0.08423   0.00000  Uiso   1.00
C301   C     0.14512   0.50456   0.41364   0.00000  Uiso   1.00
C302   C     0.18223   0.49843   0.08726   0.00000  Uiso   1.00
C303   C     0.14266   0.48113   0.45247   0.00000  Uiso   1.00
C304   C     0.19933   0.48749   0.04001   0.00000  Uiso   1.00
C305   C     0.10067   0.45610   0.47464   0.00000  Uiso   1.00
C306   C     0.24874   0.49451   0.01299   0.00000  Uiso   1.00
C307   C     0.17947   0.48320   0.47108   0.00000  Uiso   1.00
C308   C     0.16699   0.47459   0.01832   0.00000  Uiso   1.00
N309   N     0.04759   0.50001   0.25001   0.00000  Uiso   1.00
N310   N     0.28574   0.49999   0.24999   0.00000  Uiso   1.00
O311   O     0.12846   0.56108   0.25000   0.00000  Uiso   1.00
O312   O     0.20488   0.43892   0.24999   0.00000  Uiso   1.00
O313   O     0.20490   0.56107   0.25000   0.00000  Uiso   1.00
O314   O     0.12843   0.43893   0.25000   0.00000  Uiso   1.00
O315   O     0.10661   0.50001   0.31612   0.00000  Uiso   1.00
O316   O     0.22672   0.49999   0.18388   0.00000  Uiso   1.00
O317   O     0.18305   0.50000   0.31612   0.00000  Uiso   1.00
O318   O     0.15028   0.50000   0.18388   0.00000  Uiso   1.00
Zn319  Zn    0.11562   0.50001   0.25000   0.00000  Uiso   1.00
Zn320  Zn    0.21771   0.49999   0.25000   0.00000  Uiso   1.00
F321   F     0.05250   0.41668   0.04178   0.00000  Uiso   1.00
F322   F     0.31009   0.50238   0.43685   0.00000  Uiso   1.00
N323   N     0.13462   0.51522   0.10703   0.00000  Uiso   1.00
H324   H     0.10898   0.49853   0.13288   0.00000  Uiso   1.00
C325   C     0.13220   0.56040   0.11314   0.00000  Uiso   1.00
H326   H     0.09396   0.57026   0.12414   0.00000  Uiso   1.00
H327   H     0.15334   0.57588   0.07977   0.00000  Uiso   1.00
H328   H     0.14659   0.57080   0.14022   0.00000  Uiso   1.00
N329   N     0.16832   0.54514   0.40503   0.00000  Uiso   1.00
H330   H     0.18942   0.55283   0.42413   0.00000  Uiso   1.00
C331   C     0.13603   0.57938   0.40757   0.00000  Uiso   1.00
H332   H     0.15621   0.60978   0.40200   0.00000  Uiso   1.00
H333   H     0.10658   0.58056   0.44245   0.00000  Uiso   1.00
H334   H     0.12003   0.57570   0.38041   0.00000  Uiso   1.00
F335   F     0.29814   0.50712   0.10507   0.00000  Uiso   1.00
F336   F     0.04991   0.45107   0.38330   0.00000  Uiso   1.00
F337   F     0.02900   0.42198   0.47047   0.00000  Uiso   1.00
F338   F     0.32949   0.50828   0.01118   0.00000  Uiso   1.00
F339   F     0.11539   0.43483   0.08412   0.00000  Uiso   1.00
F340   F     0.24408   0.48986   0.39636   0.00000  Uiso   1.00
N341   N     0.23016   0.62329   0.16986   0.00000  Uiso   1.00
H342   H     0.22647   0.63375   0.13999   0.00000  Uiso   1.00
C343   C     0.28043   0.62049   0.16456   0.00000  Uiso   1.00
H344   H     0.29745   0.65229   0.16131   0.00000  Uiso   1.00
H345   H     0.30016   0.60177   0.13269   0.00000  Uiso   1.00
H346   H     0.28373   0.60449   0.19464   0.00000  Uiso   1.00
N347   N     0.09575   0.37541   0.32432   0.00000  Uiso   1.00
H348   H     0.09444   0.36566   0.35639   0.00000  Uiso   1.00
C349   C     0.04827   0.37447   0.32116   0.00000  Uiso   1.00
H350   H     0.03647   0.34169   0.31720   0.00000  Uiso   1.00
H351   H     0.04877   0.39319   0.29125   0.00000  Uiso   1.00
H352   H     0.02126   0.38816   0.35325   0.00000  Uiso   1.00
F353   F     0.22926   0.37749   0.17473   0.00000  Uiso   1.00
F354   F     0.10257   0.62227   0.32257   0.00000  Uiso   1.00
F355   F     0.30197   0.43994   0.20254   0.00000  Uiso   1.00
F356   F     0.03348   0.56291   0.29239   0.00000  Uiso   1.00
N357   N     0.06323   0.43448   0.20627   0.00000  Uiso   1.00
H358   H     0.09605   0.44246   0.18140   0.00000  Uiso   1.00
C359   C     0.04483   0.39284   0.20145   0.00000  Uiso   1.00
H360   H     0.07258   0.36939   0.19965   0.00000  Uiso   1.00
H361   H     0.03738   0.39033   0.16876   0.00000  Uiso   1.00
H362   H     0.01161   0.38530   0.23188   0.00000  Uiso   1.00
N363   N     0.27096   0.56596   0.29287   0.00000  Uiso   1.00
H364   H     0.27293   0.58863   0.26906   0.00000  Uiso   1.00
C365   C     0.27121   0.58427   0.33615   0.00000  Uiso   1.00
H366   H     0.30095   0.60790   0.32944   0.00000  Uiso   1.00
H367   H     0.27453   0.55975   0.35967   0.00000  Uiso   1.00
H368   H     0.23707   0.60126   0.35355   0.00000  Uiso   1.00
C369   C     0.50087   0.57979   0.24898   0.00000  Uiso   1.00
C370   C     0.49934   0.42012   0.25028   0.00000  Uiso   1.00
C371   C     0.45733   0.45138   0.04166   0.00000  Uiso   1.00
C372   C     0.56209   0.49043   0.44354   0.00000  Uiso   1.00
C373   C     0.42549   0.44078   0.01920   0.00000  Uiso   1.00
C374   C     0.59660   0.49500   0.46431   0.00000  Uiso   1.00
C375   C     0.53380   0.64534   0.21064   0.00000  Uiso   1.00
C376   C     0.46478   0.35417   0.28668   0.00000  Uiso   1.00
C377   C     0.53228   0.35538   0.21139   0.00000  Uiso   1.00
C378   C     0.46742   0.64436   0.28662   0.00000  Uiso   1.00
C379   C     0.49844   0.37592   0.24950   0.00000  Uiso   1.00
C380   C     0.50169   0.62388   0.24900   0.00000  Uiso   1.00
C381   C     0.65018   0.46893   0.22746   0.00000  Uiso   1.00
C382   C     0.35014   0.53138   0.27186   0.00000  Uiso   1.00
C383   C     0.36466   0.46796   0.22835   0.00000  Uiso   1.00
C384   C     0.63510   0.53148   0.27253   0.00000  Uiso   1.00
C385   C     0.46974   0.49905   0.33785   0.00000  Uiso   1.00
C386   C     0.53010   0.50109   0.16187   0.00000  Uiso   1.00
C387   C     0.45110   0.49066   0.38758   0.00000  Uiso   1.00
C388   C     0.54847   0.50112   0.11066   0.00000  Uiso   1.00
C389   C     0.40186   0.44726   0.45150   0.00000  Uiso   1.00
C390   C     0.61496   0.50190   0.03563   0.00000  Uiso   1.00
C391   C     0.41184   0.46293   0.40712   0.00000  Uiso   1.00
C392   C     0.59851   0.50258   0.08423   0.00000  Uiso   1.00
C393   C     0.47845   0.50456   0.41364   0.00000  Uiso   1.00
C394   C     0.51556   0.49843   0.08726   0.00000  Uiso   1.00
C395   C     0.47599   0.48113   0.45247   0.00000  Uiso   1.00
C396   C     0.53267   0.48749   0.04001   0.00000  Uiso   1.00
C397   C     0.43400   0.45610   0.47464   0.00000  Uiso   1.00
C398   C     0.58208   0.49451   0.01299   0.00000  Uiso   1.00
C399   C     0.51280   0.48320   0.47108   0.00000  Uiso   1.00
C400   C     0.50033   0.47459   0.01832   0.00000  Uiso   1.00
N401   N     0.38093   0.50001   0.25001   0.00000  Uiso   1.00
N402   N     0.61907   0.49999   0.24999   0.00000  Uiso   1.00
O403   O     0.46179   0.56108   0.25000   0.00000  Uiso   1.00
O404   O     0.53821   0.43892   0.24999   0.00000  Uiso   1.00
O405   O     0.53823   0.56107   0.25000   0.00000  Uiso   1.00
O406   O     0.46177   0.43893   0.25000   0.00000  Uiso   1.00
O407   O     0.43994   0.50001   0.31612   0.00000  Uiso   1.00
O408   O     0.56006   0.49999   0.18388   0.00000  Uiso   1.00
O409   O     0.51639   0.50000   0.31612   0.00000  Uiso   1.00
O410   O     0.48361   0.50000   0.18388   0.00000  Uiso   1.00
Zn411  Zn    0.44896   0.50001   0.25000   0.00000  Uiso   1.00
Zn412  Zn    0.55104   0.49999   0.25000   0.00000  Uiso   1.00
F413   F     0.38583   0.41668   0.04178   0.00000  Uiso   1.00
F414   F     0.64342   0.50238   0.43685   0.00000  Uiso   1.00
N415   N     0.46795   0.51522   0.10703   0.00000  Uiso   1.00
H416   H     0.44232   0.49853   0.13288   0.00000  Uiso   1.00
C417   C     0.46553   0.56040   0.11314   0.00000  Uiso   1.00
H418   H     0.42729   0.57026   0.12414   0.00000  Uiso   1.00
H419   H     0.48667   0.57588   0.07977   0.00000  Uiso   1.00
H420   H     0.47992   0.57080   0.14022   0.00000  Uiso   1.00
N421   N     0.50165   0.54514   0.40503   0.00000  Uiso   1.00
H422   H     0.52275   0.55283   0.42413   0.00000  Uiso   1.00
C423   C     0.46936   0.57938   0.40757   0.00000  Uiso   1.00
H424   H     0.48954   0.60978   0.40200   0.00000  Uiso   1.00
H425   H     0.43992   0.58056   0.44245   0.00000  Uiso   1.00
H426   H     0.45337   0.57570   0.38041   0.00000  Uiso   1.00
F427   F     0.63148   0.50712   0.10507   0.00000  Uiso   1.00
F428   F     0.38324   0.45107   0.38330   0.00000  Uiso   1.00
F429   F     0.36233   0.42198   0.47047   0.00000  Uiso   1.00
F430   F     0.66282   0.50828   0.01118   0.00000  Uiso   1.00
F431   F     0.44873   0.43483   0.08412   0.00000  Uiso   1.00
F432   F     0.57741   0.48986   0.39636   0.00000  Uiso   1.00
N433   N     0.56349   0.62329   0.16986   0.00000  Uiso   1.00
H434   H     0.55980   0.63375   0.13999   0.00000  Uiso   1.00
C435   C     0.61376   0.62049   0.16456   0.00000  Uiso   1.00
H436   H     0.63078   0.65229   0.16131   0.00000  Uiso   1.00
H437   H     0.63349   0.60177   0.13269   0.00000  Uiso   1.00
H438   H     0.61706   0.60449   0.19464   0.00000  Uiso   1.00
N439   N     0.42909   0.37541   0.32432   0.00000  Uiso   1.00
H440   H     0.42777   0.36566   0.35639   0.00000  Uiso   1.00
C441   C     0.38160   0.37447   0.32116   0.00000  Uiso   1.00
H442   H     0.36980   0.34169   0.31720   0.00000  Uiso   1.00
H443   H     0.38210   0.39319   0.29125   0.00000  Uiso   1.00
H444   H     0.35459   0.38816   0.35325   0.00000  Uiso   1.00
F445   F     0.56259   0.37749   0.17473   0.00000  Uiso   1.00
F446   F     0.43591   0.62227   0.32257   0.00000  Uiso   1.00
F447   F     0.63530   0.43994   0.20254   0.00000  Uiso   1.00
F448   F     0.36681   0.56291   0.29239   0.00000  Uiso   1.00
N449   N     0.39657   0.43448   0.20627   0.00000  Uiso   1.00
H450   H     0.42939   0.44246   0.18140   0.00000  Uiso   1.00
C451   C     0.37816   0.39284   0.20145   0.00000  Uiso   1.00
H452   H     0.40591   0.36939   0.19965   0.00000  Uiso   1.00
H453   H     0.37072   0.39033   0.16876   0.00000  Uiso   1.00
H454   H     0.34495   0.38530   0.23188   0.00000  Uiso   1.00
N455   N     0.60429   0.56596   0.29287   0.00000  Uiso   1.00
H456   H     0.60626   0.58863   0.26906   0.00000  Uiso   1.00
C457   C     0.60454   0.58427   0.33615   0.00000  Uiso   1.00
H458   H     0.63429   0.60790   0.32944   0.00000  Uiso   1.00
H459   H     0.60786   0.55975   0.35967   0.00000  Uiso   1.00
H460   H     0.57040   0.60126   0.35355   0.00000  Uiso   1.00
C461   C     0.83420   0.57979   0.24898   0.00000  Uiso   1.00
C462   C     0.83268   0.42012   0.25028   0.00000  Uiso   1.00
C463   C     0.79066   0.45138   0.04166   0.00000  Uiso   1.00
C464   C     0.89543   0.49043   0.44354   0.00000  Uiso   1.00
C465   C     0.75883   0.44078   0.01920   0.00000  Uiso   1.00
C466   C     0.92994   0.49500   0.46431   0.00000  Uiso   1.00
C467   C     0.86713   0.64534   0.21064   0.00000  Uiso   1.00
C468   C     0.79812   0.35417   0.28668   0.00000  Uiso   1.00
C469   C     0.86561   0.35538   0.21139   0.00000  Uiso   1.00
C470   C     0.80075   0.64436   0.28662   0.00000  Uiso   1.00
C471   C     0.83177   0.37592   0.24950   0.00000  Uiso   1.00
C472   C     0.83502   0.62388   0.24900   0.00000  Uiso   1.00
C473   C     0.98351   0.46893   0.22746   0.00000  Uiso   1.00
C474   C     0.68347   0.53138   0.27186   0.00000  Uiso   1.00
C475   C     0.69799   0.46796   0.22835   0.00000  Uiso   1.00
C476   C     0.96844   0.53148   0.27253   0.00000  Uiso   1.00
C477   C     0.80308   0.49905   0.33785   0.00000  Uiso   1.00
C478   C     0.86343   0.50109   0.16187   0.00000  Uiso   1.00
C479   C     0.78443   0.49066   0.38758   0.00000  Uiso   1.00
C480   C     0.88180   0.50112   0.11066   0.00000  Uiso   1.00
C481   C     0.73519   0.44726   0.45150   0.00000  Uiso   1.00
C482   C     0.94829   0.50190   0.03563   0.00000  Uiso   1.00
C483   C     0.74517   0.46293   0.40712   0.00000  Uiso   1.00
C484   C     0.93185   0.50258   0.08423   0.00000  Uiso   1.00
C485   C     0.81178   0.50456   0.41364   0.00000  Uiso   1.00
C486   C     0.84890   0.49843   0.08726   0.00000  Uiso   1.00
C487   C     0.80933   0.48113   0.45247   0.00000  Uiso   1.00
C488   C     0.86600   0.48749   0.04001   0.00000  Uiso   1.00
C489   C     0.76734   0.45610   0.47464   0.00000  Uiso   1.00
C490   C     0.91541   0.49451   0.01299   0.00000  Uiso   1.00
C491   C     0.84614   0.48320   0.47108   0.00000  Uiso   1.00
C492   C     0.83366   0.47459   0.01832   0.00000  Uiso   1.00
N493   N     0.71426   0.50001   0.25001   0.00000  Uiso   1.00
N494   N     0.95241   0.49999   0.24999   0.00000  Uiso   1.00
O495   O     0.79512   0.56108   0.25000   0.00000  Uiso   1.00
O496   O     0.87154   0.43892   0.24999   0.00000  Uiso   1.00
O497   O     0.87157   0.56107   0.25000   0.00000  Uiso   1.00
O498   O     0.79510   0.43893   0.25000   0.00000  Uiso   1.00
O499   O     0.77328   0.50001   0.31612   0.00000  Uiso   1.00
O500   O     0.89339   0.49999   0.18388   0.00000  Uiso   1.00
O501   O     0.84972   0.50000   0.31612   0.00000  Uiso   1.00
O502   O     0.81695   0.50000   0.18388   0.00000  Uiso   1.00
Zn503  Zn    0.78229   0.50001   0.25000   0.00000  Uiso   1.00
Zn504  Zn    0.88438   0.49999   0.25000   0.00000  Uiso   1.00
F505   F     0.71917   0.41668   0.04178   0.00000  Uiso   1.00
F506   F     0.97675   0.50238   0.43685   0.00000  Uiso   1.00
N507   N     0.80128   0.51522   0.10703   0.00000  Uiso   1.00
H508   H     0.77565   0.49853   0.13288   0.00000  Uiso   1.00
C509   C     0.79887   0.56040   0.11314   0.00000  Uiso   1.00
H510   H     0.76062   0.57026   0.12414   0.00000  Uiso   1.00
H511   H     0.82000   0.57588   0.07977   0.00000  Uiso   1.00
H512   H     0.81326   0.57080   0.14022   0.00000  Uiso   1.00
N513   N     0.83499   0.54514   0.40503   0.00000  Uiso   1.00
H514   H     0.85609   0.55283   0.42413   0.00000  Uiso   1.00
C515   C     0.80269   0.57938   0.40757   0.00000  Uiso   1.00
H516   H     0.82288   0.60978   0.40200   0.00000  Uiso   1.00
H517   H     0.77325   0.58056   0.44245   0.00000  Uiso   1.00
H518   H     0.78670   0.57570   0.38041   0.00000  Uiso   1.00
F519   F     0.96481   0.50712   0.10507   0.00000  Uiso   1.00
F520   F     0.71657   0.45107   0.38330   0.00000  Uiso   1.00
F521   F     0.69566   0.42198   0.47047   0.00000  Uiso   1.00
F522   F     0.99616   0.50828   0.01118   0.00000  Uiso   1.00
F523   F     0.78206   0.43483   0.08412   0.00000  Uiso   1.00
F524   F     0.91074   0.48986   0.39636   0.00000  Uiso   1.00
N525   N     0.89682   0.62329   0.16986   0.00000  Uiso   1.00
H526   H     0.89313   0.63375   0.13999   0.00000  Uiso   1.00
C527   C     0.94709   0.62049   0.16456   0.00000  Uiso   1.00
H528   H     0.96411   0.65229   0.16131   0.00000  Uiso   1.00
H529   H     0.96683   0.60177   0.13269   0.00000  Uiso   1.00
H530   H     0.95039   0.60449   0.19464   0.00000  Uiso   1.00
N531   N     0.76242   0.37541   0.32432   0.00000  Uiso   1.00
H532   H     0.76111   0.36566   0.35639   0.00000  Uiso   1.00
C533   C     0.71493   0.37447   0.32116   0.00000  Uiso   1.00
H534   H     0.70314   0.34169   0.31720   0.00000  Uiso   1.00
H535   H     0.71543   0.39319   0.29125   0.00000  Uiso   1.00
H536   H     0.68793   0.38816   0.35325   0.00000  Uiso   1.00
F537   F     0.89592   0.37749   0.17473   0.00000  Uiso   1.00
F538   F     0.76924   0.62227   0.32257   0.00000  Uiso   1.00
F539   F     0.96864   0.43994   0.20254   0.00000  Uiso   1.00
F540   F     0.70014   0.56291   0.29239   0.00000  Uiso   1.00
N541   N     0.72990   0.43448   0.20627   0.00000  Uiso   1.00
H542   H     0.76272   0.44246   0.18140   0.00000  Uiso   1.00
C543   C     0.71150   0.39284   0.20145   0.00000  Uiso   1.00
H544   H     0.73924   0.36939   0.19965   0.00000  Uiso   1.00
H545   H     0.70405   0.39033   0.16876   0.00000  Uiso   1.00
H546   H     0.67828   0.38530   0.23188   0.00000  Uiso   1.00
N547   N     0.93762   0.56596   0.29287   0.00000  Uiso   1.00
H548   H     0.93959   0.58863   0.26906   0.00000  Uiso   1.00
C549   C     0.93788   0.58427   0.33615   0.00000  Uiso   1.00
H550   H     0.96762   0.60790   0.32944   0.00000  Uiso   1.00
H551   H     0.94120   0.55975   0.35967   0.00000  Uiso   1.00
H552   H     0.90373   0.60126   0.35355   0.00000  Uiso   1.00
C553   C     0.16754   0.91312   0.24898   0.00000  Uiso   1.00
C554   C     0.16601   0.75345   0.25028   0.00000  Uiso   1.00
C555   C     0.12400   0.78471   0.04166   0.00000  Uiso   1.00
C556   C     0.22876   0.82376   0.44354   0.00000  Uiso   1.00
C557   C     0.09216   0.77411   0.01920   0.00000  Uiso   1.00
C558   C     0.26327   0.82834   0.46431   0.00000  Uiso   1.00
C559   C     0.20046   0.97868   0.21064   0.00000  Uiso   1.00
C560   C     0.13145   0.68750   0.28668   0.00000  Uiso   1.00
C561   C     0.19895   0.68872   0.21139   0.00000  Uiso   1.00
C562   C     0.13409   0.97769   0.28662   0.00000  Uiso   1.00
C563   C     0.16510   0.70926   0.24950   0.00000  Uiso   1.00
C564   C     0.16835   0.95721   0.24900   0.00000  Uiso   1.00
C565   C     0.31684   0.80226   0.22746   0.00000  Uiso   1.00
C566   C     0.01681   0.86472   0.27186   0.00000  Uiso   1.00
C567   C     0.03133   0.80129   0.22835   0.00000  Uiso   1.00
C568   C     0.30177   0.86482   0.27253   0.00000  Uiso   1.00
C569   C     0.13641   0.83238   0.33785   0.00000  Uiso   1.00
C570   C     0.19676   0.83443   0.16187   0.00000  Uiso   1.00
C571   C     0.11776   0.82399   0.38758   0.00000  Uiso   1.00
C572   C     0.21514   0.83445   0.11066   0.00000  Uiso   1.00
C573   C     0.06852   0.78059   0.45150   0.00000  Uiso   1.00
C574   C     0.28162   0.83523   0.03563   0.00000  Uiso   1.00
C575   C     0.07850   0.79626   0.40712   0.00000  Uiso   1.00
C576   C     0.26518   0.83591   0.08423   0.00000  Uiso   1.00
C577   C     0.14512   0.83789   0.41364   0.00000  Uiso   1.00
C578   C     0.18223   0.83177   0.08726   0.00000  Uiso   1.00
C579   C     0.14266   0.81446   0.45247   0.00000  Uiso   1.00
C580   C     0.19933   0.82082   0.04001   0.00000  Uiso   1.00
C581   C     0.10067   0.78943   0.47464   0.00000  Uiso   1.00
C582   C     0.24874   0.82784   0.01299   0.00000  Uiso   1.00
C583   C     0.17947   0.81653   0.47108   0.00000  Uiso   1.00
C584   C     0.16699   0.80793   0.01832   0.00000  Uiso   1.00
N585   N     0.04759   0.83334   0.25001   0.00000  Uiso   1.00
N586   N     0.28574   0.83332   0.24999   0.00000  Uiso   1.00
O587   O     0.12846   0.89442   0.25000   0.00000  Uiso   1.00
O588   O     0.20488   0.77225   0.24999   0.00000  Uiso   1.00
O589   O     0.20490   0.89441   0.25000   0.00000  Uiso   1.00
O590   O     0.12843   0.77226   0.25000   0.00000  Uiso   1.00
O591   O     0.10661   0.83334   0.31612   0.00000  Uiso   1.00
O592   O     0.22672   0.83333   0.18388   0.00000  Uiso   1.00
O593   O     0.18305   0.83333   0.31612   0.00000  Uiso   1.00
O594   O     0.15028   0.83334   0.18388   0.00000  Uiso   1.00
Zn595  Zn    0.11562   0.83334   0.25000   0.00000  Uiso   1.00
Zn596  Zn    0.21771   0.83333   0.25000   0.00000  Uiso   1.00
F597   F     0.05250   0.75001   0.04178   0.00000  Uiso   1.00
F598   F     0.31009   0.83571   0.43685   0.00000  Uiso   1.00
N599   N     0.13462   0.84856   0.10703   0.00000  Uiso   1.00
H600   H     0.10898   0.83186   0.13288   0.00000  Uiso   1.00
C601   C     0.13220   0.89374   0.11314   0.00000  Uiso   1.00
H602   H     0.09396   0.90359   0.12414   0.00000  Uiso   1.00
H603   H     0.15334   0.90922   0.07977   0.00000  Uiso   1.00
H604   H     0.14659   0.90413   0.14022   0.00000  Uiso   1.00
N605   N     0.16832   0.87847   0.40503   0.00000  Uiso   1.00
H606   H     0.18942   0.88616   0.42413   0.00000  Uiso   1.00
C607   C     0.13603   0.91271   0.40757   0.00000  Uiso   1.00
H608   H     0.15621   0.94311   0.40200   0.00000  Uiso   1.00
H609   H     0.10658   0.91389   0.44245   0.00000  Uiso   1.00
H610   H     0.12003   0.90903   0.38041   0.00000  Uiso   1.00
F611   F     0.29814   0.84045   0.10507   0.00000  Uiso   1.00
F612   F     0.04991   0.78441   0.38330   0.00000  Uiso   1.00
F613   F     0.02900   0.75532   0.47047   0.00000  Uiso   1.00
F614   F     0.32949   0.84161   0.01118   0.00000  Uiso   1.00
F615   F     0.11539   0.76816   0.08412   0.00000  Uiso   1.00
F616   F     0.24408   0.82319   0.39636   0.00000  Uiso   1.00
N617   N     0.23016   0.95662   0.16986   0.00000  Uiso   1.00
H618   H     0.22647   0.96708   0.13999   0.00000  Uiso   1.00
C619   C     0.28043   0.95382   0.16456   0.00000  Uiso   1.00
H620   H     0.29745   0.98563   0.16131   0.00000  Uiso   1.00
H621   H     0.30016   0.93510   0.13269   0.00000  Uiso   1.00
H622   H     0.28373   0.93782   0.19464   0.00000  Uiso   1.00
N623   N     0.09575   0.70875   0.32432   0.00000  Uiso   1.00
H624   H     0.09444   0.69899   0.35639   0.00000  Uiso   1.00
C625   C     0.04827   0.70780   0.32116   0.00000  Uiso   1.00
H626   H     0.03647   0.67502   0.31720   0.00000  Uiso   1.00
H627   H     0.04877   0.72652   0.29125   0.00000  Uiso   1.00
H628   H     0.02126   0.72149   0.35325   0.00000  Uiso   1.00
F629   F     0.22926   0.71083   0.17473   0.00000  Uiso   1.00
F630   F     0.10257   0.95561   0.32257   0.00000  Uiso   1.00
F631   F     0.30197   0.77327   0.20254   0.00000  Uiso   1.00
F632   F     0.03348   0.89624   0.29239   0.00000  Uiso   1.00
N633   N     0.06323   0.76781   0.20627   0.00000  Uiso   1.00
H634   H     0.09605   0.77579   0.18140   0.00000  Uiso   1.00
C635   C     0.04483   0.72617   0.20145   0.00000  Uiso   1.00
H636   H     0.07258   0.70273   0.19965   0.00000  Uiso   1.00
H637   H     0.03738   0.72366   0.16876   0.00000  Uiso   1.00
H638   H     0.01161   0.71864   0.23188   0.00000  Uiso   1.00
N639   N     0.27096   0.89929   0.29287   0.00000  Uiso   1.00
H640   H     0.27293   0.92196   0.26906   0.00000  Uiso   1.00
C641   C     0.27121   0.91760   0.33615   0.00000  Uiso   1.00
H642   H     0.30095   0.94124   0.32944   0.00000  Uiso   1.00
H643   H     0.27453   0.89309   0.35967   0.00000  Uiso   1.00
H644   H     0.23707   0.93460   0.35355   0.00000  Uiso   1.00
C645   C     0.50087   0.91312   0.24898   0.00000  Uiso   1.00
C646   C     0.49934   0.75345   0.25028   0.00000  Uiso   1.00
C647   C     0.45733   0.78471   0.04166   0.00000  Uiso   1.00
C648   C     0.56209   0.82376   0.44354   0.00000  Uiso   1.00
C649   C     0.42549   0.77411   0.01920   0.00000  Uiso   1.00
C650   C     0.59660   0.82834   0.46431   0.00000  Uiso   1.00
C651   C     0.53380   0.97868   0.21064   0.00000  Uiso   1.00
C652   C     0.46478   0.68750   0.28668   0.00000  Uiso   1.00
C653   C     0.53228   0.68872   0.21139   0.00000  Uiso   1.00
C654   C     0.46742   0.97769   0.28662   0.00000  Uiso   1.00
C655   C     0.49844   0.70926   0.24950   0.00000  Uiso   1.00
C656   C     0.50169   0.95721   0.24900   0.00000  Uiso   1.00
C657   C     0.65018   0.80226   0.22746   0.00000  Uiso   1.00
C658   C     0.35014   0.86472   0.27186   0.00000  Uiso   1.00
C659   C     0.36466   0.80129   0.22835   0.00000  Uiso   1.00
C660   C     0.63510   0.86482   0.27253   0.00000  Uiso   1.00
C661   C     0.46974   0.83238   0.33785   0.00000  Uiso   1.00
C662   C     0.53010   0.83443   0.16187   0.00000  Uiso   1.00
C663   C     0.45110   0.82399   0.38758   0.00000  Uiso   1.00
C664   C     0.54847   0.83445   0.11066   0.00000  Uiso   1.00
C665   C     0.40186   0.78059   0.45150   0.00000  Uiso   1.00
C666   C     0.61496   0.83523   0.03563   0.00000  Uiso   1.00
C667   C     0.41184   0.79626   0.40712   0.00000  Uiso   1.00
C668   C     0.59851   0.83591   0.08423   0.00000  Uiso   1.00
C669   C     0.47845   0.83789   0.41364   0.00000  Uiso   1.00
C670   C     0.51556   0.83177   0.08726   0.00000  Uiso   1.00
C671   C     0.47599   0.81446   0.45247   0.00000  Uiso   1.00
C672   C     0.53267   0.82082   0.04001   0.00000  Uiso   1.00
C673   C     0.43400   0.78943   0.47464   0.00000  Uiso   1.00
C674   C     0.58208   0.82784   0.01299   0.00000  Uiso   1.00
C675   C     0.51280   0.81653   0.47108   0.00000  Uiso   1.00
C676   C     0.50033   0.80793   0.01832   0.00000  Uiso   1.00
N677   N     0.38093   0.83334   0.25001   0.00000  Uiso   1.00
N678   N     0.61907   0.83332   0.24999   0.00000  Uiso   1.00
O679   O     0.46179   0.89442   0.25000   0.00000  Uiso   1.00
O680   O     0.53821   0.77225   0.24999   0.00000  Uiso   1.00
O681   O     0.53823   0.89441   0.25000   0.00000  Uiso   1.00
O682   O     0.46177   0.77226   0.25000   0.00000  Uiso   1.00
O683   O     0.43994   0.83334   0.31612   0.00000  Uiso   1.00
O684   O     0.56006   0.83333   0.18388   0.00000  Uiso   1.00
O685   O     0.51639   0.83333   0.31612   0.00000  Uiso   1.00
O686   O     0.48361   0.83334   0.18388   0.00000  Uiso   1.00
Zn687  Zn    0.44896   0.83334   0.25000   0.00000  Uiso   1.00
Zn688  Zn    0.55104   0.83333   0.25000   0.00000  Uiso   1.00
F689   F     0.38583   0.75001   0.04178   0.00000  Uiso   1.00
F690   F     0.64342   0.83571   0.43685   0.00000  Uiso   1.00
N691   N     0.46795   0.84856   0.10703   0.00000  Uiso   1.00
H692   H     0.44232   0.83186   0.13288   0.00000  Uiso   1.00
C693   C     0.46553   0.89374   0.11314   0.00000  Uiso   1.00
H694   H     0.42729   0.90359   0.12414   0.00000  Uiso   1.00
H695   H     0.48667   0.90922   0.07977   0.00000  Uiso   1.00
H696   H     0.47992   0.90413   0.14022   0.00000  Uiso   1.00
N697   N     0.50165   0.87847   0.40503   0.00000  Uiso   1.00
H698   H     0.52275   0.88616   0.42413   0.00000  Uiso   1.00
C699   C     0.46936   0.91271   0.40757   0.00000  Uiso   1.00
H700   H     0.48954   0.94311   0.40200   0.00000  Uiso   1.00
H701   H     0.43992   0.91389   0.44245   0.00000  Uiso   1.00
H702   H     0.45337   0.90903   0.38041   0.00000  Uiso   1.00
F703   F     0.63148   0.84045   0.10507   0.00000  Uiso   1.00
F704   F     0.38324   0.78441   0.38330   0.00000  Uiso   1.00
F705   F     0.36233   0.75532   0.47047   0.00000  Uiso   1.00
F706   F     0.66282   0.84161   0.01118   0.00000  Uiso   1.00
F707   F     0.44873   0.76816   0.08412   0.00000  Uiso   1.00
F708   F     0.57741   0.82319   0.39636   0.00000  Uiso   1.00
N709   N     0.56349   0.95662   0.16986   0.00000  Uiso   1.00
H710   H     0.55980   0.96708   0.13999   0.00000  Uiso   1.00
C711   C     0.61376   0.95382   0.16456   0.00000  Uiso   1.00
H712   H     0.63078   0.98563   0.16131   0.00000  Uiso   1.00
H713   H     0.63349   0.93510   0.13269   0.00000  Uiso   1.00
H714   H     0.61706   0.93782   0.19464   0.00000  Uiso   1.00
N715   N     0.42909   0.70875   0.32432   0.00000  Uiso   1.00
H716   H     0.42777   0.69899   0.35639   0.00000  Uiso   1.00
C717   C     0.38160   0.70780   0.32116   0.00000  Uiso   1.00
H718   H     0.36980   0.67502   0.31720   0.00000  Uiso   1.00
H719   H     0.38210   0.72652   0.29125   0.00000  Uiso   1.00
H720   H     0.35459   0.72149   0.35325   0.00000  Uiso   1.00
F721   F     0.56259   0.71083   0.17473   0.00000  Uiso   1.00
F722   F     0.43591   0.95561   0.32257   0.00000  Uiso   1.00
F723   F     0.63530   0.77327   0.20254   0.00000  Uiso   1.00
F724   F     0.36681   0.89624   0.29239   0.00000  Uiso   1.00
N725   N     0.39657   0.76781   0.20627   0.00000  Uiso   1.00
H726   H     0.42939   0.77579   0.18140   0.00000  Uiso   1.00
C727   C     0.37816   0.72617   0.20145   0.00000  Uiso   1.00
H728   H     0.40591   0.70273   0.19965   0.00000  Uiso   1.00
H729   H     0.37072   0.72366   0.16876   0.00000  Uiso   1.00
H730   H     0.34495   0.71864   0.23188   0.00000  Uiso   1.00
N731   N     0.60429   0.89929   0.29287   0.00000  Uiso   1.00
H732   H     0.60626   0.92196   0.26906   0.00000  Uiso   1.00
C733   C     0.60454   0.91760   0.33615   0.00000  Uiso   1.00
H734   H     0.63429   0.94124   0.32944   0.00000  Uiso   1.00
H735   H     0.60786   0.89309   0.35967   0.00000  Uiso   1.00
H736   H     0.57040   0.93460   0.35355   0.00000  Uiso   1.00
C737   C     0.83420   0.91312   0.24898   0.00000  Uiso   1.00
C738   C     0.83268   0.75345   0.25028   0.00000  Uiso   1.00
C739   C     0.79066   0.78471   0.04166   0.00000  Uiso   1.00
C740   C     0.89543   0.82376   0.44354   0.00000  Uiso   1.00
C741   C     0.75883   0.77411   0.01920   0.00000  Uiso   1.00
C742   C     0.92994   0.82834   0.46431   0.00000  Uiso   1.00
C743   C     0.86713   0.97868   0.21064   0.00000  Uiso   1.00
C744   C     0.79812   0.68750   0.28668   0.00000  Uiso   1.00
C745   C     0.86561   0.68872   0.21139   0.00000  Uiso   1.00
C746   C     0.80075   0.97769   0.28662   0.00000  Uiso   1.00
C747   C     0.83177   0.70926   0.24950   0.00000  Uiso   1.00
C748   C     0.83502   0.95721   0.24900   0.00000  Uiso   1.00
C749   C     0.98351   0.80226   0.22746   0.00000  Uiso   1.00
C750   C     0.68347   0.86472   0.27186   0.00000  Uiso   1.00
C751   C     0.69799   0.80129   0.22835   0.00000  Uiso   1.00
C752   C     0.96844   0.86482   0.27253   0.00000  Uiso   1.00
C753   C     0.80308   0.83238   0.33785   0.00000  Uiso   1.00
C754   C     0.86343   0.83443   0.16187   0.00000  Uiso   1.00
C755   C     0.78443   0.82399   0.38758   0.00000  Uiso   1.00
C756   C     0.88180   0.83445   0.11066   0.00000  Uiso   1.00
C757   C     0.73519   0.78059   0.45150   0.00000  Uiso   1.00
C758   C     0.94829   0.83523   0.03563   0.00000  Uiso   1.00
C759   C     0.74517   0.79626   0.40712   0.00000  Uiso   1.00
C760   C     0.93185   0.83591   0.08423   0.00000  Uiso   1.00
C761   C     0.81178   0.83789   0.41364   0.00000  Uiso   1.00
C762   C     0.84890   0.83177   0.08726   0.00000  Uiso   1.00
C763   C     0.80933   0.81446   0.45247   0.00000  Uiso   1.00
C764   C     0.86600   0.82082   0.04001   0.00000  Uiso   1.00
C765   C     0.76734   0.78943   0.47464   0.00000  Uiso   1.00
C766   C     0.91541   0.82784   0.01299   0.00000  Uiso   1.00
C767   C     0.84614   0.81653   0.47108   0.00000  Uiso   1.00
C768   C     0.83366   0.80793   0.01832   0.00000  Uiso   1.00
N769   N     0.71426   0.83334   0.25001   0.00000  Uiso   1.00
N770   N     0.95241   0.83332   0.24999   0.00000  Uiso   1.00
O771   O     0.79512   0.89442   0.25000   0.00000  Uiso   1.00
O772   O     0.87154   0.77225   0.24999   0.00000  Uiso   1.00
O773   O     0.87157   0.89441   0.25000   0.00000  Uiso   1.00
O774   O     0.79510   0.77226   0.25000   0.00000  Uiso   1.00
O775   O     0.77328   0.83334   0.31612   0.00000  Uiso   1.00
O776   O     0.89339   0.83333   0.18388   0.00000  Uiso   1.00
O777   O     0.84972   0.83333   0.31612   0.00000  Uiso   1.00
O778   O     0.81695   0.83334   0.18388   0.00000  Uiso   1.00
Zn779  Zn    0.78229   0.83334   0.25000   0.00000  Uiso   1.00
Zn780  Zn    0.88438   0.83333   0.25000   0.00000  Uiso   1.00
F781   F     0.71917   0.75001   0.04178   0.00000  Uiso   1.00
F782   F     0.97675   0.83571   0.43685   0.00000  Uiso   1.00
N783   N     0.80128   0.84856   0.10703   0.00000  Uiso   1.00
H784   H     0.77565   0.83186   0.13288   0.00000  Uiso   1.00
C785   C     0.79887   0.89374   0.11314   0.00000  Uiso   1.00
H786   H     0.76062   0.90359   0.12414   0.00000  Uiso   1.00
H787   H     0.82000   0.90922   0.07977   0.00000  Uiso   1.00
H788   H     0.81326   0.90413   0.14022   0.00000  Uiso   1.00
N789   N     0.83499   0.87847   0.40503   0.00000  Uiso   1.00
H790   H     0.85609   0.88616   0.42413   0.00000  Uiso   1.00
C791   C     0.80269   0.91271   0.40757   0.00000  Uiso   1.00
H792   H     0.82288   0.94311   0.40200   0.00000  Uiso   1.00
H793   H     0.77325   0.91389   0.44245   0.00000  Uiso   1.00
H794   H     0.78670   0.90903   0.38041   0.00000  Uiso   1.00
F795   F     0.96481   0.84045   0.10507   0.00000  Uiso   1.00
F796   F     0.71657   0.78441   0.38330   0.00000  Uiso   1.00
F797   F     0.69566   0.75532   0.47047   0.00000  Uiso   1.00
F798   F     0.99616   0.84161   0.01118   0.00000  Uiso   1.00
F799   F     0.78206   0.76816   0.08412   0.00000  Uiso   1.00
F800   F     0.91074   0.82319   0.39636   0.00000  Uiso   1.00
N801   N     0.89682   0.95662   0.16986   0.00000  Uiso   1.00
H802   H     0.89313   0.96708   0.13999   0.00000  Uiso   1.00
C803   C     0.94709   0.95382   0.16456   0.00000  Uiso   1.00
H804   H     0.96411   0.98563   0.16131   0.00000  Uiso   1.00
H805   H     0.96683   0.93510   0.13269   0.00000  Uiso   1.00
H806   H     0.95039   0.93782   0.19464   0.00000  Uiso   1.00
N807   N     0.76242   0.70875   0.32432   0.00000  Uiso   1.00
H808   H     0.76111   0.69899   0.35639   0.00000  Uiso   1.00
C809   C     0.71493   0.70780   0.32116   0.00000  Uiso   1.00
H810   H     0.70314   0.67502   0.31720   0.00000  Uiso   1.00
H811   H     0.71543   0.72652   0.29125   0.00000  Uiso   1.00
H812   H     0.68793   0.72149   0.35325   0.00000  Uiso   1.00
F813   F     0.89592   0.71083   0.17473   0.00000  Uiso   1.00
F814   F     0.76924   0.95561   0.32257   0.00000  Uiso   1.00
F815   F     0.96864   0.77327   0.20254   0.00000  Uiso   1.00
F816   F     0.70014   0.89624   0.29239   0.00000  Uiso   1.00
N817   N     0.72990   0.76781   0.20627   0.00000  Uiso   1.00
H818   H     0.76272   0.77579   0.18140   0.00000  Uiso   1.00
C819   C     0.71150   0.72617   0.20145   0.00000  Uiso   1.00
H820   H     0.73924   0.70273   0.19965   0.00000  Uiso   1.00
H821   H     0.70405   0.72366   0.16876   0.00000  Uiso   1.00
H822   H     0.67828   0.71864   0.23188   0.00000  Uiso   1.00
N823   N     0.93762   0.89929   0.29287   0.00000  Uiso   1.00
H824   H     0.93959   0.92196   0.26906   0.00000  Uiso   1.00
C825   C     0.93788   0.91760   0.33615   0.00000  Uiso   1.00
H826   H     0.96762   0.94124   0.32944   0.00000  Uiso   1.00
H827   H     0.94120   0.89309   0.35967   0.00000  Uiso   1.00
H828   H     0.90373   0.93460   0.35355   0.00000  Uiso   1.00
C829   C     0.16754   0.24646   0.74898   0.00000  Uiso   1.00
C830   C     0.16601   0.08679   0.75028   0.00000  Uiso   1.00
C831   C     0.12400   0.11805   0.54166   0.00000  Uiso   1.00
C832   C     0.22876   0.15709   0.94354   0.00000  Uiso   1.00
C833   C     0.09216   0.10745   0.51920   0.00000  Uiso   1.00
C834   C     0.26327   0.16167   0.96431   0.00000  Uiso   1.00
C835   C     0.20046   0.31201   0.71064   0.00000  Uiso   1.00
C836   C     0.13145   0.02083   0.78668   0.00000  Uiso   1.00
C837   C     0.19895   0.02205   0.71139   0.00000  Uiso   1.00
C838   C     0.13409   0.31103   0.78662   0.00000  Uiso   1.00
C839   C     0.16510   0.04259   0.74950   0.00000  Uiso   1.00
C840   C     0.16835   0.29055   0.74900   0.00000  Uiso   1.00
C841   C     0.31684   0.13560   0.72746   0.00000  Uiso   1.00
C842   C     0.01681   0.19805   0.77186   0.00000  Uiso   1.00
C843   C     0.03133   0.13462   0.72835   0.00000  Uiso   1.00
C844   C     0.30177   0.19815   0.77253   0.00000  Uiso   1.00
C845   C     0.13641   0.16572   0.83785   0.00000  Uiso   1.00
C846   C     0.19676   0.16776   0.66187   0.00000  Uiso   1.00
C847   C     0.11776   0.15732   0.88758   0.00000  Uiso   1.00
C848   C     0.21514   0.16779   0.61066   0.00000  Uiso   1.00
C849   C     0.06852   0.11393   0.95150   0.00000  Uiso   1.00
C850   C     0.28162   0.16856   0.53563   0.00000  Uiso   1.00
C851   C     0.07850   0.12959   0.90712   0.00000  Uiso   1.00
C852   C     0.26518   0.16924   0.58423   0.00000  Uiso   1.00
C853   C     0.14512   0.17122   0.91364   0.00000  Uiso   1.00
C854   C     0.18223   0.16510   0.58726   0.00000  Uiso   1.00
C855   C     0.14266   0.14780   0.95247   0.00000  Uiso   1.00
C856   C     0.19933   0.15415   0.54001   0.00000  Uiso   1.00
C857   C     0.10067   0.12276   0.97464   0.00000  Uiso   1.00
C858   C     0.24874   0.16117   0.51299   0.00000  Uiso   1.00
C859   C     0.17947   0.14986   0.97108   0.00000  Uiso   1.00
C860   C     0.16699   0.14126   0.51832   0.00000  Uiso   1.00
N861   N     0.04759   0.16668   0.75001   0.00000  Uiso   1.00
N862   N     0.28574   0.16666   0.74999   0.00000  Uiso   1.00
O863   O     0.12846   0.22775   0.75000   0.00000  Uiso   1.00
O864   O     0.20488   0.10558   0.74999   0.00000  Uiso   1.00
O865   O     0.20490   0.22774   0.75000   0.00000  Uiso   1.00
O866   O     0.12843   0.10559   0.75000   0.00000  Uiso   1.00
O867   O     0.10661   0.16667   0.81612   0.00000  Uiso   1.00
O868   O     0.22672   0.16666   0.68388   0.00000  Uiso   1.00
O869   O     0.18305   0.16666   0.81612   0.00000  Uiso   1.00
O870   O     0.15028   0.16667   0.68388   0.00000  Uiso   1.00
Zn871  Zn    0.11562   0.16667   0.75000   0.00000  Uiso   1.00
Zn872  Zn    0.21771   0.16666   0.75000   0.00000  Uiso   1.00
F873   F     0.05250   0.08334   0.54178   0.00000  Uiso   1.00
F874   F     0.31009   0.16905   0.93685   0.00000  Uiso   1.00
N875   N     0.13462   0.18189   0.60703   0.00000  Uiso   1.00
H876   H     0.10898   0.16519   0.63288   0.00000  Uiso   1.00
C877   C     0.13220   0.22707   0.61314   0.00000  Uiso   1.00
H878   H     0.09396   0.23692   0.62414   0.00000  Uiso   1.00
H879   H     0.15334   0.24255   0.57977   0.00000  Uiso   1.00
H880   H     0.14659   0.23746   0.64022   0.00000  Uiso   1.00
N881   N     0.16832   0.21180   0.90503   0.00000  Uiso   1.00
H882   H     0.18942   0.21949   0.92413   0.00000  Uiso   1.00
C883   C     0.13603   0.24605   0.90757   0.00000  Uiso   1.00
H884   H     0.15621   0.27644   0.90200   0.00000  Uiso   1.00
H885   H     0.10658   0.24723   0.94245   0.00000  Uiso   1.00
H886   H     0.12003   0.24236   0.88041   0.00000  Uiso   1.00
F887   F     0.29814   0.17378   0.60507   0.00000  Uiso   1.00
F888   F     0.04991   0.11774   0.88330   0.00000  Uiso   1.00
F889   F     0.02900   0.08865   0.97047   0.00000  Uiso   1.00
F890   F     0.32949   0.17495   0.51118   0.00000  Uiso   1.00
F891   F     0.11539   0.10149   0.58412   0.00000  Uiso   1.00
F892   F     0.24408   0.15653   0.89636   0.00000  Uiso   1.00
N893   N     0.23016   0.28995   0.66986   0.00000  Uiso   1.00
H894   H     0.22647   0.30042   0.63999   0.00000  Uiso   1.00
C895   C     0.28043   0.28716   0.66456   0.00000  Uiso   1.00
H896   H     0.29745   0.31896   0.66131   0.00000  Uiso   1.00
H897   H     0.30016   0.26844   0.63269   0.00000  Uiso   1.00
H898   H     0.28373   0.27115   0.69464   0.00000  Uiso   1.00
N899   N     0.09575   0.04208   0.82432   0.00000  Uiso   1.00
H900   H     0.09444   0.03232   0.85639   0.00000  Uiso   1.00
C901   C     0.04827   0.04113   0.82116   0.00000  Uiso   1.00
H902   H     0.03647   0.00835   0.81720   0.00000  Uiso   1.00
H903   H     0.04877   0.05986   0.79125   0.00000  Uiso   1.00
H904   H     0.02126   0.05482   0.85325   0.00000  Uiso   1.00
F905   F     0.22926   0.04416   0.67473   0.00000  Uiso   1.00
F906   F     0.10257   0.28894   0.82257   0.00000  Uiso   1.00
F907   F     0.30197   0.10660   0.70254   0.00000  Uiso   1.00
F908   F     0.03348   0.22957   0.79239   0.00000  Uiso   1.00
N909   N     0.06323   0.10115   0.70627   0.00000  Uiso   1.00
H910   H     0.09605   0.10912   0.68140   0.00000  Uiso   1.00
C911   C     0.04483   0.05950   0.70145   0.00000  Uiso   1.00
H912   H     0.07258   0.03606   0.69965   0.00000  Uiso   1.00
H913   H     0.03738   0.05700   0.66876   0.00000  Uiso   1.00
H914   H     0.01161   0.05197   0.73188   0.00000  Uiso   1.00
N915   N     0.27096   0.23262   0.79287   0.00000  Uiso   1.00
H916   H     0.27293   0.25529   0.76906   0.00000  Uiso   1.00
C917   C     0.27121   0.25093   0.83615   0.00000  Uiso   1.00
H918   H     0.30095   0.27457   0.82944   0.00000  Uiso   1.00
H919   H     0.27453   0.22642   0.85967   0.00000  Uiso   1.00
H920   H     0.23707   0.26793   0.85355   0.00000  Uiso   1.00
C921   C     0.50087   0.24646   0.74898   0.00000  Uiso   1.00
C922   C     0.49934   0.08679   0.75028   0.00000  Uiso   1.00
C923   C     0.45733   0.11805   0.54166   0.00000  Uiso   1.00
C924   C     0.56209   0.15709   0.94354   0.00000  Uiso   1.00
C925   C     0.42549   0.10745   0.51920   0.00000  Uiso   1.00
C926   C     0.59660   0.16167   0.96431   0.00000  Uiso   1.00
C927   C     0.53380   0.31201   0.71064   0.00000  Uiso   1.00
C928   C     0.46478   0.02083   0.78668   0.00000  Uiso   1.00
C929   C     0.53228   0.02205   0.71139   0.00000  Uiso   1.00
C930   C     0.46742   0.31103   0.78662   0.00000  Uiso   1.00
C931   C     0.49844   0.04259   0.74950   0.00000  Uiso   1.00
C932   C     0.50169   0.29055   0.74900   0.00000  Uiso   1.00
C933   C     0.65018   0.13560   0.72746   0.00000  Uiso   1.00
C934   C     0.35014   0.19805   0.77186   0.00000  Uiso   1.00
C935   C     0.36466   0.13462   0.72835   0.00000  Uiso   1.00
C936   C     0.63510   0.19815   0.77253   0.00000  Uiso   1.00
C937   C     0.46974   0.16572   0.83785   0.00000  Uiso   1.00
C938   C     0.53010   0.16776   0.66187   0.00000  Uiso   1.00
C939   C     0.45110   0.15732   0.88758   0.00000  Uiso   1.00
C940   C     0.54847   0.16779   0.61066   0.00000  Uiso   1.00
C941   C     0.40186   0.11393   0.95150   0.00000  Uiso   1.00
C942   C     0.61496   0.16856   0.53563   0.00000  Uiso   1.00
C943   C     0.41184   0.12959   0.90712   0.00000  Uiso   1.00
C944   C     0.59851   0.16924   0.58423   0.00000  Uiso   1.00
C945   C     0.47845   0.17122   0.91364   0.00000  Uiso   1.00
C946   C     0.51556   0.16510   0.58726   0.00000  Uiso   1.00
C947   C     0.47599   0.14780   0.95247   0.00000  Uiso   1.00
C948   C     0.53267   0.15415   0.54001   0.00000  Uiso   1.00
C949   C     0.43400   0.12276   0.97464   0.00000  Uiso   1.00
C950   C     0.58208   0.16117   0.51299   0.00000  Uiso   1.00
C951   C     0.51280   0.14986   0.97108   0.00000  Uiso   1.00
C952   C     0.50033   0.14126   0.51832   0.00000  Uiso   1.00
N953   N     0.38093   0.16668   0.75001   0.00000  Uiso   1.00
N954   N     0.61907   0.16666   0.74999   0.00000  Uiso   1.00
O955   O     0.46179   0.22775   0.75000   0.00000  Uiso   1.00
O956   O     0.53821   0.10558   0.74999   0.00000  Uiso   1.00
O957   O     0.53823   0.22774   0.75000   0.00000  Uiso   1.00
O958   O     0.46177   0.10559   0.75000   0.00000  Uiso   1.00
O959   O     0.43994   0.16667   0.81612   0.00000  Uiso   1.00
O960   O     0.56006   0.16666   0.68388   0.00000  Uiso   1.00
O961   O     0.51639   0.16666   0.81612   0.00000  Uiso   1.00
O962   O     0.48361   0.16667   0.68388   0.00000  Uiso   1.00
Zn963  Zn    0.44896   0.16667   0.75000   0.00000  Uiso   1.00
Zn964  Zn    0.55104   0.16666   0.75000   0.00000  Uiso   1.00
F965   F     0.38583   0.08334   0.54178   0.00000  Uiso   1.00
F966   F     0.64342   0.16905   0.93685   0.00000  Uiso   1.00
N967   N     0.46795   0.18189   0.60703   0.00000  Uiso   1.00
H968   H     0.44232   0.16519   0.63288   0.00000  Uiso   1.00
C969   C     0.46553   0.22707   0.61314   0.00000  Uiso   1.00
H970   H     0.42729   0.23692   0.62414   0.00000  Uiso   1.00
H971   H     0.48667   0.24255   0.57977   0.00000  Uiso   1.00
H972   H     0.47992   0.23746   0.64022   0.00000  Uiso   1.00
N973   N     0.50165   0.21180   0.90503   0.00000  Uiso   1.00
H974   H     0.52275   0.21949   0.92413   0.00000  Uiso   1.00
C975   C     0.46936   0.24605   0.90757   0.00000  Uiso   1.00
H976   H     0.48954   0.27644   0.90200   0.00000  Uiso   1.00
H977   H     0.43992   0.24723   0.94245   0.00000  Uiso   1.00
H978   H     0.45337   0.24236   0.88041   0.00000  Uiso   1.00
F979   F     0.63148   0.17378   0.60507   0.00000  Uiso   1.00
F980   F     0.38324   0.11774   0.88330   0.00000  Uiso   1.00
F981   F     0.36233   0.08865   0.97047   0.00000  Uiso   1.00
F982   F     0.66282   0.17495   0.51118   0.00000  Uiso   1.00
F983   F     0.44873   0.10149   0.58412   0.00000  Uiso   1.00
F984   F     0.57741   0.15653   0.89636   0.00000  Uiso   1.00
N985   N     0.56349   0.28995   0.66986   0.00000  Uiso   1.00
H986   H     0.55980   0.30042   0.63999   0.00000  Uiso   1.00
C987   C     0.61376   0.28716   0.66456   0.00000  Uiso   1.00
H988   H     0.63078   0.31896   0.66131   0.00000  Uiso   1.00
H989   H     0.63349   0.26844   0.63269   0.00000  Uiso   1.00
H990   H     0.61706   0.27115   0.69464   0.00000  Uiso   1.00
N991   N     0.42909   0.04208   0.82432   0.00000  Uiso   1.00
H992   H     0.42777   0.03232   0.85639   0.00000  Uiso   1.00
C993   C     0.38160   0.04113   0.82116   0.00000  Uiso   1.00
H994   H     0.36980   0.00835   0.81720   0.00000  Uiso   1.00
H995   H     0.38210   0.05986   0.79125   0.00000  Uiso   1.00
H996   H     0.35459   0.05482   0.85325   0.00000  Uiso   1.00
F997   F     0.56259   0.04416   0.67473   0.00000  Uiso   1.00
F998   F     0.43591   0.28894   0.82257   0.00000  Uiso   1.00
F999   F     0.63530   0.10660   0.70254   0.00000  Uiso   1.00
F1000  F     0.36681   0.22957   0.79239   0.00000  Uiso   1.00
N1001  N     0.39657   0.10115   0.70627   0.00000  Uiso   1.00
H1002  H     0.42939   0.10912   0.68140   0.00000  Uiso   1.00
C1003  C     0.37816   0.05950   0.70145   0.00000  Uiso   1.00
H1004  H     0.40591   0.03606   0.69965   0.00000  Uiso   1.00
H1005  H     0.37072   0.05700   0.66876   0.00000  Uiso   1.00
H1006  H     0.34495   0.05197   0.73188   0.00000  Uiso   1.00
N1007  N     0.60429   0.23262   0.79287   0.00000  Uiso   1.00
H1008  H     0.60626   0.25529   0.76906   0.00000  Uiso   1.00
C1009  C     0.60454   0.25093   0.83615   0.00000  Uiso   1.00
H1010  H     0.63429   0.27457   0.82944   0.00000  Uiso   1.00
H1011  H     0.60786   0.22642   0.85967   0.00000  Uiso   1.00
H1012  H     0.57040   0.26793   0.85355   0.00000  Uiso   1.00
C1013  C     0.83420   0.24646   0.74898   0.00000  Uiso   1.00
C1014  C     0.83268   0.08679   0.75028   0.00000  Uiso   1.00
C1015  C     0.79066   0.11805   0.54166   0.00000  Uiso   1.00
C1016  C     0.89543   0.15709   0.94354   0.00000  Uiso   1.00
C1017  C     0.75883   0.10745   0.51920   0.00000  Uiso   1.00
C1018  C     0.92994   0.16167   0.96431   0.00000  Uiso   1.00
C1019  C     0.86713   0.31201   0.71064   0.00000  Uiso   1.00
C1020  C     0.79812   0.02083   0.78668   0.00000  Uiso   1.00
C1021  C     0.86561   0.02205   0.71139   0.00000  Uiso   1.00
C1022  C     0.80075   0.31103   0.78662   0.00000  Uiso   1.00
C1023  C     0.83177   0.04259   0.74950   0.00000  Uiso   1.00
C1024  C     0.83502   0.29055   0.74900   0.00000  Uiso   1.00
C1025  C     0.98351   0.13560   0.72746   0.00000  Uiso   1.00
C1026  C     0.68347   0.19805   0.77186   0.00000  Uiso   1.00
C1027  C     0.69799   0.13462   0.72835   0.00000  Uiso   1.00
C1028  C     0.96844   0.19815   0.77253   0.00000  Uiso   1.00
C1029  C     0.80308   0.16572   0.83785   0.00000  Uiso   1.00
C1030  C     0.86343   0.16776   0.66187   0.00000  Uiso   1.00
C1031  C     0.78443   0.15732   0.88758   0.00000  Uiso   1.00
C1032  C     0.88180   0.16779   0.61066   0.00000  Uiso   1.00
C1033  C     0.73519   0.11393   0.95150   0.00000  Uiso   1.00
C1034  C     0.94829   0.16856   0.53563   0.00000  Uiso   1.00
C1035  C     0.74517   0.12959   0.90712   0.00000  Uiso   1.00
C1036  C     0.93185   0.16924   0.58423   0.00000  Uiso   1.00
C1037  C     0.81178   0.17122   0.91364   0.00000  Uiso   1.00
C1038  C     0.84890   0.16510   0.58726   0.00000  Uiso   1.00
C1039  C     0.80933   0.14780   0.95247   0.00000  Uiso   1.00
C1040  C     0.86600   0.15415   0.54001   0.00000  Uiso   1.00
C1041  C     0.76734   0.12276   0.97464   0.00000  Uiso   1.00
C1042  C     0.91541   0.16117   0.51299   0.00000  Uiso   1.00
C1043  C     0.84614   0.14986   0.97108   0.00000  Uiso   1.00
C1044  C     0.83366   0.14126   0.51832   0.00000  Uiso   1.00
N1045  N     0.71426   0.16668   0.75001   0.00000  Uiso   1.00
N1046  N     0.95241   0.16666   0.74999   0.00000  Uiso   1.00
O1047  O     0.79512   0.22775   0.75000   0.00000  Uiso   1.00
O1048  O     0.87154   0.10558   0.74999   0.00000  Uiso   1.00
O1049  O     0.87157   0.22774   0.75000   0.00000  Uiso   1.00
O1050  O     0.79510   0.10559   0.75000   0.00000  Uiso   1.00
O1051  O     0.77328   0.16667   0.81612   0.00000  Uiso   1.00
O1052  O     0.89339   0.16666   0.68388   0.00000  Uiso   1.00
O1053  O     0.84972   0.16666   0.81612   0.00000  Uiso   1.00
O1054  O     0.81695   0.16667   0.68388   0.00000  Uiso   1.00
Zn1055 Zn    0.78229   0.16667   0.75000   0.00000  Uiso   1.00
Zn1056 Zn    0.88438   0.16666   0.75000   0.00000  Uiso   1.00
F1057  F     0.71917   0.08334   0.54178   0.00000  Uiso   1.00
F1058  F     0.97675   0.16905   0.93685   0.00000  Uiso   1.00
N1059  N     0.80128   0.18189   0.60703   0.00000  Uiso   1.00
H1060  H     0.77565   0.16519   0.63288   0.00000  Uiso   1.00
C1061  C     0.79887   0.22707   0.61314   0.00000  Uiso   1.00
H1062  H     0.76062   0.23692   0.62414   0.00000  Uiso   1.00
H1063  H     0.82000   0.24255   0.57977   0.00000  Uiso   1.00
H1064  H     0.81326   0.23746   0.64022   0.00000  Uiso   1.00
N1065  N     0.83499   0.21180   0.90503   0.00000  Uiso   1.00
H1066  H     0.85609   0.21949   0.92413   0.00000  Uiso   1.00
C1067  C     0.80269   0.24605   0.90757   0.00000  Uiso   1.00
H1068  H     0.82288   0.27644   0.90200   0.00000  Uiso   1.00
H1069  H     0.77325   0.24723   0.94245   0.00000  Uiso   1.00
H1070  H     0.78670   0.24236   0.88041   0.00000  Uiso   1.00
F1071  F     0.96481   0.17378   0.60507   0.00000  Uiso   1.00
F1072  F     0.71657   0.11774   0.88330   0.00000  Uiso   1.00
F1073  F     0.69566   0.08865   0.97047   0.00000  Uiso   1.00
F1074  F     0.99616   0.17495   0.51118   0.00000  Uiso   1.00
F1075  F     0.78206   0.10149   0.58412   0.00000  Uiso   1.00
F1076  F     0.91074   0.15653   0.89636   0.00000  Uiso   1.00
N1077  N     0.89682   0.28995   0.66986   0.00000  Uiso   1.00
H1078  H     0.89313   0.30042   0.63999   0.00000  Uiso   1.00
C1079  C     0.94709   0.28716   0.66456   0.00000  Uiso   1.00
H1080  H     0.96411   0.31896   0.66131   0.00000  Uiso   1.00
H1081  H     0.96683   0.26844   0.63269   0.00000  Uiso   1.00
H1082  H     0.95039   0.27115   0.69464   0.00000  Uiso   1.00
N1083  N     0.76242   0.04208   0.82432   0.00000  Uiso   1.00
H1084  H     0.76111   0.03232   0.85639   0.00000  Uiso   1.00
C1085  C     0.71493   0.04113   0.82116   0.00000  Uiso   1.00
H1086  H     0.70314   0.00835   0.81720   0.00000  Uiso   1.00
H1087  H     0.71543   0.05986   0.79125   0.00000  Uiso   1.00
H1088  H     0.68793   0.05482   0.85325   0.00000  Uiso   1.00
F1089  F     0.89592   0.04416   0.67473   0.00000  Uiso   1.00
F1090  F     0.76924   0.28894   0.82257   0.00000  Uiso   1.00
F1091  F     0.96864   0.10660   0.70254   0.00000  Uiso   1.00
F1092  F     0.70014   0.22957   0.79239   0.00000  Uiso   1.00
N1093  N     0.72990   0.10115   0.70627   0.00000  Uiso   1.00
H1094  H     0.76272   0.10912   0.68140   0.00000  Uiso   1.00
C1095  C     0.71150   0.05950   0.70145   0.00000  Uiso   1.00
H1096  H     0.73924   0.03606   0.69965   0.00000  Uiso   1.00
H1097  H     0.70405   0.05700   0.66876   0.00000  Uiso   1.00
H1098  H     0.67828   0.05197   0.73188   0.00000  Uiso   1.00
N1099  N     0.93762   0.23262   0.79287   0.00000  Uiso   1.00
H1100  H     0.93959   0.25529   0.76906   0.00000  Uiso   1.00
C1101  C     0.93788   0.25093   0.83615   0.00000  Uiso   1.00
H1102  H     0.96762   0.27457   0.82944   0.00000  Uiso   1.00
H1103  H     0.94120   0.22642   0.85967   0.00000  Uiso   1.00
H1104  H     0.90373   0.26793   0.85355   0.00000  Uiso   1.00
C1105  C     0.16754   0.57979   0.74898   0.00000  Uiso   1.00
C1106  C     0.16601   0.42012   0.75028   0.00000  Uiso   1.00
C1107  C     0.12400   0.45138   0.54166   0.00000  Uiso   1.00
C1108  C     0.22876   0.49043   0.94354   0.00000  Uiso   1.00
C1109  C     0.09216   0.44078   0.51920   0.00000  Uiso   1.00
C1110  C     0.26327   0.49500   0.96431   0.00000  Uiso   1.00
C1111  C     0.20046   0.64534   0.71064   0.00000  Uiso   1.00
C1112  C     0.13145   0.35417   0.78668   0.00000  Uiso   1.00
C1113  C     0.19895   0.35538   0.71139   0.00000  Uiso   1.00
C1114  C     0.13409   0.64436   0.78662   0.00000  Uiso   1.00
C1115  C     0.16510   0.37592   0.74950   0.00000  Uiso   1.00
C1116  C     0.16835   0.62388   0.74900   0.00000  Uiso   1.00
C1117  C     0.31684   0.46893   0.72746   0.00000  Uiso   1.00
C1118  C     0.01681   0.53138   0.77186   0.00000  Uiso   1.00
C1119  C     0.03133   0.46796   0.72835   0.00000  Uiso   1.00
C1120  C     0.30177   0.53148   0.77253   0.00000  Uiso   1.00
C1121  C     0.13641   0.49905   0.83785   0.00000  Uiso   1.00
C1122  C     0.19676   0.50109   0.66187   0.00000  Uiso   1.00
C1123  C     0.11776   0.49066   0.88758   0.00000  Uiso   1.00
C1124  C     0.21514   0.50112   0.61066   0.00000  Uiso   1.00
C1125  C     0.06852   0.44726   0.95150   0.00000  Uiso   1.00
C1126  C     0.28162   0.50190   0.53563   0.00000  Uiso   1.00
C1127  C     0.07850   0.46293   0.90712   0.00000  Uiso   1.00
C1128  C     0.26518   0.50258   0.58423   0.00000  Uiso   1.00
C1129  C     0.14512   0.50456   0.91364   0.00000  Uiso   1.00
C1130  C     0.18223   0.49843   0.58726   0.00000  Uiso   1.00
C1131  C     0.14266   0.48113   0.95247   0.00000  Uiso   1.00
C1132  C     0.19933   0.48749   0.54001   0.00000  Uiso   1.00
C1133  C     0.10067   0.45610   0.97464   0.00000  Uiso   1.00
C1134  C     0.24874   0.49451   0.51299   0.00000  Uiso   1.00
C1135  C     0.17947   0.48320   0.97108   0.00000  Uiso   1.00
C1136  C     0.16699   0.47459   0.51832   0.00000  Uiso   1.00
N1137  N     0.04759   0.50001   0.75001   0.00000  Uiso   1.00
N1138  N     0.28574   0.49999   0.74999   0.00000  Uiso   1.00
O1139  O     0.12846   0.56108   0.75000   0.00000  Uiso   1.00
O1140  O     0.20488   0.43892   0.74999   0.00000  Uiso   1.00
O1141  O     0.20490   0.56107   0.75000   0.00000  Uiso   1.00
O1142  O     0.12843   0.43893   0.75000   0.00000  Uiso   1.00
O1143  O     0.10661   0.50001   0.81612   0.00000  Uiso   1.00
O1144  O     0.22672   0.49999   0.68388   0.00000  Uiso   1.00
O1145  O     0.18305   0.50000   0.81612   0.00000  Uiso   1.00
O1146  O     0.15028   0.50000   0.68388   0.00000  Uiso   1.00
Zn1147 Zn    0.11562   0.50001   0.75000   0.00000  Uiso   1.00
Zn1148 Zn    0.21771   0.49999   0.75000   0.00000  Uiso   1.00
F1149  F     0.05250   0.41668   0.54178   0.00000  Uiso   1.00
F1150  F     0.31009   0.50238   0.93685   0.00000  Uiso   1.00
N1151  N     0.13462   0.51522   0.60703   0.00000  Uiso   1.00
H1152  H     0.10898   0.49853   0.63288   0.00000  Uiso   1.00
C1153  C     0.13220   0.56040   0.61314   0.00000  Uiso   1.00
H1154  H     0.09396   0.57026   0.62414   0.00000  Uiso   1.00
H1155  H     0.15334   0.57588   0.57977   0.00000  Uiso   1.00
H1156  H     0.14659   0.57080   0.64022   0.00000  Uiso   1.00
N1157  N     0.16832   0.54514   0.90503   0.00000  Uiso   1.00
H1158  H     0.18942   0.55283   0.92413   0.00000  Uiso   1.00
C1159  C     0.13603   0.57938   0.90757   0.00000  Uiso   1.00
H1160  H     0.15621   0.60978   0.90200   0.00000  Uiso   1.00
H1161  H     0.10658   0.58056   0.94245   0.00000  Uiso   1.00
H1162  H     0.12003   0.57570   0.88041   0.00000  Uiso   1.00
F1163  F     0.29814   0.50712   0.60507   0.00000  Uiso   1.00
F1164  F     0.04991   0.45107   0.88330   0.00000  Uiso   1.00
F1165  F     0.02900   0.42198   0.97047   0.00000  Uiso   1.00
F1166  F     0.32949   0.50828   0.51118   0.00000  Uiso   1.00
F1167  F     0.11539   0.43483   0.58412   0.00000  Uiso   1.00
F1168  F     0.24408   0.48986   0.89636   0.00000  Uiso   1.00
N1169  N     0.23016   0.62329   0.66986   0.00000  Uiso   1.00
H1170  H     0.22647   0.63375   0.63999   0.00000  Uiso   1.00
C1171  C     0.28043   0.62049   0.66456   0.00000  Uiso   1.00
H1172  H     0.29745   0.65229   0.66131   0.00000  Uiso   1.00
H1173  H     0.30016   0.60177   0.63269   0.00000  Uiso   1.00
H1174  H     0.28373   0.60449   0.69464   0.00000  Uiso   1.00
N1175  N     0.09575   0.37541   0.82432   0.00000  Uiso   1.00
H1176  H     0.09444   0.36566   0.85639   0.00000  Uiso   1.00
C1177  C     0.04827   0.37447   0.82116   0.00000  Uiso   1.00
H1178  H     0.03647   0.34169   0.81720   0.00000  Uiso   1.00
H1179  H     0.04877   0.39319   0.79125   0.00000  Uiso   1.00
H1180  H     0.02126   0.38816   0.85325   0.00000  Uiso   1.00
F1181  F     0.22926   0.37749   0.67473   0.00000  Uiso   1.00
F1182  F     0.10257   0.62227   0.82257   0.00000  Uiso   1.00
F1183  F     0.30197   0.43994   0.70254   0.00000  Uiso   1.00
F1184  F     0.03348   0.56291   0.79239   0.00000  Uiso   1.00
N1185  N     0.06323   0.43448   0.70627   0.00000  Uiso   1.00
H1186  H     0.09605   0.44246   0.68140   0.00000  Uiso   1.00
C1187  C     0.04483   0.39284   0.70145   0.00000  Uiso   1.00
H1188  H     0.07258   0.36939   0.69965   0.00000  Uiso   1.00
H1189  H     0.03738   0.39033   0.66876   0.00000  Uiso   1.00
H1190  H     0.01161   0.38530   0.73188   0.00000  Uiso   1.00
N1191  N     0.27096   0.56596   0.79287   0.00000  Uiso   1.00
H1192  H     0.27293   0.58863   0.76906   0.00000  Uiso   1.00
C1193  C     0.27121   0.58427   0.83615   0.00000  Uiso   1.00
H1194  H     0.30095   0.60790   0.82944   0.00000  Uiso   1.00
H1195  H     0.27453   0.55975   0.85967   0.00000  Uiso   1.00
H1196  H     0.23707   0.60126   0.85355   0.00000  Uiso   1.00
C1197  C     0.50087   0.57979   0.74898   0.00000  Uiso   1.00
C1198  C     0.49934   0.42012   0.75028   0.00000  Uiso   1.00
C1199  C     0.45733   0.45138   0.54166   0.00000  Uiso   1.00
C1200  C     0.56209   0.49043   0.94354   0.00000  Uiso   1.00
C1201  C     0.42549   0.44078   0.51920   0.00000  Uiso   1.00
C1202  C     0.59660   0.49500   0.96431   0.00000  Uiso   1.00
C1203  C     0.53380   0.64534   0.71064   0.00000  Uiso   1.00
C1204  C     0.46478   0.35417   0.78668   0.00000  Uiso   1.00
C1205  C     0.53228   0.35538   0.71139   0.00000  Uiso   1.00
C1206  C     0.46742   0.64436   0.78662   0.00000  Uiso   1.00
C1207  C     0.49844   0.37592   0.74950   0.00000  Uiso   1.00
C1208  C     0.50169   0.62388   0.74900   0.00000  Uiso   1.00
C1209  C     0.65018   0.46893   0.72746   0.00000  Uiso   1.00
C1210  C     0.35014   0.53138   0.77186   0.00000  Uiso   1.00
C1211  C     0.36466   0.46796   0.72835   0.00000  Uiso   1.00
C1212  C     0.63510   0.53148   0.77253   0.00000  Uiso   1.00
C1213  C     0.46974   0.49905   0.83785   0.00000  Uiso   1.00
C1214  C     0.53010   0.50109   0.66187   0.00000  Uiso   1.00
C1215  C     0.45110   0.49066   0.88758   0.00000  Uiso   1.00
C1216  C     0.54847   0.50112   0.61066   0.00000  Uiso   1.00
C1217  C     0.40186   0.44726   0.95150   0.00000  Uiso   1.00
C1218  C     0.61496   0.50190   0.53563   0.00000  Uiso   1.00
C1219  C     0.41184   0.46293   0.90712   0.00000  Uiso   1.00
C1220  C     0.59851   0.50258   0.58423   0.00000  Uiso   1.00
C1221  C     0.47845   0.50456   0.91364   0.00000  Uiso   1.00
C1222  C     0.51556   0.49843   0.58726   0.00000  Uiso   1.00
C1223  C     0.47599   0.48113   0.95247   0.00000  Uiso   1.00
C1224  C     0.53267   0.48749   0.54001   0.00000  Uiso   1.00
C1225  C     0.43400   0.45610   0.97464   0.00000  Uiso   1.00
C1226  C     0.58208   0.49451   0.51299   0.00000  Uiso   1.00
C1227  C     0.51280   0.48320   0.97108   0.00000  Uiso   1.00
C1228  C     0.50033   0.47459   0.51832   0.00000  Uiso   1.00
N1229  N     0.38093   0.50001   0.75001   0.00000  Uiso   1.00
N1230  N     0.61907   0.49999   0.74999   0.00000  Uiso   1.00
O1231  O     0.46179   0.56108   0.75000   0.00000  Uiso   1.00
O1232  O     0.53821   0.43892   0.74999   0.00000  Uiso   1.00
O1233  O     0.53823   0.56107   0.75000   0.00000  Uiso   1.00
O1234  O     0.46177   0.43893   0.75000   0.00000  Uiso   1.00
O1235  O     0.43994   0.50001   0.81612   0.00000  Uiso   1.00
O1236  O     0.56006   0.49999   0.68388   0.00000  Uiso   1.00
O1237  O     0.51639   0.50000   0.81612   0.00000  Uiso   1.00
O1238  O     0.48361   0.50000   0.68388   0.00000  Uiso   1.00
Zn1239 Zn    0.44896   0.50001   0.75000   0.00000  Uiso   1.00
Zn1240 Zn    0.55104   0.49999   0.75000   0.00000  Uiso   1.00
F1241  F     0.38583   0.41668   0.54178   0.00000  Uiso   1.00
F1242  F     0.64342   0.50238   0.93685   0.00000  Uiso   1.00
N1243  N     0.46795   0.51522   0.60703   0.00000  Uiso   1.00
H1244  H     0.44232   0.49853   0.63288   0.00000  Uiso   1.00
C1245  C     0.46553   0.56040   0.61314   0.00000  Uiso   1.00
H1246  H     0.42729   0.57026   0.62414   0.00000  Uiso   1.00
H1247  H     0.48667   0.57588   0.57977   0.00000  Uiso   1.00
H1248  H     0.47992   0.57080   0.64022   0.00000  Uiso   1.00
N1249  N     0.50165   0.54514   0.90503   0.00000  Uiso   1.00
H1250  H     0.52275   0.55283   0.92413   0.00000  Uiso   1.00
C1251  C     0.46936   0.57938   0.90757   0.00000  Uiso   1.00
H1252  H     0.48954   0.60978   0.90200   0.00000  Uiso   1.00
H1253  H     0.43992   0.58056   0.94245   0.00000  Uiso   1.00
H1254  H     0.45337   0.57570   0.88041   0.00000  Uiso   1.00
F1255  F     0.63148   0.50712   0.60507   0.00000  Uiso   1.00
F1256  F     0.38324   0.45107   0.88330   0.00000  Uiso   1.00
F1257  F     0.36233   0.42198   0.97047   0.00000  Uiso   1.00
F1258  F     0.66282   0.50828   0.51118   0.00000  Uiso   1.00
F1259  F     0.44873   0.43483   0.58412   0.00000  Uiso   1.00
F1260  F     0.57741   0.48986   0.89636   0.00000  Uiso   1.00
N1261  N     0.56349   0.62329   0.66986   0.00000  Uiso   1.00
H1262  H     0.55980   0.63375   0.63999   0.00000  Uiso   1.00
C1263  C     0.61376   0.62049   0.66456   0.00000  Uiso   1.00
H1264  H     0.63078   0.65229   0.66131   0.00000  Uiso   1.00
H1265  H     0.63349   0.60177   0.63269   0.00000  Uiso   1.00
H1266  H     0.61706   0.60449   0.69464   0.00000  Uiso   1.00
N1267  N     0.42909   0.37541   0.82432   0.00000  Uiso   1.00
H1268  H     0.42777   0.36566   0.85639   0.00000  Uiso   1.00
C1269  C     0.38160   0.37447   0.82116   0.00000  Uiso   1.00
H1270  H     0.36980   0.34169   0.81720   0.00000  Uiso   1.00
H1271  H     0.38210   0.39319   0.79125   0.00000  Uiso   1.00
H1272  H     0.35459   0.38816   0.85325   0.00000  Uiso   1.00
F1273  F     0.56259   0.37749   0.67473   0.00000  Uiso   1.00
F1274  F     0.43591   0.62227   0.82257   0.00000  Uiso   1.00
F1275  F     0.63530   0.43994   0.70254   0.00000  Uiso   1.00
F1276  F     0.36681   0.56291   0.79239   0.00000  Uiso   1.00
N1277  N     0.39657   0.43448   0.70627   0.00000  Uiso   1.00
H1278  H     0.42939   0.44246   0.68140   0.00000  Uiso   1.00
C1279  C     0.37816   0.39284   0.70145   0.00000  Uiso   1.00
H1280  H     0.40591   0.36939   0.69965   0.00000  Uiso   1.00
H1281  H     0.37072   0.39033   0.66876   0.00000  Uiso   1.00
H1282  H     0.34495   0.38530   0.73188   0.00000  Uiso   1.00
N1283  N     0.60429   0.56596   0.79287   0.00000  Uiso   1.00
H1284  H     0.60626   0.58863   0.76906   0.00000  Uiso   1.00
C1285  C     0.60454   0.58427   0.83615   0.00000  Uiso   1.00
H1286  H     0.63429   0.60790   0.82944   0.00000  Uiso   1.00
H1287  H     0.60786   0.55975   0.85967   0.00000  Uiso   1.00
H1288  H     0.57040   0.60126   0.85355   0.00000  Uiso   1.00
C1289  C     0.83420   0.57979   0.74898   0.00000  Uiso   1.00
C1290  C     0.83268   0.42012   0.75028   0.00000  Uiso   1.00
C1291  C     0.79066   0.45138   0.54166   0.00000  Uiso   1.00
C1292  C     0.89543   0.49043   0.94354   0.00000  Uiso   1.00
C1293  C     0.75883   0.44078   0.51920   0.00000  Uiso   1.00
C1294  C     0.92994   0.49500   0.96431   0.00000  Uiso   1.00
C1295  C     0.86713   0.64534   0.71064   0.00000  Uiso   1.00
C1296  C     0.79812   0.35417   0.78668   0.00000  Uiso   1.00
C1297  C     0.86561   0.35538   0.71139   0.00000  Uiso   1.00
C1298  C     0.80075   0.64436   0.78662   0.00000  Uiso   1.00
C1299  C     0.83177   0.37592   0.74950   0.00000  Uiso   1.00
C1300  C     0.83502   0.62388   0.74900   0.00000  Uiso   1.00
C1301  C     0.98351   0.46893   0.72746   0.00000  Uiso   1.00
C1302  C     0.68347   0.53138   0.77186   0.00000  Uiso   1.00
C1303  C     0.69799   0.46796   0.72835   0.00000  Uiso   1.00
C1304  C     0.96844   0.53148   0.77253   0.00000  Uiso   1.00
C1305  C     0.80308   0.49905   0.83785   0.00000  Uiso   1.00
C1306  C     0.86343   0.50109   0.66187   0.00000  Uiso   1.00
C1307  C     0.78443   0.49066   0.88758   0.00000  Uiso   1.00
C1308  C     0.88180   0.50112   0.61066   0.00000  Uiso   1.00
C1309  C     0.73519   0.44726   0.95150   0.00000  Uiso   1.00
C1310  C     0.94829   0.50190   0.53563   0.00000  Uiso   1.00
C1311  C     0.74517   0.46293   0.90712   0.00000  Uiso   1.00
C1312  C     0.93185   0.50258   0.58423   0.00000  Uiso   1.00
C1313  C     0.81178   0.50456   0.91364   0.00000  Uiso   1.00
C1314  C     0.84890   0.49843   0.58726   0.00000  Uiso   1.00
C1315  C     0.80933   0.48113   0.95247   0.00000  Uiso   1.00
C1316  C     0.86600   0.48749   0.54001   0.00000  Uiso   1.00
C1317  C     0.76734   0.45610   0.97464   0.00000  Uiso   1.00
C1318  C     0.91541   0.49451   0.51299   0.00000  Uiso   1.00
C1319  C     0.84614   0.48320   0.97108   0.00000  Uiso   1.00
C1320  C     0.83366   0.47459   0.51832   0.00000  Uiso   1.00
N1321  N     0.71426   0.50001   0.75001   0.00000  Uiso   1.00
N1322  N     0.95241   0.49999   0.74999   0.00000  Uiso   1.00
O1323  O     0.79512   0.56108   0.75000   0.00000  Uiso   1.00
O1324  O     0.87154   0.43892   0.74999   0.00000  Uiso   1.00
O1325  O     0.87157   0.56107   0.75000   0.00000  Uiso   1.00
O1326  O     0.79510   0.43893   0.75000   0.00000  Uiso   1.00
O1327  O     0.77328   0.50001   0.81612   0.00000  Uiso   1.00
O1328  O     0.89339   0.49999   0.68388   0.00000  Uiso   1.00
O1329  O     0.84972   0.50000   0.81612   0.00000  Uiso   1.00
O1330  O     0.81695   0.50000   0.68388   0.00000  Uiso   1.00
Zn1331 Zn    0.78229   0.50001   0.75000   0.00000  Uiso   1.00
Zn1332 Zn    0.88438   0.49999   0.75000   0.00000  Uiso   1.00
F1333  F     0.71917   0.41668   0.54178   0.00000  Uiso   1.00
F1334  F     0.97675   0.50238   0.93685   0.00000  Uiso   1.00
N1335  N     0.80128   0.51522   0.60703   0.00000  Uiso   1.00
H1336  H     0.77565   0.49853   0.63288   0.00000  Uiso   1.00
C1337  C     0.79887   0.56040   0.61314   0.00000  Uiso   1.00
H1338  H     0.76062   0.57026   0.62414   0.00000  Uiso   1.00
H1339  H     0.82000   0.57588   0.57977   0.00000  Uiso   1.00
H1340  H     0.81326   0.57080   0.64022   0.00000  Uiso   1.00
N1341  N     0.83499   0.54514   0.90503   0.00000  Uiso   1.00
H1342  H     0.85609   0.55283   0.92413   0.00000  Uiso   1.00
C1343  C     0.80269   0.57938   0.90757   0.00000  Uiso   1.00
H1344  H     0.82288   0.60978   0.90200   0.00000  Uiso   1.00
H1345  H     0.77325   0.58056   0.94245   0.00000  Uiso   1.00
H1346  H     0.78670   0.57570   0.88041   0.00000  Uiso   1.00
F1347  F     0.96481   0.50712   0.60507   0.00000  Uiso   1.00
F1348  F     0.71657   0.45107   0.88330   0.00000  Uiso   1.00
F1349  F     0.69566   0.42198   0.97047   0.00000  Uiso   1.00
F1350  F     0.99616   0.50828   0.51118   0.00000  Uiso   1.00
F1351  F     0.78206   0.43483   0.58412   0.00000  Uiso   1.00
F1352  F     0.91074   0.48986   0.89636   0.00000  Uiso   1.00
N1353  N     0.89682   0.62329   0.66986   0.00000  Uiso   1.00
H1354  H     0.89313   0.63375   0.63999   0.00000  Uiso   1.00
C1355  C     0.94709   0.62049   0.66456   0.00000  Uiso   1.00
H1356  H     0.96411   0.65229   0.66131   0.00000  Uiso   1.00
H1357  H     0.96683   0.60177   0.63269   0.00000  Uiso   1.00
H1358  H     0.95039   0.60449   0.69464   0.00000  Uiso   1.00
N1359  N     0.76242   0.37541   0.82432   0.00000  Uiso   1.00
H1360  H     0.76111   0.36566   0.85639   0.00000  Uiso   1.00
C1361  C     0.71493   0.37447   0.82116   0.00000  Uiso   1.00
H1362  H     0.70314   0.34169   0.81720   0.00000  Uiso   1.00
H1363  H     0.71543   0.39319   0.79125   0.00000  Uiso   1.00
H1364  H     0.68793   0.38816   0.85325   0.00000  Uiso   1.00
F1365  F     0.89592   0.37749   0.67473   0.00000  Uiso   1.00
F1366  F     0.76924   0.62227   0.82257   0.00000  Uiso   1.00
F1367  F     0.96864   0.43994   0.70254   0.00000  Uiso   1.00
F1368  F     0.70014   0.56291   0.79239   0.00000  Uiso   1.00
N1369  N     0.72990   0.43448   0.70627   0.00000  Uiso   1.00
H1370  H     0.76272   0.44246   0.68140   0.00000  Uiso   1.00
C1371  C     0.71150   0.39284   0.70145   0.00000  Uiso   1.00
H1372  H     0.73924   0.36939   0.69965   0.00000  Uiso   1.00
H1373  H     0.70405   0.39033   0.66876   0.00000  Uiso   1.00
H1374  H     0.67828   0.38530   0.73188   0.00000  Uiso   1.00
N1375  N     0.93762   0.56596   0.79287   0.00000  Uiso   1.00
H1376  H     0.93959   0.58863   0.76906   0.00000  Uiso   1.00
C1377  C     0.93788   0.58427   0.83615   0.00000  Uiso   1.00
H1378  H     0.96762   0.60790   0.82944   0.00000  Uiso   1.00
H1379  H     0.94120   0.55975   0.85967   0.00000  Uiso   1.00
H1380  H     0.90373   0.60126   0.85355   0.00000  Uiso   1.00
C1381  C     0.16754   0.91312   0.74898   0.00000  Uiso   1.00
C1382  C     0.16601   0.75345   0.75028   0.00000  Uiso   1.00
C1383  C     0.12400   0.78471   0.54166   0.00000  Uiso   1.00
C1384  C     0.22876   0.82376   0.94354   0.00000  Uiso   1.00
C1385  C     0.09216   0.77411   0.51920   0.00000  Uiso   1.00
C1386  C     0.26327   0.82834   0.96431   0.00000  Uiso   1.00
C1387  C     0.20046   0.97868   0.71064   0.00000  Uiso   1.00
C1388  C     0.13145   0.68750   0.78668   0.00000  Uiso   1.00
C1389  C     0.19895   0.68872   0.71139   0.00000  Uiso   1.00
C1390  C     0.13409   0.97769   0.78662   0.00000  Uiso   1.00
C1391  C     0.16510   0.70926   0.74950   0.00000  Uiso   1.00
C1392  C     0.16835   0.95721   0.74900   0.00000  Uiso   1.00
C1393  C     0.31684   0.80226   0.72746   0.00000  Uiso   1.00
C1394  C     0.01681   0.86472   0.77186   0.00000  Uiso   1.00
C1395  C     0.03133   0.80129   0.72835   0.00000  Uiso   1.00
C1396  C     0.30177   0.86482   0.77253   0.00000  Uiso   1.00
C1397  C     0.13641   0.83238   0.83785   0.00000  Uiso   1.00
C1398  C     0.19676   0.83443   0.66187   0.00000  Uiso   1.00
C1399  C     0.11776   0.82399   0.88758   0.00000  Uiso   1.00
C1400  C     0.21514   0.83445   0.61066   0.00000  Uiso   1.00
C1401  C     0.06852   0.78059   0.95150   0.00000  Uiso   1.00
C1402  C     0.28162   0.83523   0.53563   0.00000  Uiso   1.00
C1403  C     0.07850   0.79626   0.90712   0.00000  Uiso   1.00
C1404  C     0.26518   0.83591   0.58423   0.00000  Uiso   1.00
C1405  C     0.14512   0.83789   0.91364   0.00000  Uiso   1.00
C1406  C     0.18223   0.83177   0.58726   0.00000  Uiso   1.00
C1407  C     0.14266   0.81446   0.95247   0.00000  Uiso   1.00
C1408  C     0.19933   0.82082   0.54001   0.00000  Uiso   1.00
C1409  C     0.10067   0.78943   0.97464   0.00000  Uiso   1.00
C1410  C     0.24874   0.82784   0.51299   0.00000  Uiso   1.00
C1411  C     0.17947   0.81653   0.97108   0.00000  Uiso   1.00
C1412  C     0.16699   0.80793   0.51832   0.00000  Uiso   1.00
N1413  N     0.04759   0.83334   0.75001   0.00000  Uiso   1.00
N1414  N     0.28574   0.83332   0.74999   0.00000  Uiso   1.00
O1415  O     0.12846   0.89442   0.75000   0.00000  Uiso   1.00
O1416  O     0.20488   0.77225   0.74999   0.00000  Uiso   1.00
O1417  O     0.20490   0.89441   0.75000   0.00000  Uiso   1.00
O1418  O     0.12843   0.77226   0.75000   0.00000  Uiso   1.00
O1419  O     0.10661   0.83334   0.81612   0.00000  Uiso   1.00
O1420  O     0.22672   0.83333   0.68388   0.00000  Uiso   1.00
O1421  O     0.18305   0.83333   0.81612   0.00000  Uiso   1.00
O1422  O     0.15028   0.83334   0.68388   0.00000  Uiso   1.00
Zn1423 Zn    0.11562   0.83334   0.75000   0.00000  Uiso   1.00
Zn1424 Zn    0.21771   0.83333   0.75000   0.00000  Uiso   1.00
F1425  F     0.05250   0.75001   0.54178   0.00000  Uiso   1.00
F1426  F     0.31009   0.83571   0.93685   0.00000  Uiso   1.00
N1427  N     0.13462   0.84856   0.60703   0.00000  Uiso   1.00
H1428  H     0.10898   0.83186   0.63288   0.00000  Uiso   1.00
C1429  C     0.13220   0.89374   0.61314   0.00000  Uiso   1.00
H1430  H     0.09396   0.90359   0.62414   0.00000  Uiso   1.00
H1431  H     0.15334   0.90922   0.57977   0.00000  Uiso   1.00
H1432  H     0.14659   0.90413   0.64022   0.00000  Uiso   1.00
N1433  N     0.16832   0.87847   0.90503   0.00000  Uiso   1.00
H1434  H     0.18942   0.88616   0.92413   0.00000  Uiso   1.00
C1435  C     0.13603   0.91271   0.90757   0.00000  Uiso   1.00
H1436  H     0.15621   0.94311   0.90200   0.00000  Uiso   1.00
H1437  H     0.10658   0.91389   0.94245   0.00000  Uiso   1.00
H1438  H     0.12003   0.90903   0.88041   0.00000  Uiso   1.00
F1439  F     0.29814   0.84045   0.60507   0.00000  Uiso   1.00
F1440  F     0.04991   0.78441   0.88330   0.00000  Uiso   1.00
F1441  F     0.02900   0.75532   0.97047   0.00000  Uiso   1.00
F1442  F     0.32949   0.84161   0.51118   0.00000  Uiso   1.00
F1443  F     0.11539   0.76816   0.58412   0.00000  Uiso   1.00
F1444  F     0.24408   0.82319   0.89636   0.00000  Uiso   1.00
N1445  N     0.23016   0.95662   0.66986   0.00000  Uiso   1.00
H1446  H     0.22647   0.96708   0.63999   0.00000  Uiso   1.00
C1447  C     0.28043   0.95382   0.66456   0.00000  Uiso   1.00
H1448  H     0.29745   0.98563   0.66131   0.00000  Uiso   1.00
H1449  H     0.30016   0.93510   0.63269   0.00000  Uiso   1.00
H1450  H     0.28373   0.93782   0.69464   0.00000  Uiso   1.00
N1451  N     0.09575   0.70875   0.82432   0.00000  Uiso   1.00
H1452  H     0.09444   0.69899   0.85639   0.00000  Uiso   1.00
C1453  C     0.04827   0.70780   0.82116   0.00000  Uiso   1.00
H1454  H     0.03647   0.67502   0.81720   0.00000  Uiso   1.00
H1455  H     0.04877   0.72652   0.79125   0.00000  Uiso   1.00
H1456  H     0.02126   0.72149   0.85325   0.00000  Uiso   1.00
F1457  F     0.22926   0.71083   0.67473   0.00000  Uiso   1.00
F1458  F     0.10257   0.95561   0.82257   0.00000  Uiso   1.00
F1459  F     0.30197   0.77327   0.70254   0.00000  Uiso   1.00
F1460  F     0.03348   0.89624   0.79239   0.00000  Uiso   1.00
N1461  N     0.06323   0.76781   0.70627   0.00000  Uiso   1.00
H1462  H     0.09605   0.77579   0.68140   0.00000  Uiso   1.00
C1463  C     0.04483   0.72617   0.70145   0.00000  Uiso   1.00
H1464  H     0.07258   0.70273   0.69965   0.00000  Uiso   1.00
H1465  H     0.03738   0.72366   0.66876   0.00000  Uiso   1.00
H1466  H     0.01161   0.71864   0.73188   0.00000  Uiso   1.00
N1467  N     0.27096   0.89929   0.79287   0.00000  Uiso   1.00
H1468  H     0.27293   0.92196   0.76906   0.00000  Uiso   1.00
C1469  C     0.27121   0.91760   0.83615   0.00000  Uiso   1.00
H1470  H     0.30095   0.94124   0.82944   0.00000  Uiso   1.00
H1471  H     0.27453   0.89309   0.85967   0.00000  Uiso   1.00
H1472  H     0.23707   0.93460   0.85355   0.00000  Uiso   1.00
C1473  C     0.50087   0.91312   0.74898   0.00000  Uiso   1.00
C1474  C     0.49934   0.75345   0.75028   0.00000  Uiso   1.00
C1475  C     0.45733   0.78471   0.54166   0.00000  Uiso   1.00
C1476  C     0.56209   0.82376   0.94354   0.00000  Uiso   1.00
C1477  C     0.42549   0.77411   0.51920   0.00000  Uiso   1.00
C1478  C     0.59660   0.82834   0.96431   0.00000  Uiso   1.00
C1479  C     0.53380   0.97868   0.71064   0.00000  Uiso   1.00
C1480  C     0.46478   0.68750   0.78668   0.00000  Uiso   1.00
C1481  C     0.53228   0.68872   0.71139   0.00000  Uiso   1.00
C1482  C     0.46742   0.97769   0.78662   0.00000  Uiso   1.00
C1483  C     0.49844   0.70926   0.74950   0.00000  Uiso   1.00
C1484  C     0.50169   0.95721   0.74900   0.00000  Uiso   1.00
C1485  C     0.65018   0.80226   0.72746   0.00000  Uiso   1.00
C1486  C     0.35014   0.86472   0.77186   0.00000  Uiso   1.00
C1487  C     0.36466   0.80129   0.72835   0.00000  Uiso   1.00
C1488  C     0.63510   0.86482   0.77253   0.00000  Uiso   1.00
C1489  C     0.46974   0.83238   0.83785   0.00000  Uiso   1.00
C1490  C     0.53010   0.83443   0.66187   0.00000  Uiso   1.00
C1491  C     0.45110   0.82399   0.88758   0.00000  Uiso   1.00
C1492  C     0.54847   0.83445   0.61066   0.00000  Uiso   1.00
C1493  C     0.40186   0.78059   0.95150   0.00000  Uiso   1.00
C1494  C     0.61496   0.83523   0.53563   0.00000  Uiso   1.00
C1495  C     0.41184   0.79626   0.90712   0.00000  Uiso   1.00
C1496  C     0.59851   0.83591   0.58423   0.00000  Uiso   1.00
C1497  C     0.47845   0.83789   0.91364   0.00000  Uiso   1.00
C1498  C     0.51556   0.83177   0.58726   0.00000  Uiso   1.00
C1499  C     0.47599   0.81446   0.95247   0.00000  Uiso   1.00
C1500  C     0.53267   0.82082   0.54001   0.00000  Uiso   1.00
C1501  C     0.43400   0.78943   0.97464   0.00000  Uiso   1.00
C1502  C     0.58208   0.82784   0.51299   0.00000  Uiso   1.00
C1503  C     0.51280   0.81653   0.97108   0.00000  Uiso   1.00
C1504  C     0.50033   0.80793   0.51832   0.00000  Uiso   1.00
N1505  N     0.38093   0.83334   0.75001   0.00000  Uiso   1.00
N1506  N     0.61907   0.83332   0.74999   0.00000  Uiso   1.00
O1507  O     0.46179   0.89442   0.75000   0.00000  Uiso   1.00
O1508  O     0.53821   0.77225   0.74999   0.00000  Uiso   1.00
O1509  O     0.53823   0.89441   0.75000   0.00000  Uiso   1.00
O1510  O     0.46177   0.77226   0.75000   0.00000  Uiso   1.00
O1511  O     0.43994   0.83334   0.81612   0.00000  Uiso   1.00
O1512  O     0.56006   0.83333   0.68388   0.00000  Uiso   1.00
O1513  O     0.51639   0.83333   0.81612   0.00000  Uiso   1.00
O1514  O     0.48361   0.83334   0.68388   0.00000  Uiso   1.00
Zn1515 Zn    0.44896   0.83334   0.75000   0.00000  Uiso   1.00
Zn1516 Zn    0.55104   0.83333   0.75000   0.00000  Uiso   1.00
F1517  F     0.38583   0.75001   0.54178   0.00000  Uiso   1.00
F1518  F     0.64342   0.83571   0.93685   0.00000  Uiso   1.00
N1519  N     0.46795   0.84856   0.60703   0.00000  Uiso   1.00
H1520  H     0.44232   0.83186   0.63288   0.00000  Uiso   1.00
C1521  C     0.46553   0.89374   0.61314   0.00000  Uiso   1.00
H1522  H     0.42729   0.90359   0.62414   0.00000  Uiso   1.00
H1523  H     0.48667   0.90922   0.57977   0.00000  Uiso   1.00
H1524  H     0.47992   0.90413   0.64022   0.00000  Uiso   1.00
N1525  N     0.50165   0.87847   0.90503   0.00000  Uiso   1.00
H1526  H     0.52275   0.88616   0.92413   0.00000  Uiso   1.00
C1527  C     0.46936   0.91271   0.90757   0.00000  Uiso   1.00
H1528  H     0.48954   0.94311   0.90200   0.00000  Uiso   1.00
H1529  H     0.43992   0.91389   0.94245   0.00000  Uiso   1.00
H1530  H     0.45337   0.90903   0.88041   0.00000  Uiso   1.00
F1531  F     0.63148   0.84045   0.60507   0.00000  Uiso   1.00
F1532  F     0.38324   0.78441   0.88330   0.00000  Uiso   1.00
F1533  F     0.36233   0.75532   0.97047   0.00000  Uiso   1.00
F1534  F     0.66282   0.84161   0.51118   0.00000  Uiso   1.00
F1535  F     0.44873   0.76816   0.58412   0.00000  Uiso   1.00
F1536  F     0.57741   0.82319   0.89636   0.00000  Uiso   1.00
N1537  N     0.56349   0.95662   0.66986   0.00000  Uiso   1.00
H1538  H     0.55980   0.96708   0.63999   0.00000  Uiso   1.00
C1539  C     0.61376   0.95382   0.66456   0.00000  Uiso   1.00
H1540  H     0.63078   0.98563   0.66131   0.00000  Uiso   1.00
H1541  H     0.63349   0.93510   0.63269   0.00000  Uiso   1.00
H1542  H     0.61706   0.93782   0.69464   0.00000  Uiso   1.00
N1543  N     0.42909   0.70875   0.82432   0.00000  Uiso   1.00
H1544  H     0.42777   0.69899   0.85639   0.00000  Uiso   1.00
C1545  C     0.38160   0.70780   0.82116   0.00000  Uiso   1.00
H1546  H     0.36980   0.67502   0.81720   0.00000  Uiso   1.00
H1547  H     0.38210   0.72652   0.79125   0.00000  Uiso   1.00
H1548  H     0.35459   0.72149   0.85325   0.00000  Uiso   1.00
F1549  F     0.56259   0.71083   0.67473   0.00000  Uiso   1.00
F1550  F     0.43591   0.95561   0.82257   0.00000  Uiso   1.00
F1551  F     0.63530   0.77327   0.70254   0.00000  Uiso   1.00
F1552  F     0.36681   0.89624   0.79239   0.00000  Uiso   1.00
N1553  N     0.39657   0.76781   0.70627   0.00000  Uiso   1.00
H1554  H     0.42939   0.77579   0.68140   0.00000  Uiso   1.00
C1555  C     0.37816   0.72617   0.70145   0.00000  Uiso   1.00
H1556  H     0.40591   0.70273   0.69965   0.00000  Uiso   1.00
H1557  H     0.37072   0.72366   0.66876   0.00000  Uiso   1.00
H1558  H     0.34495   0.71864   0.73188   0.00000  Uiso   1.00
N1559  N     0.60429   0.89929   0.79287   0.00000  Uiso   1.00
H1560  H     0.60626   0.92196   0.76906   0.00000  Uiso   1.00
C1561  C     0.60454   0.91760   0.83615   0.00000  Uiso   1.00
H1562  H     0.63429   0.94124   0.82944   0.00000  Uiso   1.00
H1563  H     0.60786   0.89309   0.85967   0.00000  Uiso   1.00
H1564  H     0.57040   0.93460   0.85355   0.00000  Uiso   1.00
C1565  C     0.83420   0.91312   0.74898   0.00000  Uiso   1.00
C1566  C     0.83268   0.75345   0.75028   0.00000  Uiso   1.00
C1567  C     0.79066   0.78471   0.54166   0.00000  Uiso   1.00
C1568  C     0.89543   0.82376   0.94354   0.00000  Uiso   1.00
C1569  C     0.75883   0.77411   0.51920   0.00000  Uiso   1.00
C1570  C     0.92994   0.82834   0.96431   0.00000  Uiso   1.00
C1571  C     0.86713   0.97868   0.71064   0.00000  Uiso   1.00
C1572  C     0.79812   0.68750   0.78668   0.00000  Uiso   1.00
C1573  C     0.86561   0.68872   0.71139   0.00000  Uiso   1.00
C1574  C     0.80075   0.97769   0.78662   0.00000  Uiso   1.00
C1575  C     0.83177   0.70926   0.74950   0.00000  Uiso   1.00
C1576  C     0.83502   0.95721   0.74900   0.00000  Uiso   1.00
C1577  C     0.98351   0.80226   0.72746   0.00000  Uiso   1.00
C1578  C     0.68347   0.86472   0.77186   0.00000  Uiso   1.00
C1579  C     0.69799   0.80129   0.72835   0.00000  Uiso   1.00
C1580  C     0.96844   0.86482   0.77253   0.00000  Uiso   1.00
C1581  C     0.80308   0.83238   0.83785   0.00000  Uiso   1.00
C1582  C     0.86343   0.83443   0.66187   0.00000  Uiso   1.00
C1583  C     0.78443   0.82399   0.88758   0.00000  Uiso   1.00
C1584  C     0.88180   0.83445   0.61066   0.00000  Uiso   1.00
C1585  C     0.73519   0.78059   0.95150   0.00000  Uiso   1.00
C1586  C     0.94829   0.83523   0.53563   0.00000  Uiso   1.00
C1587  C     0.74517   0.79626   0.90712   0.00000  Uiso   1.00
C1588  C     0.93185   0.83591   0.58423   0.00000  Uiso   1.00
C1589  C     0.81178   0.83789   0.91364   0.00000  Uiso   1.00
C1590  C     0.84890   0.83177   0.58726   0.00000  Uiso   1.00
C1591  C     0.80933   0.81446   0.95247   0.00000  Uiso   1.00
C1592  C     0.86600   0.82082   0.54001   0.00000  Uiso   1.00
C1593  C     0.76734   0.78943   0.97464   0.00000  Uiso   1.00
C1594  C     0.91541   0.82784   0.51299   0.00000  Uiso   1.00
C1595  C     0.84614   0.81653   0.97108   0.00000  Uiso   1.00
C1596  C     0.83366   0.80793   0.51832   0.00000  Uiso   1.00
N1597  N     0.71426   0.83334   0.75001   0.00000  Uiso   1.00
N1598  N     0.95241   0.83332   0.74999   0.00000  Uiso   1.00
O1599  O     0.79512   0.89442   0.75000   0.00000  Uiso   1.00
O1600  O     0.87154   0.77225   0.74999   0.00000  Uiso   1.00
O1601  O     0.87157   0.89441   0.75000   0.00000  Uiso   1.00
O1602  O     0.79510   0.77226   0.75000   0.00000  Uiso   1.00
O1603  O     0.77328   0.83334   0.81612   0.00000  Uiso   1.00
O1604  O     0.89339   0.83333   0.68388   0.00000  Uiso   1.00
O1605  O     0.84972   0.83333   0.81612   0.00000  Uiso   1.00
O1606  O     0.81695   0.83334   0.68388   0.00000  Uiso   1.00
Zn1607 Zn    0.78229   0.83334   0.75000   0.00000  Uiso   1.00
Zn1608 Zn    0.88438   0.83333   0.75000   0.00000  Uiso   1.00
F1609  F     0.71917   0.75001   0.54178   0.00000  Uiso   1.00
F1610  F     0.97675   0.83571   0.93685   0.00000  Uiso   1.00
N1611  N     0.80128   0.84856   0.60703   0.00000  Uiso   1.00
H1612  H     0.77565   0.83186   0.63288   0.00000  Uiso   1.00
C1613  C     0.79887   0.89374   0.61314   0.00000  Uiso   1.00
H1614  H     0.76062   0.90359   0.62414   0.00000  Uiso   1.00
H1615  H     0.82000   0.90922   0.57977   0.00000  Uiso   1.00
H1616  H     0.81326   0.90413   0.64022   0.00000  Uiso   1.00
N1617  N     0.83499   0.87847   0.90503   0.00000  Uiso   1.00
H1618  H     0.85609   0.88616   0.92413   0.00000  Uiso   1.00
C1619  C     0.80269   0.91271   0.90757   0.00000  Uiso   1.00
H1620  H     0.82288   0.94311   0.90200   0.00000  Uiso   1.00
H1621  H     0.77325   0.91389   0.94245   0.00000  Uiso   1.00
H1622  H     0.78670   0.90903   0.88041   0.00000  Uiso   1.00
F1623  F     0.96481   0.84045   0.60507   0.00000  Uiso   1.00
F1624  F     0.71657   0.78441   0.88330   0.00000  Uiso   1.00
F1625  F     0.69566   0.75532   0.97047   0.00000  Uiso   1.00
F1626  F     0.99616   0.84161   0.51118   0.00000  Uiso   1.00
F1627  F     0.78206   0.76816   0.58412   0.00000  Uiso   1.00
F1628  F     0.91074   0.82319   0.89636   0.00000  Uiso   1.00
N1629  N     0.89682   0.95662   0.66986   0.00000  Uiso   1.00
H1630  H     0.89313   0.96708   0.63999   0.00000  Uiso   1.00
C1631  C     0.94709   0.95382   0.66456   0.00000  Uiso   1.00
H1632  H     0.96411   0.98563   0.66131   0.00000  Uiso   1.00
H1633  H     0.96683   0.93510   0.63269   0.00000  Uiso   1.00
H1634  H     0.95039   0.93782   0.69464   0.00000  Uiso   1.00
N1635  N     0.76242   0.70875   0.82432   0.00000  Uiso   1.00
H1636  H     0.76111   0.69899   0.85639   0.00000  Uiso   1.00
C1637  C     0.71493   0.70780   0.82116   0.00000  Uiso   1.00
H1638  H     0.70314   0.67502   0.81720   0.00000  Uiso   1.00
H1639  H     0.71543   0.72652   0.79125   0.00000  Uiso   1.00
H1640  H     0.68793   0.72149   0.85325   0.00000  Uiso   1.00
F1641  F     0.89592   0.71083   0.67473   0.00000  Uiso   1.00
F1642  F     0.76924   0.95561   0.82257   0.00000  Uiso   1.00
F1643  F     0.96864   0.77327   0.70254   0.00000  Uiso   1.00
F1644  F     0.70014   0.89624   0.79239   0.00000  Uiso   1.00
N1645  N     0.72990   0.76781   0.70627   0.00000  Uiso   1.00
H1646  H     0.76272   0.77579   0.68140   0.00000  Uiso   1.00
C1647  C     0.71150   0.72617   0.70145   0.00000  Uiso   1.00
H1648  H     0.73924   0.70273   0.69965   0.00000  Uiso   1.00
H1649  H     0.70405   0.72366   0.66876   0.00000  Uiso   1.00
H1650  H     0.67828   0.71864   0.73188   0.00000  Uiso   1.00
N1651  N     0.93762   0.89929   0.79287   0.00000  Uiso   1.00
H1652  H     0.93959   0.92196   0.76906   0.00000  Uiso   1.00
C1653  C     0.93788   0.91760   0.83615   0.00000  Uiso   1.00
H1654  H     0.96762   0.94124   0.82944   0.00000  Uiso   1.00
H1655  H     0.94120   0.89309   0.85967   0.00000  Uiso   1.00
H1656  H     0.90373   0.93460   0.85355   0.00000  Uiso   1.00
loop_
_geom_bond_atom_site_label_1
_geom_bond_atom_site_label_2
_geom_bond_distance
_geom_bond_site_symmetry_2
_ccdc_geom_bond_type
C1     O37     1.283   .     A
C1     C12     1.404   .     S
C1     O35     1.283   .     A
C2     C11     1.407   .     S
C2     O38     1.282   .     A
C2     O36     1.285   .     A
C3     C5      1.394   .     A
C3     F63     1.358   .     S
C3     C32     1.416   .     A
C4     C6      1.397   .     A
C4     F64     1.358   .     S
C4     C31     1.415   .     A
C5     F45     1.358   .     S
C5     C857    1.402   1_554 S
C6     F46     1.356   .     S
C6     C858    1.404   .     S
C7     N65     1.425   .     S
C7     C12     1.400   .     A
C7     C285    1.383   .     S
C8     C11     1.401   .     A
C8     N71     1.424   .     S
C8     C562    1.378   1_545 S
C9     F77     1.360   .     S
C9     C11     1.397   .     A
C9     C559    1.383   1_545 S
C10    F78     1.360   .     S
C10    C12     1.393   .     A
C10    C284    1.378   .     S
C13    F79     1.355   .     S
C13    N34     1.362   .     A
C13    C107    1.432   .     S
C14    N33     1.360   .     A
C14    F80     1.353   .     S
C14    C200    1.429   1_455 S
C15    N81     1.428   .     S
C15    N33     1.380   .     A
C15    C197    1.432   1_455 S
C16    N34     1.380   .     A
C16    N87     1.425   .     S
C16    C106    1.429   .     S
C17    O39     1.293   .     A
C17    C19     1.458   .     S
C17    O41     1.299   .     A
C18    O42     1.297   .     A
C18    O40     1.304   .     A
C18    C20     1.472   .     S
C19    C23     1.402   .     A
C19    C25     1.396   .     A
C20    C26     1.412   .     A
C20    C24     1.410   .     A
C21    F61     1.358   .     S
C21    C23     1.394   .     A
C21    C29     1.407   .     A
C22    C24     1.398   .     A
C22    F62     1.357   .     S
C22    C30     1.407   .     A
C23    F60     1.354   .     S
C24    F59     1.358   .     S
C25    N53     1.434   .     S
C25    C27     1.406   .     A
C26    N47     1.430   .     S
C26    C28     1.396   .     A
C27    C29     1.419   .     A
C27    C31     1.409   .     A
C28    C32     1.407   .     A
C28    C30     1.413   .     A
C29    C833    1.402   .     S
C30    C834    1.404   1_554 S
C31    C860    1.400   .     S
C32    C859    1.400   1_554 S
N33    Zn43    2.020   .     S
N34    Zn44    2.020   .     S
O35    Zn43    1.973   .     S
O36    Zn44    1.973   .     S
O37    Zn44    1.991   .     S
O38    Zn43    1.991   .     S
O39    Zn43    1.960   .     S
O40    Zn44    1.960   .     S
O41    Zn44    1.921   .     S
O42    Zn43    1.921   .     S
N47    H48     1.028   .     S
N47    C49     1.447   .     S
C49    H51     1.111   .     S
C49    H52     1.111   .     S
C49    H50     1.110   .     S
N53    H54     1.028   .     S
N53    C55     1.451   .     S
C55    H56     1.110   .     S
C55    H57     1.112   .     S
C55    H58     1.108   .     S
N65    C67     1.446   .     S
N65    H66     1.032   .     S
C67    H68     1.111   .     S
C67    H69     1.111   .     S
C67    H70     1.106   .     S
N71    C73     1.449   .     S
N71    H72     1.032   .     S
C73    H74     1.112   .     S
C73    H75     1.107   .     S
C73    H76     1.109   .     S
N81    H82     1.027   .     S
N81    C83     1.448   .     S
C83    H84     1.110   .     S
C83    H85     1.110   .     S
C83    H86     1.111   .     S
N87    H88     1.028   .     S
N87    C89     1.448   .     S
C89    H91     1.109   .     S
C89    H92     1.106   .     S
C89    H90     1.110   .     S
C93    O129    1.283   .     A
C93    C104    1.404   .     S
C93    O127    1.283   .     A
C94    C103    1.407   .     S
C94    O130    1.282   .     A
C94    O128    1.285   .     A
C95    C97     1.394   .     A
C95    F155    1.358   .     S
C95    C124    1.416   .     A
C96    C98     1.397   .     A
C96    F156    1.358   .     S
C96    C123    1.415   .     A
C97    F137    1.358   .     S
C97    C949    1.402   1_554 S
C98    F138    1.356   .     S
C98    C950    1.404   .     S
C99    N157    1.425   .     S
C99    C104    1.400   .     A
C99    C377    1.383   .     S
C100   C103    1.401   .     A
C100   N163    1.424   .     S
C100   C654    1.378   1_545 S
C101   F169    1.360   .     S
C101   C103    1.397   .     A
C101   C651    1.383   1_545 S
C102   F170    1.360   .     S
C102   C104    1.393   .     A
C102   C376    1.378   .     S
C105   F171    1.355   .     S
C105   N126    1.362   .     A
C105   C199    1.432   .     S
C106   N125    1.360   .     A
C106   F172    1.353   .     S
C107   N173    1.428   .     S
C107   N125    1.380   .     A
C108   N126    1.380   .     A
C108   N179    1.425   .     S
C108   C198    1.429   .     S
C109   O131    1.293   .     A
C109   C111    1.458   .     S
C109   O133    1.299   .     A
C110   O134    1.297   .     A
C110   O132    1.304   .     A
C110   C112    1.472   .     S
C111   C115    1.402   .     A
C111   C117    1.396   .     A
C112   C118    1.412   .     A
C112   C116    1.410   .     A
C113   F153    1.358   .     S
C113   C115    1.394   .     A
C113   C121    1.407   .     A
C114   C116    1.398   .     A
C114   F154    1.357   .     S
C114   C122    1.407   .     A
C115   F152    1.354   .     S
C116   F151    1.358   .     S
C117   N145    1.434   .     S
C117   C119    1.406   .     A
C118   N139    1.430   .     S
C118   C120    1.396   .     A
C119   C121    1.419   .     A
C119   C123    1.409   .     A
C120   C124    1.407   .     A
C120   C122    1.413   .     A
C121   C925    1.402   .     S
C122   C926    1.404   1_554 S
C123   C952    1.400   .     S
C124   C951    1.400   1_554 S
N125   Zn135   2.020   .     S
N126   Zn136   2.020   .     S
O127   Zn135   1.973   .     S
O128   Zn136   1.973   .     S
O129   Zn136   1.991   .     S
O130   Zn135   1.991   .     S
O131   Zn135   1.960   .     S
O132   Zn136   1.960   .     S
O133   Zn136   1.921   .     S
O134   Zn135   1.921   .     S
N139   H140    1.028   .     S
N139   C141    1.447   .     S
C141   H143    1.111   .     S
C141   H144    1.111   .     S
C141   H142    1.110   .     S
N145   H146    1.028   .     S
N145   C147    1.451   .     S
C147   H148    1.110   .     S
C147   H149    1.112   .     S
C147   H150    1.108   .     S
N157   C159    1.446   .     S
N157   H158    1.032   .     S
C159   H160    1.111   .     S
C159   H161    1.111   .     S
C159   H162    1.106   .     S
N163   C165    1.449   .     S
N163   H164    1.032   .     S
C165   H166    1.112   .     S
C165   H167    1.107   .     S
C165   H168    1.109   .     S
N173   H174    1.027   .     S
N173   C175    1.448   .     S
C175   H176    1.110   .     S
C175   H177    1.110   .     S
C175   H178    1.111   .     S
N179   H180    1.028   .     S
N179   C181    1.448   .     S
C181   H183    1.109   .     S
C181   H184    1.106   .     S
C181   H182    1.110   .     S
C185   O221    1.283   .     A
C185   C196    1.404   .     S
C185   O219    1.283   .     A
C186   C195    1.407   .     S
C186   O222    1.282   .     A
C186   O220    1.285   .     A
C187   C189    1.394   .     A
C187   F247    1.358   .     S
C187   C216    1.416   .     A
C188   C190    1.397   .     A
C188   F248    1.358   .     S
C188   C215    1.415   .     A
C189   F229    1.358   .     S
C189   C1041   1.402   1_554 S
C190   F230    1.356   .     S
C190   C1042   1.404   .     S
C191   N249    1.425   .     S
C191   C196    1.400   .     A
C191   C469    1.383   .     S
C192   C195    1.401   .     A
C192   N255    1.424   .     S
C192   C746    1.378   1_545 S
C193   F261    1.360   .     S
C193   C195    1.397   .     A
C193   C743    1.383   1_545 S
C194   F262    1.360   .     S
C194   C196    1.393   .     A
C194   C468    1.378   .     S
C197   F263    1.355   .     S
C197   N218    1.362   .     A
C197   C15     1.432   1_655 S
C198   N217    1.360   .     A
C198   F264    1.353   .     S
C199   N265    1.428   .     S
C199   N217    1.380   .     A
C200   N218    1.380   .     A
C200   N271    1.425   .     S
C200   C14     1.429   1_655 S
C201   O223    1.293   .     A
C201   C203    1.458   .     S
C201   O225    1.299   .     A
C202   O226    1.297   .     A
C202   O224    1.304   .     A
C202   C204    1.472   .     S
C203   C207    1.402   .     A
C203   C209    1.396   .     A
C204   C210    1.412   .     A
C204   C208    1.410   .     A
C205   F245    1.358   .     S
C205   C207    1.394   .     A
C205   C213    1.407   .     A
C206   C208    1.398   .     A
C206   F246    1.357   .     S
C206   C214    1.407   .     A
C207   F244    1.354   .     S
C208   F243    1.358   .     S
C209   N237    1.434   .     S
C209   C211    1.406   .     A
C210   N231    1.430   .     S
C210   C212    1.396   .     A
C211   C213    1.419   .     A
C211   C215    1.409   .     A
C212   C216    1.407   .     A
C212   C214    1.413   .     A
C213   C1017   1.402   .     S
C214   C1018   1.404   1_554 S
C215   C1044   1.400   .     S
C216   C1043   1.400   1_554 S
N217   Zn227   2.020   .     S
N218   Zn228   2.020   .     S
O219   Zn227   1.973   .     S
O220   Zn228   1.973   .     S
O221   Zn228   1.991   .     S
O222   Zn227   1.991   .     S
O223   Zn227   1.960   .     S
O224   Zn228   1.960   .     S
O225   Zn228   1.921   .     S
O226   Zn227   1.921   .     S
N231   H232    1.028   .     S
N231   C233    1.447   .     S
C233   H235    1.111   .     S
C233   H236    1.111   .     S
C233   H234    1.110   .     S
N237   H238    1.028   .     S
N237   C239    1.451   .     S
C239   H240    1.110   .     S
C239   H241    1.112   .     S
C239   H242    1.108   .     S
N249   C251    1.446   .     S
N249   H250    1.032   .     S
C251   H252    1.111   .     S
C251   H253    1.111   .     S
C251   H254    1.106   .     S
N255   C257    1.449   .     S
N255   H256    1.032   .     S
C257   H258    1.112   .     S
C257   H259    1.107   .     S
C257   H260    1.109   .     S
N265   H266    1.027   .     S
N265   C267    1.448   .     S
C267   H268    1.110   .     S
C267   H269    1.110   .     S
C267   H270    1.111   .     S
N271   H272    1.028   .     S
N271   C273    1.448   .     S
C273   H275    1.109   .     S
C273   H276    1.106   .     S
C273   H274    1.110   .     S
C277   O313    1.283   .     A
C277   C288    1.404   .     S
C277   O311    1.283   .     A
C278   C287    1.407   .     S
C278   O314    1.282   .     A
C278   O312    1.285   .     A
C279   C281    1.394   .     A
C279   F339    1.358   .     S
C279   C308    1.416   .     A
C280   C282    1.397   .     A
C280   F340    1.358   .     S
C280   C307    1.415   .     A
C281   F321    1.358   .     S
C281   C1133   1.402   1_554 S
C282   F322    1.356   .     S
C282   C1134   1.404   .     S
C283   N341    1.425   .     S
C283   C288    1.400   .     A
C283   C561    1.383   .     S
C284   C287    1.401   .     A
C284   N347    1.424   .     S
C285   F353    1.360   .     S
C285   C287    1.397   .     A
C286   F354    1.360   .     S
C286   C288    1.393   .     A
C286   C560    1.378   .     S
C289   F355    1.355   .     S
C289   N310    1.362   .     A
C289   C383    1.432   .     S
C290   N309    1.360   .     A
C290   F356    1.353   .     S
C290   C476    1.429   1_455 S
C291   N357    1.428   .     S
C291   N309    1.380   .     A
C291   C473    1.432   1_455 S
C292   N310    1.380   .     A
C292   N363    1.425   .     S
C292   C382    1.429   .     S
C293   O315    1.293   .     A
C293   C295    1.458   .     S
C293   O317    1.299   .     A
C294   O318    1.297   .     A
C294   O316    1.304   .     A
C294   C296    1.472   .     S
C295   C299    1.402   .     A
C295   C301    1.396   .     A
C296   C302    1.412   .     A
C296   C300    1.410   .     A
C297   F337    1.358   .     S
C297   C299    1.394   .     A
C297   C305    1.407   .     A
C298   C300    1.398   .     A
C298   F338    1.357   .     S
C298   C306    1.407   .     A
C299   F336    1.354   .     S
C300   F335    1.358   .     S
C301   N329    1.434   .     S
C301   C303    1.406   .     A
C302   N323    1.430   .     S
C302   C304    1.396   .     A
C303   C305    1.419   .     A
C303   C307    1.409   .     A
C304   C308    1.407   .     A
C304   C306    1.413   .     A
C305   C1109   1.402   .     S
C306   C1110   1.404   1_554 S
C307   C1136   1.400   .     S
C308   C1135   1.400   1_554 S
N309   Zn319   2.020   .     S
N310   Zn320   2.020   .     S
O311   Zn319   1.973   .     S
O312   Zn320   1.973   .     S
O313   Zn320   1.991   .     S
O314   Zn319   1.991   .     S
O315   Zn319   1.960   .     S
O316   Zn320   1.960   .     S
O317   Zn320   1.921   .     S
O318   Zn319   1.921   .     S
N323   H324    1.028   .     S
N323   C325    1.447   .     S
C325   H327    1.111   .     S
C325   H328    1.111   .     S
C325   H326    1.110   .     S
N329   H330    1.028   .     S
N329   C331    1.451   .     S
C331   H332    1.110   .     S
C331   H333    1.112   .     S
C331   H334    1.108   .     S
N341   C343    1.446   .     S
N341   H342    1.032   .     S
C343   H344    1.111   .     S
C343   H345    1.111   .     S
C343   H346    1.106   .     S
N347   C349    1.449   .     S
N347   H348    1.032   .     S
C349   H350    1.112   .     S
C349   H351    1.107   .     S
C349   H352    1.109   .     S
N357   H358    1.027   .     S
N357   C359    1.448   .     S
C359   H360    1.110   .     S
C359   H361    1.110   .     S
C359   H362    1.111   .     S
N363   H364    1.028   .     S
N363   C365    1.448   .     S
C365   H367    1.109   .     S
C365   H368    1.106   .     S
C365   H366    1.110   .     S
C369   O405    1.283   .     A
C369   C380    1.404   .     S
C369   O403    1.283   .     A
C370   C379    1.407   .     S
C370   O406    1.282   .     A
C370   O404    1.285   .     A
C371   C373    1.394   .     A
C371   F431    1.358   .     S
C371   C400    1.416   .     A
C372   C374    1.397   .     A
C372   F432    1.358   .     S
C372   C399    1.415   .     A
C373   F413    1.358   .     S
C373   C1225   1.402   1_554 S
C374   F414    1.356   .     S
C374   C1226   1.404   .     S
C375   N433    1.425   .     S
C375   C380    1.400   .     A
C375   C653    1.383   .     S
C376   C379    1.401   .     A
C376   N439    1.424   .     S
C377   F445    1.360   .     S
C377   C379    1.397   .     A
C378   F446    1.360   .     S
C378   C380    1.393   .     A
C378   C652    1.378   .     S
C381   F447    1.355   .     S
C381   N402    1.362   .     A
C381   C475    1.432   .     S
C382   N401    1.360   .     A
C382   F448    1.353   .     S
C383   N449    1.428   .     S
C383   N401    1.380   .     A
C384   N402    1.380   .     A
C384   N455    1.425   .     S
C384   C474    1.429   .     S
C385   O407    1.293   .     A
C385   C387    1.458   .     S
C385   O409    1.299   .     A
C386   O410    1.297   .     A
C386   O408    1.304   .     A
C386   C388    1.472   .     S
C387   C391    1.402   .     A
C387   C393    1.396   .     A
C388   C394    1.412   .     A
C388   C392    1.410   .     A
C389   F429    1.358   .     S
C389   C391    1.394   .     A
C389   C397    1.407   .     A
C390   C392    1.398   .     A
C390   F430    1.357   .     S
C390   C398    1.407   .     A
C391   F428    1.354   .     S
C392   F427    1.358   .     S
C393   N421    1.434   .     S
C393   C395    1.406   .     A
C394   N415    1.430   .     S
C394   C396    1.396   .     A
C395   C397    1.419   .     A
C395   C399    1.409   .     A
C396   C400    1.407   .     A
C396   C398    1.413   .     A
C397   C1201   1.402   .     S
C398   C1202   1.404   1_554 S
C399   C1228   1.400   .     S
C400   C1227   1.400   1_554 S
N401   Zn411   2.020   .     S
N402   Zn412   2.020   .     S
O403   Zn411   1.973   .     S
O404   Zn412   1.973   .     S
O405   Zn412   1.991   .     S
O406   Zn411   1.991   .     S
O407   Zn411   1.960   .     S
O408   Zn412   1.960   .     S
O409   Zn412   1.921   .     S
O410   Zn411   1.921   .     S
N415   H416    1.028   .     S
N415   C417    1.447   .     S
C417   H419    1.111   .     S
C417   H420    1.111   .     S
C417   H418    1.110   .     S
N421   H422    1.028   .     S
N421   C423    1.451   .     S
C423   H424    1.110   .     S
C423   H425    1.112   .     S
C423   H426    1.108   .     S
N433   C435    1.446   .     S
N433   H434    1.032   .     S
C435   H436    1.111   .     S
C435   H437    1.111   .     S
C435   H438    1.106   .     S
N439   C441    1.449   .     S
N439   H440    1.032   .     S
C441   H442    1.112   .     S
C441   H443    1.107   .     S
C441   H444    1.109   .     S
N449   H450    1.027   .     S
N449   C451    1.448   .     S
C451   H452    1.110   .     S
C451   H453    1.110   .     S
C451   H454    1.111   .     S
N455   H456    1.028   .     S
N455   C457    1.448   .     S
C457   H459    1.109   .     S
C457   H460    1.106   .     S
C457   H458    1.110   .     S
C461   O497    1.283   .     A
C461   C472    1.404   .     S
C461   O495    1.283   .     A
C462   C471    1.407   .     S
C462   O498    1.282   .     A
C462   O496    1.285   .     A
C463   C465    1.394   .     A
C463   F523    1.358   .     S
C463   C492    1.416   .     A
C464   C466    1.397   .     A
C464   F524    1.358   .     S
C464   C491    1.415   .     A
C465   F505    1.358   .     S
C465   C1317   1.402   1_554 S
C466   F506    1.356   .     S
C466   C1318   1.404   .     S
C467   N525    1.425   .     S
C467   C472    1.400   .     A
C467   C745    1.383   .     S
C468   C471    1.401   .     A
C468   N531    1.424   .     S
C469   F537    1.360   .     S
C469   C471    1.397   .     A
C470   F538    1.360   .     S
C470   C472    1.393   .     A
C470   C744    1.378   .     S
C473   F539    1.355   .     S
C473   N494    1.362   .     A
C473   C291    1.432   1_655 S
C474   N493    1.360   .     A
C474   F540    1.353   .     S
C475   N541    1.428   .     S
C475   N493    1.380   .     A
C476   N494    1.380   .     A
C476   N547    1.425   .     S
C476   C290    1.429   1_655 S
C477   O499    1.293   .     A
C477   C479    1.458   .     S
C477   O501    1.299   .     A
C478   O502    1.297   .     A
C478   O500    1.304   .     A
C478   C480    1.472   .     S
C479   C483    1.402   .     A
C479   C485    1.396   .     A
C480   C486    1.412   .     A
C480   C484    1.410   .     A
C481   F521    1.358   .     S
C481   C483    1.394   .     A
C481   C489    1.407   .     A
C482   C484    1.398   .     A
C482   F522    1.357   .     S
C482   C490    1.407   .     A
C483   F520    1.354   .     S
C484   F519    1.358   .     S
C485   N513    1.434   .     S
C485   C487    1.406   .     A
C486   N507    1.430   .     S
C486   C488    1.396   .     A
C487   C489    1.419   .     A
C487   C491    1.409   .     A
C488   C492    1.407   .     A
C488   C490    1.413   .     A
C489   C1293   1.402   .     S
C490   C1294   1.404   1_554 S
C491   C1320   1.400   .     S
C492   C1319   1.400   1_554 S
N493   Zn503   2.020   .     S
N494   Zn504   2.020   .     S
O495   Zn503   1.973   .     S
O496   Zn504   1.973   .     S
O497   Zn504   1.991   .     S
O498   Zn503   1.991   .     S
O499   Zn503   1.960   .     S
O500   Zn504   1.960   .     S
O501   Zn504   1.921   .     S
O502   Zn503   1.921   .     S
N507   H508    1.028   .     S
N507   C509    1.447   .     S
C509   H511    1.111   .     S
C509   H512    1.111   .     S
C509   H510    1.110   .     S
N513   H514    1.028   .     S
N513   C515    1.451   .     S
C515   H516    1.110   .     S
C515   H517    1.112   .     S
C515   H518    1.108   .     S
N525   C527    1.446   .     S
N525   H526    1.032   .     S
C527   H528    1.111   .     S
C527   H529    1.111   .     S
C527   H530    1.106   .     S
N531   C533    1.449   .     S
N531   H532    1.032   .     S
C533   H534    1.112   .     S
C533   H535    1.107   .     S
C533   H536    1.109   .     S
N541   H542    1.027   .     S
N541   C543    1.448   .     S
C543   H544    1.110   .     S
C543   H545    1.110   .     S
C543   H546    1.111   .     S
N547   H548    1.028   .     S
N547   C549    1.448   .     S
C549   H551    1.109   .     S
C549   H552    1.106   .     S
C549   H550    1.110   .     S
C553   O589    1.283   .     A
C553   C564    1.404   .     S
C553   O587    1.283   .     A
C554   C563    1.407   .     S
C554   O590    1.282   .     A
C554   O588    1.285   .     A
C555   C557    1.394   .     A
C555   F615    1.358   .     S
C555   C584    1.416   .     A
C556   C558    1.397   .     A
C556   F616    1.358   .     S
C556   C583    1.415   .     A
C557   F597    1.358   .     S
C557   C1409   1.402   1_554 S
C558   F598    1.356   .     S
C558   C1410   1.404   .     S
C559   N617    1.425   .     S
C559   C564    1.400   .     A
C559   C9      1.383   1_565 S
C560   C563    1.401   .     A
C560   N623    1.424   .     S
C561   F629    1.360   .     S
C561   C563    1.397   .     A
C562   F630    1.360   .     S
C562   C564    1.393   .     A
C562   C8      1.378   1_565 S
C565   F631    1.355   .     S
C565   N586    1.362   .     A
C565   C659    1.432   .     S
C566   N585    1.360   .     A
C566   F632    1.353   .     S
C566   C752    1.429   1_455 S
C567   N633    1.428   .     S
C567   N585    1.380   .     A
C567   C749    1.432   1_455 S
C568   N586    1.380   .     A
C568   N639    1.425   .     S
C568   C658    1.429   .     S
C569   O591    1.293   .     A
C569   C571    1.458   .     S
C569   O593    1.299   .     A
C570   O594    1.297   .     A
C570   O592    1.304   .     A
C570   C572    1.472   .     S
C571   C575    1.402   .     A
C571   C577    1.396   .     A
C572   C578    1.412   .     A
C572   C576    1.410   .     A
C573   F613    1.358   .     S
C573   C575    1.394   .     A
C573   C581    1.407   .     A
C574   C576    1.398   .     A
C574   F614    1.357   .     S
C574   C582    1.407   .     A
C575   F612    1.354   .     S
C576   F611    1.358   .     S
C577   N605    1.434   .     S
C577   C579    1.406   .     A
C578   N599    1.430   .     S
C578   C580    1.396   .     A
C579   C581    1.419   .     A
C579   C583    1.409   .     A
C580   C584    1.407   .     A
C580   C582    1.413   .     A
C581   C1385   1.402   .     S
C582   C1386   1.404   1_554 S
C583   C1412   1.400   .     S
C584   C1411   1.400   1_554 S
N585   Zn595   2.020   .     S
N586   Zn596   2.020   .     S
O587   Zn595   1.973   .     S
O588   Zn596   1.973   .     S
O589   Zn596   1.991   .     S
O590   Zn595   1.991   .     S
O591   Zn595   1.960   .     S
O592   Zn596   1.960   .     S
O593   Zn596   1.921   .     S
O594   Zn595   1.921   .     S
N599   H600    1.028   .     S
N599   C601    1.447   .     S
C601   H603    1.111   .     S
C601   H604    1.111   .     S
C601   H602    1.110   .     S
N605   H606    1.028   .     S
N605   C607    1.451   .     S
C607   H608    1.110   .     S
C607   H609    1.112   .     S
C607   H610    1.108   .     S
N617   C619    1.446   .     S
N617   H618    1.032   .     S
C619   H620    1.111   .     S
C619   H621    1.111   .     S
C619   H622    1.106   .     S
N623   C625    1.449   .     S
N623   H624    1.032   .     S
C625   H626    1.112   .     S
C625   H627    1.107   .     S
C625   H628    1.109   .     S
N633   H634    1.027   .     S
N633   C635    1.448   .     S
C635   H636    1.110   .     S
C635   H637    1.110   .     S
C635   H638    1.111   .     S
N639   H640    1.028   .     S
N639   C641    1.448   .     S
C641   H643    1.109   .     S
C641   H644    1.106   .     S
C641   H642    1.110   .     S
C645   O681    1.283   .     A
C645   C656    1.404   .     S
C645   O679    1.283   .     A
C646   C655    1.407   .     S
C646   O682    1.282   .     A
C646   O680    1.285   .     A
C647   C649    1.394   .     A
C647   F707    1.358   .     S
C647   C676    1.416   .     A
C648   C650    1.397   .     A
C648   F708    1.358   .     S
C648   C675    1.415   .     A
C649   F689    1.358   .     S
C649   C1501   1.402   1_554 S
C650   F690    1.356   .     S
C650   C1502   1.404   .     S
C651   N709    1.425   .     S
C651   C656    1.400   .     A
C651   C101    1.383   1_565 S
C652   C655    1.401   .     A
C652   N715    1.424   .     S
C653   F721    1.360   .     S
C653   C655    1.397   .     A
C654   F722    1.360   .     S
C654   C656    1.393   .     A
C654   C100    1.378   1_565 S
C657   F723    1.355   .     S
C657   N678    1.362   .     A
C657   C751    1.432   .     S
C658   N677    1.360   .     A
C658   F724    1.353   .     S
C659   N725    1.428   .     S
C659   N677    1.380   .     A
C660   N678    1.380   .     A
C660   N731    1.425   .     S
C660   C750    1.429   .     S
C661   O683    1.293   .     A
C661   C663    1.458   .     S
C661   O685    1.299   .     A
C662   O686    1.297   .     A
C662   O684    1.304   .     A
C662   C664    1.472   .     S
C663   C667    1.402   .     A
C663   C669    1.396   .     A
C664   C670    1.412   .     A
C664   C668    1.410   .     A
C665   F705    1.358   .     S
C665   C667    1.394   .     A
C665   C673    1.407   .     A
C666   C668    1.398   .     A
C666   F706    1.357   .     S
C666   C674    1.407   .     A
C667   F704    1.354   .     S
C668   F703    1.358   .     S
C669   N697    1.434   .     S
C669   C671    1.406   .     A
C670   N691    1.430   .     S
C670   C672    1.396   .     A
C671   C673    1.419   .     A
C671   C675    1.409   .     A
C672   C676    1.407   .     A
C672   C674    1.413   .     A
C673   C1477   1.402   .     S
C674   C1478   1.404   1_554 S
C675   C1504   1.400   .     S
C676   C1503   1.400   1_554 S
N677   Zn687   2.020   .     S
N678   Zn688   2.020   .     S
O679   Zn687   1.973   .     S
O680   Zn688   1.973   .     S
O681   Zn688   1.991   .     S
O682   Zn687   1.991   .     S
O683   Zn687   1.960   .     S
O684   Zn688   1.960   .     S
O685   Zn688   1.921   .     S
O686   Zn687   1.921   .     S
N691   H692    1.028   .     S
N691   C693    1.447   .     S
C693   H695    1.111   .     S
C693   H696    1.111   .     S
C693   H694    1.110   .     S
N697   H698    1.028   .     S
N697   C699    1.451   .     S
C699   H700    1.110   .     S
C699   H701    1.112   .     S
C699   H702    1.108   .     S
N709   C711    1.446   .     S
N709   H710    1.032   .     S
C711   H712    1.111   .     S
C711   H713    1.111   .     S
C711   H714    1.106   .     S
N715   C717    1.449   .     S
N715   H716    1.032   .     S
C717   H718    1.112   .     S
C717   H719    1.107   .     S
C717   H720    1.109   .     S
N725   H726    1.027   .     S
N725   C727    1.448   .     S
C727   H728    1.110   .     S
C727   H729    1.110   .     S
C727   H730    1.111   .     S
N731   H732    1.028   .     S
N731   C733    1.448   .     S
C733   H735    1.109   .     S
C733   H736    1.106   .     S
C733   H734    1.110   .     S
C737   O773    1.283   .     A
C737   C748    1.404   .     S
C737   O771    1.283   .     A
C738   C747    1.407   .     S
C738   O774    1.282   .     A
C738   O772    1.285   .     A
C739   C741    1.394   .     A
C739   F799    1.358   .     S
C739   C768    1.416   .     A
C740   C742    1.397   .     A
C740   F800    1.358   .     S
C740   C767    1.415   .     A
C741   F781    1.358   .     S
C741   C1593   1.402   1_554 S
C742   F782    1.356   .     S
C742   C1594   1.404   .     S
C743   N801    1.425   .     S
C743   C748    1.400   .     A
C743   C193    1.383   1_565 S
C744   C747    1.401   .     A
C744   N807    1.424   .     S
C745   F813    1.360   .     S
C745   C747    1.397   .     A
C746   F814    1.360   .     S
C746   C748    1.393   .     A
C746   C192    1.378   1_565 S
C749   F815    1.355   .     S
C749   N770    1.362   .     A
C749   C567    1.432   1_655 S
C750   N769    1.360   .     A
C750   F816    1.353   .     S
C751   N817    1.428   .     S
C751   N769    1.380   .     A
C752   N770    1.380   .     A
C752   N823    1.425   .     S
C752   C566    1.429   1_655 S
C753   O775    1.293   .     A
C753   C755    1.458   .     S
C753   O777    1.299   .     A
C754   O778    1.297   .     A
C754   O776    1.304   .     A
C754   C756    1.472   .     S
C755   C759    1.402   .     A
C755   C761    1.396   .     A
C756   C762    1.412   .     A
C756   C760    1.410   .     A
C757   F797    1.358   .     S
C757   C759    1.394   .     A
C757   C765    1.407   .     A
C758   C760    1.398   .     A
C758   F798    1.357   .     S
C758   C766    1.407   .     A
C759   F796    1.354   .     S
C760   F795    1.358   .     S
C761   N789    1.434   .     S
C761   C763    1.406   .     A
C762   N783    1.430   .     S
C762   C764    1.396   .     A
C763   C765    1.419   .     A
C763   C767    1.409   .     A
C764   C768    1.407   .     A
C764   C766    1.413   .     A
C765   C1569   1.402   .     S
C766   C1570   1.404   1_554 S
C767   C1596   1.400   .     S
C768   C1595   1.400   1_554 S
N769   Zn779   2.020   .     S
N770   Zn780   2.020   .     S
O771   Zn779   1.973   .     S
O772   Zn780   1.973   .     S
O773   Zn780   1.991   .     S
O774   Zn779   1.991   .     S
O775   Zn779   1.960   .     S
O776   Zn780   1.960   .     S
O777   Zn780   1.921   .     S
O778   Zn779   1.921   .     S
N783   H784    1.028   .     S
N783   C785    1.447   .     S
C785   H787    1.111   .     S
C785   H788    1.111   .     S
C785   H786    1.110   .     S
N789   H790    1.028   .     S
N789   C791    1.451   .     S
C791   H792    1.110   .     S
C791   H793    1.112   .     S
C791   H794    1.108   .     S
N801   C803    1.446   .     S
N801   H802    1.032   .     S
C803   H804    1.111   .     S
C803   H805    1.111   .     S
C803   H806    1.106   .     S
N807   C809    1.449   .     S
N807   H808    1.032   .     S
C809   H810    1.112   .     S
C809   H811    1.107   .     S
C809   H812    1.109   .     S
N817   H818    1.027   .     S
N817   C819    1.448   .     S
C819   H820    1.110   .     S
C819   H821    1.110   .     S
C819   H822    1.111   .     S
N823   H824    1.028   .     S
N823   C825    1.448   .     S
C825   H827    1.109   .     S
C825   H828    1.106   .     S
C825   H826    1.110   .     S
C829   O865    1.283   .     A
C829   C840    1.404   .     S
C829   O863    1.283   .     A
C830   C839    1.407   .     S
C830   O866    1.282   .     A
C830   O864    1.285   .     A
C831   C833    1.394   .     A
C831   F891    1.358   .     S
C831   C860    1.416   .     A
C832   C834    1.397   .     A
C832   F892    1.358   .     S
C832   C859    1.415   .     A
C833   F873    1.358   .     S
C834   F874    1.356   .     S
C834   C30     1.404   1_556 S
C835   N893    1.425   .     S
C835   C840    1.400   .     A
C835   C1113   1.383   .     S
C836   C839    1.401   .     A
C836   N899    1.424   .     S
C836   C1390   1.378   1_545 S
C837   F905    1.360   .     S
C837   C839    1.397   .     A
C837   C1387   1.383   1_545 S
C838   F906    1.360   .     S
C838   C840    1.393   .     A
C838   C1112   1.378   .     S
C841   F907    1.355   .     S
C841   N862    1.362   .     A
C841   C935    1.432   .     S
C842   N861    1.360   .     A
C842   F908    1.353   .     S
C842   C1028   1.429   1_455 S
C843   N909    1.428   .     S
C843   N861    1.380   .     A
C843   C1025   1.432   1_455 S
C844   N862    1.380   .     A
C844   N915    1.425   .     S
C844   C934    1.429   .     S
C845   O867    1.293   .     A
C845   C847    1.458   .     S
C845   O869    1.299   .     A
C846   O870    1.297   .     A
C846   O868    1.304   .     A
C846   C848    1.472   .     S
C847   C851    1.402   .     A
C847   C853    1.396   .     A
C848   C854    1.412   .     A
C848   C852    1.410   .     A
C849   F889    1.358   .     S
C849   C851    1.394   .     A
C849   C857    1.407   .     A
C850   C852    1.398   .     A
C850   F890    1.357   .     S
C850   C858    1.407   .     A
C851   F888    1.354   .     S
C852   F887    1.358   .     S
C853   N881    1.434   .     S
C853   C855    1.406   .     A
C854   N875    1.430   .     S
C854   C856    1.396   .     A
C855   C857    1.419   .     A
C855   C859    1.409   .     A
C856   C860    1.407   .     A
C856   C858    1.413   .     A
C857   C5      1.402   1_556 S
C859   C32     1.400   1_556 S
N861   Zn871   2.020   .     S
N862   Zn872   2.020   .     S
O863   Zn871   1.973   .     S
O864   Zn872   1.973   .     S
O865   Zn872   1.991   .     S
O866   Zn871   1.991   .     S
O867   Zn871   1.960   .     S
O868   Zn872   1.960   .     S
O869   Zn872   1.921   .     S
O870   Zn871   1.921   .     S
N875   H876    1.028   .     S
N875   C877    1.447   .     S
C877   H879    1.111   .     S
C877   H880    1.111   .     S
C877   H878    1.110   .     S
N881   H882    1.028   .     S
N881   C883    1.451   .     S
C883   H884    1.110   .     S
C883   H885    1.112   .     S
C883   H886    1.108   .     S
N893   C895    1.446   .     S
N893   H894    1.032   .     S
C895   H896    1.111   .     S
C895   H897    1.111   .     S
C895   H898    1.106   .     S
N899   C901    1.449   .     S
N899   H900    1.032   .     S
C901   H902    1.112   .     S
C901   H903    1.107   .     S
C901   H904    1.109   .     S
N909   H910    1.027   .     S
N909   C911    1.448   .     S
C911   H912    1.110   .     S
C911   H913    1.110   .     S
C911   H914    1.111   .     S
N915   H916    1.028   .     S
N915   C917    1.448   .     S
C917   H919    1.109   .     S
C917   H920    1.106   .     S
C917   H918    1.110   .     S
C921   O957    1.283   .     A
C921   C932    1.404   .     S
C921   O955    1.283   .     A
C922   C931    1.407   .     S
C922   O958    1.282   .     A
C922   O956    1.285   .     A
C923   C925    1.394   .     A
C923   F983    1.358   .     S
C923   C952    1.416   .     A
C924   C926    1.397   .     A
C924   F984    1.358   .     S
C924   C951    1.415   .     A
C925   F965    1.358   .     S
C926   F966    1.356   .     S
C926   C122    1.404   1_556 S
C927   N985    1.425   .     S
C927   C932    1.400   .     A
C927   C1205   1.383   .     S
C928   C931    1.401   .     A
C928   N991    1.424   .     S
C928   C1482   1.378   1_545 S
C929   F997    1.360   .     S
C929   C931    1.397   .     A
C929   C1479   1.383   1_545 S
C930   F998    1.360   .     S
C930   C932    1.393   .     A
C930   C1204   1.378   .     S
C933   F999    1.355   .     S
C933   N954    1.362   .     A
C933   C1027   1.432   .     S
C934   N953    1.360   .     A
C934   F1000   1.353   .     S
C935   N1001   1.428   .     S
C935   N953    1.380   .     A
C936   N954    1.380   .     A
C936   N1007   1.425   .     S
C936   C1026   1.429   .     S
C937   O959    1.293   .     A
C937   C939    1.458   .     S
C937   O961    1.299   .     A
C938   O962    1.297   .     A
C938   O960    1.304   .     A
C938   C940    1.472   .     S
C939   C943    1.402   .     A
C939   C945    1.396   .     A
C940   C946    1.412   .     A
C940   C944    1.410   .     A
C941   F981    1.358   .     S
C941   C943    1.394   .     A
C941   C949    1.407   .     A
C942   C944    1.398   .     A
C942   F982    1.357   .     S
C942   C950    1.407   .     A
C943   F980    1.354   .     S
C944   F979    1.358   .     S
C945   N973    1.434   .     S
C945   C947    1.406   .     A
C946   N967    1.430   .     S
C946   C948    1.396   .     A
C947   C949    1.419   .     A
C947   C951    1.409   .     A
C948   C952    1.407   .     A
C948   C950    1.413   .     A
C949   C97     1.402   1_556 S
C951   C124    1.400   1_556 S
N953   Zn963   2.020   .     S
N954   Zn964   2.020   .     S
O955   Zn963   1.973   .     S
O956   Zn964   1.973   .     S
O957   Zn964   1.991   .     S
O958   Zn963   1.991   .     S
O959   Zn963   1.960   .     S
O960   Zn964   1.960   .     S
O961   Zn964   1.921   .     S
O962   Zn963   1.921   .     S
N967   H968    1.028   .     S
N967   C969    1.447   .     S
C969   H971    1.111   .     S
C969   H972    1.111   .     S
C969   H970    1.110   .     S
N973   H974    1.028   .     S
N973   C975    1.451   .     S
C975   H976    1.110   .     S
C975   H977    1.112   .     S
C975   H978    1.108   .     S
N985   C987    1.446   .     S
N985   H986    1.032   .     S
C987   H988    1.111   .     S
C987   H989    1.111   .     S
C987   H990    1.106   .     S
N991   C993    1.449   .     S
N991   H992    1.032   .     S
C993   H994    1.112   .     S
C993   H995    1.107   .     S
C993   H996    1.109   .     S
N1001  H1002   1.027   .     S
N1001  C1003   1.448   .     S
C1003  H1004   1.110   .     S
C1003  H1005   1.110   .     S
C1003  H1006   1.111   .     S
N1007  H1008   1.028   .     S
N1007  C1009   1.448   .     S
C1009  H1011   1.109   .     S
C1009  H1012   1.106   .     S
C1009  H1010   1.110   .     S
C1013  O1049   1.283   .     A
C1013  C1024   1.404   .     S
C1013  O1047   1.283   .     A
C1014  C1023   1.407   .     S
C1014  O1050   1.282   .     A
C1014  O1048   1.285   .     A
C1015  C1017   1.394   .     A
C1015  F1075   1.358   .     S
C1015  C1044   1.416   .     A
C1016  C1018   1.397   .     A
C1016  F1076   1.358   .     S
C1016  C1043   1.415   .     A
C1017  F1057   1.358   .     S
C1018  F1058   1.356   .     S
C1018  C214    1.404   1_556 S
C1019  N1077   1.425   .     S
C1019  C1024   1.400   .     A
C1019  C1297   1.383   .     S
C1020  C1023   1.401   .     A
C1020  N1083   1.424   .     S
C1020  C1574   1.378   1_545 S
C1021  F1089   1.360   .     S
C1021  C1023   1.397   .     A
C1021  C1571   1.383   1_545 S
C1022  F1090   1.360   .     S
C1022  C1024   1.393   .     A
C1022  C1296   1.378   .     S
C1025  F1091   1.355   .     S
C1025  N1046   1.362   .     A
C1025  C843    1.432   1_655 S
C1026  N1045   1.360   .     A
C1026  F1092   1.353   .     S
C1027  N1093   1.428   .     S
C1027  N1045   1.380   .     A
C1028  N1046   1.380   .     A
C1028  N1099   1.425   .     S
C1028  C842    1.429   1_655 S
C1029  O1051   1.293   .     A
C1029  C1031   1.458   .     S
C1029  O1053   1.299   .     A
C1030  O1054   1.297   .     A
C1030  O1052   1.304   .     A
C1030  C1032   1.472   .     S
C1031  C1035   1.402   .     A
C1031  C1037   1.396   .     A
C1032  C1038   1.412   .     A
C1032  C1036   1.410   .     A
C1033  F1073   1.358   .     S
C1033  C1035   1.394   .     A
C1033  C1041   1.407   .     A
C1034  C1036   1.398   .     A
C1034  F1074   1.357   .     S
C1034  C1042   1.407   .     A
C1035  F1072   1.354   .     S
C1036  F1071   1.358   .     S
C1037  N1065   1.434   .     S
C1037  C1039   1.406   .     A
C1038  N1059   1.430   .     S
C1038  C1040   1.396   .     A
C1039  C1041   1.419   .     A
C1039  C1043   1.409   .     A
C1040  C1044   1.407   .     A
C1040  C1042   1.413   .     A
C1041  C189    1.402   1_556 S
C1043  C216    1.400   1_556 S
N1045  Zn1055  2.020   .     S
N1046  Zn1056  2.020   .     S
O1047  Zn1055  1.973   .     S
O1048  Zn1056  1.973   .     S
O1049  Zn1056  1.991   .     S
O1050  Zn1055  1.991   .     S
O1051  Zn1055  1.960   .     S
O1052  Zn1056  1.960   .     S
O1053  Zn1056  1.921   .     S
O1054  Zn1055  1.921   .     S
N1059  H1060   1.028   .     S
N1059  C1061   1.447   .     S
C1061  H1063   1.111   .     S
C1061  H1064   1.111   .     S
C1061  H1062   1.110   .     S
N1065  H1066   1.028   .     S
N1065  C1067   1.451   .     S
C1067  H1068   1.110   .     S
C1067  H1069   1.112   .     S
C1067  H1070   1.108   .     S
N1077  C1079   1.446   .     S
N1077  H1078   1.032   .     S
C1079  H1080   1.111   .     S
C1079  H1081   1.111   .     S
C1079  H1082   1.106   .     S
N1083  C1085   1.449   .     S
N1083  H1084   1.032   .     S
C1085  H1086   1.112   .     S
C1085  H1087   1.107   .     S
C1085  H1088   1.109   .     S
N1093  H1094   1.027   .     S
N1093  C1095   1.448   .     S
C1095  H1096   1.110   .     S
C1095  H1097   1.110   .     S
C1095  H1098   1.111   .     S
N1099  H1100   1.028   .     S
N1099  C1101   1.448   .     S
C1101  H1103   1.109   .     S
C1101  H1104   1.106   .     S
C1101  H1102   1.110   .     S
C1105  O1141   1.283   .     A
C1105  C1116   1.404   .     S
C1105  O1139   1.283   .     A
C1106  C1115   1.407   .     S
C1106  O1142   1.282   .     A
C1106  O1140   1.285   .     A
C1107  C1109   1.394   .     A
C1107  F1167   1.358   .     S
C1107  C1136   1.416   .     A
C1108  C1110   1.397   .     A
C1108  F1168   1.358   .     S
C1108  C1135   1.415   .     A
C1109  F1149   1.358   .     S
C1110  F1150   1.356   .     S
C1110  C306    1.404   1_556 S
C1111  N1169   1.425   .     S
C1111  C1116   1.400   .     A
C1111  C1389   1.383   .     S
C1112  C1115   1.401   .     A
C1112  N1175   1.424   .     S
C1113  F1181   1.360   .     S
C1113  C1115   1.397   .     A
C1114  F1182   1.360   .     S
C1114  C1116   1.393   .     A
C1114  C1388   1.378   .     S
C1117  F1183   1.355   .     S
C1117  N1138   1.362   .     A
C1117  C1211   1.432   .     S
C1118  N1137   1.360   .     A
C1118  F1184   1.353   .     S
C1118  C1304   1.429   1_455 S
C1119  N1185   1.428   .     S
C1119  N1137   1.380   .     A
C1119  C1301   1.432   1_455 S
C1120  N1138   1.380   .     A
C1120  N1191   1.425   .     S
C1120  C1210   1.429   .     S
C1121  O1143   1.293   .     A
C1121  C1123   1.458   .     S
C1121  O1145   1.299   .     A
C1122  O1146   1.297   .     A
C1122  O1144   1.304   .     A
C1122  C1124   1.472   .     S
C1123  C1127   1.402   .     A
C1123  C1129   1.396   .     A
C1124  C1130   1.412   .     A
C1124  C1128   1.410   .     A
C1125  F1165   1.358   .     S
C1125  C1127   1.394   .     A
C1125  C1133   1.407   .     A
C1126  C1128   1.398   .     A
C1126  F1166   1.357   .     S
C1126  C1134   1.407   .     A
C1127  F1164   1.354   .     S
C1128  F1163   1.358   .     S
C1129  N1157   1.434   .     S
C1129  C1131   1.406   .     A
C1130  N1151   1.430   .     S
C1130  C1132   1.396   .     A
C1131  C1133   1.419   .     A
C1131  C1135   1.409   .     A
C1132  C1136   1.407   .     A
C1132  C1134   1.413   .     A
C1133  C281    1.402   1_556 S
C1135  C308    1.400   1_556 S
N1137  Zn1147  2.020   .     S
N1138  Zn1148  2.020   .     S
O1139  Zn1147  1.973   .     S
O1140  Zn1148  1.973   .     S
O1141  Zn1148  1.991   .     S
O1142  Zn1147  1.991   .     S
O1143  Zn1147  1.960   .     S
O1144  Zn1148  1.960   .     S
O1145  Zn1148  1.921   .     S
O1146  Zn1147  1.921   .     S
N1151  H1152   1.028   .     S
N1151  C1153   1.447   .     S
C1153  H1155   1.111   .     S
C1153  H1156   1.111   .     S
C1153  H1154   1.110   .     S
N1157  H1158   1.028   .     S
N1157  C1159   1.451   .     S
C1159  H1160   1.110   .     S
C1159  H1161   1.112   .     S
C1159  H1162   1.108   .     S
N1169  C1171   1.446   .     S
N1169  H1170   1.032   .     S
C1171  H1172   1.111   .     S
C1171  H1173   1.111   .     S
C1171  H1174   1.106   .     S
N1175  C1177   1.449   .     S
N1175  H1176   1.032   .     S
C1177  H1178   1.112   .     S
C1177  H1179   1.107   .     S
C1177  H1180   1.109   .     S
N1185  H1186   1.027   .     S
N1185  C1187   1.448   .     S
C1187  H1188   1.110   .     S
C1187  H1189   1.110   .     S
C1187  H1190   1.111   .     S
N1191  H1192   1.028   .     S
N1191  C1193   1.448   .     S
C1193  H1195   1.109   .     S
C1193  H1196   1.106   .     S
C1193  H1194   1.110   .     S
C1197  O1233   1.283   .     A
C1197  C1208   1.404   .     S
C1197  O1231   1.283   .     A
C1198  C1207   1.407   .     S
C1198  O1234   1.282   .     A
C1198  O1232   1.285   .     A
C1199  C1201   1.394   .     A
C1199  F1259   1.358   .     S
C1199  C1228   1.416   .     A
C1200  C1202   1.397   .     A
C1200  F1260   1.358   .     S
C1200  C1227   1.415   .     A
C1201  F1241   1.358   .     S
C1202  F1242   1.356   .     S
C1202  C398    1.404   1_556 S
C1203  N1261   1.425   .     S
C1203  C1208   1.400   .     A
C1203  C1481   1.383   .     S
C1204  C1207   1.401   .     A
C1204  N1267   1.424   .     S
C1205  F1273   1.360   .     S
C1205  C1207   1.397   .     A
C1206  F1274   1.360   .     S
C1206  C1208   1.393   .     A
C1206  C1480   1.378   .     S
C1209  F1275   1.355   .     S
C1209  N1230   1.362   .     A
C1209  C1303   1.432   .     S
C1210  N1229   1.360   .     A
C1210  F1276   1.353   .     S
C1211  N1277   1.428   .     S
C1211  N1229   1.380   .     A
C1212  N1230   1.380   .     A
C1212  N1283   1.425   .     S
C1212  C1302   1.429   .     S
C1213  O1235   1.293   .     A
C1213  C1215   1.458   .     S
C1213  O1237   1.299   .     A
C1214  O1238   1.297   .     A
C1214  O1236   1.304   .     A
C1214  C1216   1.472   .     S
C1215  C1219   1.402   .     A
C1215  C1221   1.396   .     A
C1216  C1222   1.412   .     A
C1216  C1220   1.410   .     A
C1217  F1257   1.358   .     S
C1217  C1219   1.394   .     A
C1217  C1225   1.407   .     A
C1218  C1220   1.398   .     A
C1218  F1258   1.357   .     S
C1218  C1226   1.407   .     A
C1219  F1256   1.354   .     S
C1220  F1255   1.358   .     S
C1221  N1249   1.434   .     S
C1221  C1223   1.406   .     A
C1222  N1243   1.430   .     S
C1222  C1224   1.396   .     A
C1223  C1225   1.419   .     A
C1223  C1227   1.409   .     A
C1224  C1228   1.407   .     A
C1224  C1226   1.413   .     A
C1225  C373    1.402   1_556 S
C1227  C400    1.400   1_556 S
N1229  Zn1239  2.020   .     S
N1230  Zn1240  2.020   .     S
O1231  Zn1239  1.973   .     S
O1232  Zn1240  1.973   .     S
O1233  Zn1240  1.991   .     S
O1234  Zn1239  1.991   .     S
O1235  Zn1239  1.960   .     S
O1236  Zn1240  1.960   .     S
O1237  Zn1240  1.921   .     S
O1238  Zn1239  1.921   .     S
N1243  H1244   1.028   .     S
N1243  C1245   1.447   .     S
C1245  H1247   1.111   .     S
C1245  H1248   1.111   .     S
C1245  H1246   1.110   .     S
N1249  H1250   1.028   .     S
N1249  C1251   1.451   .     S
C1251  H1252   1.110   .     S
C1251  H1253   1.112   .     S
C1251  H1254   1.108   .     S
N1261  C1263   1.446   .     S
N1261  H1262   1.032   .     S
C1263  H1264   1.111   .     S
C1263  H1265   1.111   .     S
C1263  H1266   1.106   .     S
N1267  C1269   1.449   .     S
N1267  H1268   1.032   .     S
C1269  H1270   1.112   .     S
C1269  H1271   1.107   .     S
C1269  H1272   1.109   .     S
N1277  H1278   1.027   .     S
N1277  C1279   1.448   .     S
C1279  H1280   1.110   .     S
C1279  H1281   1.110   .     S
C1279  H1282   1.111   .     S
N1283  H1284   1.028   .     S
N1283  C1285   1.448   .     S
C1285  H1287   1.109   .     S
C1285  H1288   1.106   .     S
C1285  H1286   1.110   .     S
C1289  O1325   1.283   .     A
C1289  C1300   1.404   .     S
C1289  O1323   1.283   .     A
C1290  C1299   1.407   .     S
C1290  O1326   1.282   .     A
C1290  O1324   1.285   .     A
C1291  C1293   1.394   .     A
C1291  F1351   1.358   .     S
C1291  C1320   1.416   .     A
C1292  C1294   1.397   .     A
C1292  F1352   1.358   .     S
C1292  C1319   1.415   .     A
C1293  F1333   1.358   .     S
C1294  F1334   1.356   .     S
C1294  C490    1.404   1_556 S
C1295  N1353   1.425   .     S
C1295  C1300   1.400   .     A
C1295  C1573   1.383   .     S
C1296  C1299   1.401   .     A
C1296  N1359   1.424   .     S
C1297  F1365   1.360   .     S
C1297  C1299   1.397   .     A
C1298  F1366   1.360   .     S
C1298  C1300   1.393   .     A
C1298  C1572   1.378   .     S
C1301  F1367   1.355   .     S
C1301  N1322   1.362   .     A
C1301  C1119   1.432   1_655 S
C1302  N1321   1.360   .     A
C1302  F1368   1.353   .     S
C1303  N1369   1.428   .     S
C1303  N1321   1.380   .     A
C1304  N1322   1.380   .     A
C1304  N1375   1.425   .     S
C1304  C1118   1.429   1_655 S
C1305  O1327   1.293   .     A
C1305  C1307   1.458   .     S
C1305  O1329   1.299   .     A
C1306  O1330   1.297   .     A
C1306  O1328   1.304   .     A
C1306  C1308   1.472   .     S
C1307  C1311   1.402   .     A
C1307  C1313   1.396   .     A
C1308  C1314   1.412   .     A
C1308  C1312   1.410   .     A
C1309  F1349   1.358   .     S
C1309  C1311   1.394   .     A
C1309  C1317   1.407   .     A
C1310  C1312   1.398   .     A
C1310  F1350   1.357   .     S
C1310  C1318   1.407   .     A
C1311  F1348   1.354   .     S
C1312  F1347   1.358   .     S
C1313  N1341   1.434   .     S
C1313  C1315   1.406   .     A
C1314  N1335   1.430   .     S
C1314  C1316   1.396   .     A
C1315  C1317   1.419   .     A
C1315  C1319   1.409   .     A
C1316  C1320   1.407   .     A
C1316  C1318   1.413   .     A
C1317  C465    1.402   1_556 S
C1319  C492    1.400   1_556 S
N1321  Zn1331  2.020   .     S
N1322  Zn1332  2.020   .     S
O1323  Zn1331  1.973   .     S
O1324  Zn1332  1.973   .     S
O1325  Zn1332  1.991   .     S
O1326  Zn1331  1.991   .     S
O1327  Zn1331  1.960   .     S
O1328  Zn1332  1.960   .     S
O1329  Zn1332  1.921   .     S
O1330  Zn1331  1.921   .     S
N1335  H1336   1.028   .     S
N1335  C1337   1.447   .     S
C1337  H1339   1.111   .     S
C1337  H1340   1.111   .     S
C1337  H1338   1.110   .     S
N1341  H1342   1.028   .     S
N1341  C1343   1.451   .     S
C1343  H1344   1.110   .     S
C1343  H1345   1.112   .     S
C1343  H1346   1.108   .     S
N1353  C1355   1.446   .     S
N1353  H1354   1.032   .     S
C1355  H1356   1.111   .     S
C1355  H1357   1.111   .     S
C1355  H1358   1.106   .     S
N1359  C1361   1.449   .     S
N1359  H1360   1.032   .     S
C1361  H1362   1.112   .     S
C1361  H1363   1.107   .     S
C1361  H1364   1.109   .     S
N1369  H1370   1.027   .     S
N1369  C1371   1.448   .     S
C1371  H1372   1.110   .     S
C1371  H1373   1.110   .     S
C1371  H1374   1.111   .     S
N1375  H1376   1.028   .     S
N1375  C1377   1.448   .     S
C1377  H1379   1.109   .     S
C1377  H1380   1.106   .     S
C1377  H1378   1.110   .     S
C1381  O1417   1.283   .     A
C1381  C1392   1.404   .     S
C1381  O1415   1.283   .     A
C1382  C1391   1.407   .     S
C1382  O1418   1.282   .     A
C1382  O1416   1.285   .     A
C1383  C1385   1.394   .     A
C1383  F1443   1.358   .     S
C1383  C1412   1.416   .     A
C1384  C1386   1.397   .     A
C1384  F1444   1.358   .     S
C1384  C1411   1.415   .     A
C1385  F1425   1.358   .     S
C1386  F1426   1.356   .     S
C1386  C582    1.404   1_556 S
C1387  N1445   1.425   .     S
C1387  C1392   1.400   .     A
C1387  C837    1.383   1_565 S
C1388  C1391   1.401   .     A
C1388  N1451   1.424   .     S
C1389  F1457   1.360   .     S
C1389  C1391   1.397   .     A
C1390  F1458   1.360   .     S
C1390  C1392   1.393   .     A
C1390  C836    1.378   1_565 S
C1393  F1459   1.355   .     S
C1393  N1414   1.362   .     A
C1393  C1487   1.432   .     S
C1394  N1413   1.360   .     A
C1394  F1460   1.353   .     S
C1394  C1580   1.429   1_455 S
C1395  N1461   1.428   .     S
C1395  N1413   1.380   .     A
C1395  C1577   1.432   1_455 S
C1396  N1414   1.380   .     A
C1396  N1467   1.425   .     S
C1396  C1486   1.429   .     S
C1397  O1419   1.293   .     A
C1397  C1399   1.458   .     S
C1397  O1421   1.299   .     A
C1398  O1422   1.297   .     A
C1398  O1420   1.304   .     A
C1398  C1400   1.472   .     S
C1399  C1403   1.402   .     A
C1399  C1405   1.396   .     A
C1400  C1406   1.412   .     A
C1400  C1404   1.410   .     A
C1401  F1441   1.358   .     S
C1401  C1403   1.394   .     A
C1401  C1409   1.407   .     A
C1402  C1404   1.398   .     A
C1402  F1442   1.357   .     S
C1402  C1410   1.407   .     A
C1403  F1440   1.354   .     S
C1404  F1439   1.358   .     S
C1405  N1433   1.434   .     S
C1405  C1407   1.406   .     A
C1406  N1427   1.430   .     S
C1406  C1408   1.396   .     A
C1407  C1409   1.419   .     A
C1407  C1411   1.409   .     A
C1408  C1412   1.407   .     A
C1408  C1410   1.413   .     A
C1409  C557    1.402   1_556 S
C1411  C584    1.400   1_556 S
N1413  Zn1423  2.020   .     S
N1414  Zn1424  2.020   .     S
O1415  Zn1423  1.973   .     S
O1416  Zn1424  1.973   .     S
O1417  Zn1424  1.991   .     S
O1418  Zn1423  1.991   .     S
O1419  Zn1423  1.960   .     S
O1420  Zn1424  1.960   .     S
O1421  Zn1424  1.921   .     S
O1422  Zn1423  1.921   .     S
N1427  H1428   1.028   .     S
N1427  C1429   1.447   .     S
C1429  H1431   1.111   .     S
C1429  H1432   1.111   .     S
C1429  H1430   1.110   .     S
N1433  H1434   1.028   .     S
N1433  C1435   1.451   .     S
C1435  H1436   1.110   .     S
C1435  H1437   1.112   .     S
C1435  H1438   1.108   .     S
N1445  C1447   1.446   .     S
N1445  H1446   1.032   .     S
C1447  H1448   1.111   .     S
C1447  H1449   1.111   .     S
C1447  H1450   1.106   .     S
N1451  C1453   1.449   .     S
N1451  H1452   1.032   .     S
C1453  H1454   1.112   .     S
C1453  H1455   1.107   .     S
C1453  H1456   1.109   .     S
N1461  H1462   1.027   .     S
N1461  C1463   1.448   .     S
C1463  H1464   1.110   .     S
C1463  H1465   1.110   .     S
C1463  H1466   1.111   .     S
N1467  H1468   1.028   .     S
N1467  C1469   1.448   .     S
C1469  H1471   1.109   .     S
C1469  H1472   1.106   .     S
C1469  H1470   1.110   .     S
C1473  O1509   1.283   .     A
C1473  C1484   1.404   .     S
C1473  O1507   1.283   .     A
C1474  C1483   1.407   .     S
C1474  O1510   1.282   .     A
C1474  O1508   1.285   .     A
C1475  C1477   1.394   .     A
C1475  F1535   1.358   .     S
C1475  C1504   1.416   .     A
C1476  C1478   1.397   .     A
C1476  F1536   1.358   .     S
C1476  C1503   1.415   .     A
C1477  F1517   1.358   .     S
C1478  F1518   1.356   .     S
C1478  C674    1.404   1_556 S
C1479  N1537   1.425   .     S
C1479  C1484   1.400   .     A
C1479  C929    1.383   1_565 S
C1480  C1483   1.401   .     A
C1480  N1543   1.424   .     S
C1481  F1549   1.360   .     S
C1481  C1483   1.397   .     A
C1482  F1550   1.360   .     S
C1482  C1484   1.393   .     A
C1482  C928    1.378   1_565 S
C1485  F1551   1.355   .     S
C1485  N1506   1.362   .     A
C1485  C1579   1.432   .     S
C1486  N1505   1.360   .     A
C1486  F1552   1.353   .     S
C1487  N1553   1.428   .     S
C1487  N1505   1.380   .     A
C1488  N1506   1.380   .     A
C1488  N1559   1.425   .     S
C1488  C1578   1.429   .     S
C1489  O1511   1.293   .     A
C1489  C1491   1.458   .     S
C1489  O1513   1.299   .     A
C1490  O1514   1.297   .     A
C1490  O1512   1.304   .     A
C1490  C1492   1.472   .     S
C1491  C1495   1.402   .     A
C1491  C1497   1.396   .     A
C1492  C1498   1.412   .     A
C1492  C1496   1.410   .     A
C1493  F1533   1.358   .     S
C1493  C1495   1.394   .     A
C1493  C1501   1.407   .     A
C1494  C1496   1.398   .     A
C1494  F1534   1.357   .     S
C1494  C1502   1.407   .     A
C1495  F1532   1.354   .     S
C1496  F1531   1.358   .     S
C1497  N1525   1.434   .     S
C1497  C1499   1.406   .     A
C1498  N1519   1.430   .     S
C1498  C1500   1.396   .     A
C1499  C1501   1.419   .     A
C1499  C1503   1.409   .     A
C1500  C1504   1.407   .     A
C1500  C1502   1.413   .     A
C1501  C649    1.402   1_556 S
C1503  C676    1.400   1_556 S
N1505  Zn1515  2.020   .     S
N1506  Zn1516  2.020   .     S
O1507  Zn1515  1.973   .     S
O1508  Zn1516  1.973   .     S
O1509  Zn1516  1.991   .     S
O1510  Zn1515  1.991   .     S
O1511  Zn1515  1.960   .     S
O1512  Zn1516  1.960   .     S
O1513  Zn1516  1.921   .     S
O1514  Zn1515  1.921   .     S
N1519  H1520   1.028   .     S
N1519  C1521   1.447   .     S
C1521  H1523   1.111   .     S
C1521  H1524   1.111   .     S
C1521  H1522   1.110   .     S
N1525  H1526   1.028   .     S
N1525  C1527   1.451   .     S
C1527  H1528   1.110   .     S
C1527  H1529   1.112   .     S
C1527  H1530   1.108   .     S
N1537  C1539   1.446   .     S
N1537  H1538   1.032   .     S
C1539  H1540   1.111   .     S
C1539  H1541   1.111   .     S
C1539  H1542   1.106   .     S
N1543  C1545   1.449   .     S
N1543  H1544   1.032   .     S
C1545  H1546   1.112   .     S
C1545  H1547   1.107   .     S
C1545  H1548   1.109   .     S
N1553  H1554   1.027   .     S
N1553  C1555   1.448   .     S
C1555  H1556   1.110   .     S
C1555  H1557   1.110   .     S
C1555  H1558   1.111   .     S
N1559  H1560   1.028   .     S
N1559  C1561   1.448   .     S
C1561  H1563   1.109   .     S
C1561  H1564   1.106   .     S
C1561  H1562   1.110   .     S
C1565  O1601   1.283   .     A
C1565  C1576   1.404   .     S
C1565  O1599   1.283   .     A
C1566  C1575   1.407   .     S
C1566  O1602   1.282   .     A
C1566  O1600   1.285   .     A
C1567  C1569   1.394   .     A
C1567  F1627   1.358   .     S
C1567  C1596   1.416   .     A
C1568  C1570   1.397   .     A
C1568  F1628   1.358   .     S
C1568  C1595   1.415   .     A
C1569  F1609   1.358   .     S
C1570  F1610   1.356   .     S
C1570  C766    1.404   1_556 S
C1571  N1629   1.425   .     S
C1571  C1576   1.400   .     A
C1571  C1021   1.383   1_565 S
C1572  C1575   1.401   .     A
C1572  N1635   1.424   .     S
C1573  F1641   1.360   .     S
C1573  C1575   1.397   .     A
C1574  F1642   1.360   .     S
C1574  C1576   1.393   .     A
C1574  C1020   1.378   1_565 S
C1577  F1643   1.355   .     S
C1577  N1598   1.362   .     A
C1577  C1395   1.432   1_655 S
C1578  N1597   1.360   .     A
C1578  F1644   1.353   .     S
C1579  N1645   1.428   .     S
C1579  N1597   1.380   .     A
C1580  N1598   1.380   .     A
C1580  N1651   1.425   .     S
C1580  C1394   1.429   1_655 S
C1581  O1603   1.293   .     A
C1581  C1583   1.458   .     S
C1581  O1605   1.299   .     A
C1582  O1606   1.297   .     A
C1582  O1604   1.304   .     A
C1582  C1584   1.472   .     S
C1583  C1587   1.402   .     A
C1583  C1589   1.396   .     A
C1584  C1590   1.412   .     A
C1584  C1588   1.410   .     A
C1585  F1625   1.358   .     S
C1585  C1587   1.394   .     A
C1585  C1593   1.407   .     A
C1586  C1588   1.398   .     A
C1586  F1626   1.357   .     S
C1586  C1594   1.407   .     A
C1587  F1624   1.354   .     S
C1588  F1623   1.358   .     S
C1589  N1617   1.434   .     S
C1589  C1591   1.406   .     A
C1590  N1611   1.430   .     S
C1590  C1592   1.396   .     A
C1591  C1593   1.419   .     A
C1591  C1595   1.409   .     A
C1592  C1596   1.407   .     A
C1592  C1594   1.413   .     A
C1593  C741    1.402   1_556 S
C1595  C768    1.400   1_556 S
N1597  Zn1607  2.020   .     S
N1598  Zn1608  2.020   .     S
O1599  Zn1607  1.973   .     S
O1600  Zn1608  1.973   .     S
O1601  Zn1608  1.991   .     S
O1602  Zn1607  1.991   .     S
O1603  Zn1607  1.960   .     S
O1604  Zn1608  1.960   .     S
O1605  Zn1608  1.921   .     S
O1606  Zn1607  1.921   .     S
N1611  H1612   1.028   .     S
N1611  C1613   1.447   .     S
C1613  H1615   1.111   .     S
C1613  H1616   1.111   .     S
C1613  H1614   1.110   .     S
N1617  H1618   1.028   .     S
N1617  C1619   1.451   .     S
C1619  H1620   1.110   .     S
C1619  H1621   1.112   .     S
C1619  H1622   1.108   .     S
N1629  C1631   1.446   .     S
N1629  H1630   1.032   .     S
C1631  H1632   1.111   .     S
C1631  H1633   1.111   .     S
C1631  H1634   1.106   .     S
N1635  C1637   1.449   .     S
N1635  H1636   1.032   .     S
C1637  H1638   1.112   .     S
C1637  H1639   1.107   .     S
C1637  H1640   1.109   .     S
N1645  H1646   1.027   .     S
N1645  C1647   1.448   .     S
C1647  H1648   1.110   .     S
C1647  H1649   1.110   .     S
C1647  H1650   1.111   .     S
N1651  H1652   1.028   .     S
N1651  C1653   1.448   .     S
C1653  H1655   1.109   .     S
C1653  H1656   1.106   .     S
C1653  H1654   1.110   .     S
