data_str_m3_o1_o18_pcu_sym.217
_audit_creation_date              2020-01-03
_audit_creation_method            'Materials Studio'
_symmetry_space_group_name_H-M    'P1'
_symmetry_Int_Tables_number       1
_symmetry_cell_setting            triclinic
loop_
_symmetry_equiv_pos_as_xyz
  x,y,z
_cell_length_a                    29.6737
_cell_length_b                    32.1704
_cell_length_c                    31.0823
_cell_angle_alpha                 90.9057
_cell_angle_beta                  68.0090
_cell_angle_gamma                 90.0216
loop_
_atom_site_label
_atom_site_type_symbol
_atom_site_fract_x
_atom_site_fract_y
_atom_site_fract_z
_atom_site_U_iso_or_equiv
_atom_site_adp_type
_atom_site_occupancy
C1     C     0.16666   0.24666   0.25007   0.00000  Uiso   1.00
C2     C     0.16665   0.08667   0.25001   0.00000  Uiso   1.00
C3     C     0.11867   0.12579   0.04471   0.00000  Uiso   1.00
C4     C     0.22771   0.16157   0.44633   0.00000  Uiso   1.00
C5     C     0.08513   0.12049   0.02366   0.00000  Uiso   1.00
C6     C     0.26155   0.16621   0.46708   0.00000  Uiso   1.00
C7     C     0.20868   0.31203   0.24751   0.00000  Uiso   1.00
C8     C     0.12453   0.02131   0.25286   0.00000  Uiso   1.00
C9     C     0.20866   0.02126   0.24753   0.00000  Uiso   1.00
C10    C     0.12456   0.31208   0.25280   0.00000  Uiso   1.00
C11    C     0.16661   0.04249   0.25013   0.00000  Uiso   1.00
C12    C     0.16663   0.29085   0.25013   0.00000  Uiso   1.00
C13    C     0.32049   0.14030   0.22117   0.00000  Uiso   1.00
C14    C     0.01283   0.19300   0.27886   0.00000  Uiso   1.00
C15    C     0.03504   0.13990   0.22160   0.00000  Uiso   1.00
C16    C     0.29821   0.19325   0.27862   0.00000  Uiso   1.00
C17    C     0.13632   0.16630   0.33786   0.00000  Uiso   1.00
C18    C     0.19705   0.16621   0.16210   0.00000  Uiso   1.00
C19    C     0.11826   0.16013   0.38778   0.00000  Uiso   1.00
C20    C     0.21605   0.16366   0.11154   0.00000  Uiso   1.00
C21    C     0.06182   0.12920   0.45744   0.00000  Uiso   1.00
C22    C     0.28008   0.17203   0.03643   0.00000  Uiso   1.00
C23    C     0.07315   0.14189   0.41188   0.00000  Uiso   1.00
C24    C     0.26475   0.17185   0.08464   0.00000  Uiso   1.00
C25    C     0.15097   0.16654   0.40962   0.00000  Uiso   1.00
C26    C     0.18372   0.15353   0.09012   0.00000  Uiso   1.00
C27    C     0.14240   0.15066   0.45336   0.00000  Uiso   1.00
C28    C     0.19849   0.15209   0.04198   0.00000  Uiso   1.00
C29    C     0.09616   0.13348   0.47839   0.00000  Uiso   1.00
C30    C     0.24706   0.16309   0.01496   0.00000  Uiso   1.00
C31    C     0.17849   0.15217   0.47291   0.00000  Uiso   1.00
C32    C     0.16504   0.14319   0.02041   0.00000  Uiso   1.00
H33    H     0.05016   0.10679   0.04317   0.00000  Uiso   1.00
H34    H     0.29875   0.17381   0.44576   0.00000  Uiso   1.00
H35    H     0.14614   0.14914   0.11171   0.00000  Uiso   1.00
H36    H     0.18366   0.18355   0.39135   0.00000  Uiso   1.00
H37    H     0.29035   0.17958   0.10081   0.00000  Uiso   1.00
H38    H     0.04758   0.13625   0.39513   0.00000  Uiso   1.00
H39    H     0.02689   0.11498   0.47580   0.00000  Uiso   1.00
H40    H     0.31724   0.18046   0.01609   0.00000  Uiso   1.00
H41    H     0.10793   0.11451   0.07959   0.00000  Uiso   1.00
H42    H     0.24147   0.16435   0.40908   0.00000  Uiso   1.00
H43    H     0.24153   0.29589   0.24531   0.00000  Uiso   1.00
H44    H     0.09167   0.03745   0.25509   0.00000  Uiso   1.00
H45    H     0.24147   0.03736   0.24544   0.00000  Uiso   1.00
H46    H     0.09175   0.29598   0.25489   0.00000  Uiso   1.00
N47    N     0.04759   0.16668   0.25001   0.00000  Uiso   1.00
N48    N     0.28574   0.16666   0.24999   0.00000  Uiso   1.00
O49    O     0.12846   0.22775   0.25001   0.00000  Uiso   1.00
O50    O     0.20488   0.10558   0.25000   0.00000  Uiso   1.00
O51    O     0.20490   0.22774   0.25000   0.00000  Uiso   1.00
O52    O     0.12843   0.10559   0.25000   0.00000  Uiso   1.00
O53    O     0.10661   0.16667   0.31613   0.00000  Uiso   1.00
O54    O     0.22672   0.16666   0.18388   0.00000  Uiso   1.00
O55    O     0.18305   0.16666   0.31612   0.00000  Uiso   1.00
O56    O     0.15028   0.16667   0.18388   0.00000  Uiso   1.00
Zn57   Zn    0.11562   0.16667   0.25000   0.00000  Uiso   1.00
Zn58   Zn    0.21771   0.16666   0.25000   0.00000  Uiso   1.00
C59    C     0.30826   0.11326   0.18972   0.00000  Uiso   1.00
N60    N     0.29875   0.09157   0.16431   0.00000  Uiso   1.00
C61    C     0.02508   0.22002   0.31031   0.00000  Uiso   1.00
N62    N     0.03461   0.24171   0.33571   0.00000  Uiso   1.00
C63    C     0.07036   0.11024   0.19279   0.00000  Uiso   1.00
N64    N     0.09832   0.08615   0.16975   0.00000  Uiso   1.00
C65    C     0.26255   0.22227   0.30822   0.00000  Uiso   1.00
N66    N     0.23428   0.24576   0.33200   0.00000  Uiso   1.00
C67    C     0.49999   0.24666   0.25007   0.00000  Uiso   1.00
C68    C     0.49998   0.08667   0.25001   0.00000  Uiso   1.00
C69    C     0.45200   0.12579   0.04471   0.00000  Uiso   1.00
C70    C     0.56105   0.16157   0.44633   0.00000  Uiso   1.00
C71    C     0.41846   0.12049   0.02366   0.00000  Uiso   1.00
C72    C     0.59488   0.16621   0.46708   0.00000  Uiso   1.00
C73    C     0.54201   0.31203   0.24751   0.00000  Uiso   1.00
C74    C     0.45787   0.02131   0.25286   0.00000  Uiso   1.00
C75    C     0.54199   0.02126   0.24753   0.00000  Uiso   1.00
C76    C     0.45790   0.31208   0.25280   0.00000  Uiso   1.00
C77    C     0.49994   0.04249   0.25013   0.00000  Uiso   1.00
C78    C     0.49997   0.29085   0.25013   0.00000  Uiso   1.00
C79    C     0.65382   0.14030   0.22117   0.00000  Uiso   1.00
C80    C     0.34617   0.19300   0.27886   0.00000  Uiso   1.00
C81    C     0.36837   0.13990   0.22160   0.00000  Uiso   1.00
C82    C     0.63154   0.19325   0.27862   0.00000  Uiso   1.00
C83    C     0.46965   0.16630   0.33786   0.00000  Uiso   1.00
C84    C     0.53039   0.16621   0.16210   0.00000  Uiso   1.00
C85    C     0.45159   0.16013   0.38778   0.00000  Uiso   1.00
C86    C     0.54938   0.16366   0.11154   0.00000  Uiso   1.00
C87    C     0.39515   0.12920   0.45744   0.00000  Uiso   1.00
C88    C     0.61342   0.17203   0.03643   0.00000  Uiso   1.00
C89    C     0.40649   0.14189   0.41188   0.00000  Uiso   1.00
C90    C     0.59809   0.17185   0.08464   0.00000  Uiso   1.00
C91    C     0.48430   0.16654   0.40962   0.00000  Uiso   1.00
C92    C     0.51705   0.15353   0.09012   0.00000  Uiso   1.00
C93    C     0.47573   0.15066   0.45336   0.00000  Uiso   1.00
C94    C     0.53183   0.15209   0.04198   0.00000  Uiso   1.00
C95    C     0.42949   0.13348   0.47839   0.00000  Uiso   1.00
C96    C     0.58039   0.16309   0.01496   0.00000  Uiso   1.00
C97    C     0.51182   0.15217   0.47291   0.00000  Uiso   1.00
C98    C     0.49838   0.14319   0.02041   0.00000  Uiso   1.00
H99    H     0.38349   0.10679   0.04317   0.00000  Uiso   1.00
H100   H     0.63209   0.17381   0.44576   0.00000  Uiso   1.00
H101   H     0.47947   0.14914   0.11171   0.00000  Uiso   1.00
H102   H     0.51699   0.18355   0.39135   0.00000  Uiso   1.00
H103   H     0.62369   0.17958   0.10081   0.00000  Uiso   1.00
H104   H     0.38091   0.13625   0.39513   0.00000  Uiso   1.00
H105   H     0.36023   0.11498   0.47580   0.00000  Uiso   1.00
H106   H     0.65058   0.18046   0.01609   0.00000  Uiso   1.00
H107   H     0.44126   0.11451   0.07959   0.00000  Uiso   1.00
H108   H     0.57481   0.16435   0.40908   0.00000  Uiso   1.00
H109   H     0.57486   0.29589   0.24531   0.00000  Uiso   1.00
H110   H     0.42500   0.03745   0.25509   0.00000  Uiso   1.00
H111   H     0.57480   0.03736   0.24544   0.00000  Uiso   1.00
H112   H     0.42508   0.29598   0.25489   0.00000  Uiso   1.00
N113   N     0.38093   0.16668   0.25001   0.00000  Uiso   1.00
N114   N     0.61907   0.16666   0.24999   0.00000  Uiso   1.00
O115   O     0.46179   0.22775   0.25001   0.00000  Uiso   1.00
O116   O     0.53821   0.10558   0.25000   0.00000  Uiso   1.00
O117   O     0.53823   0.22774   0.25000   0.00000  Uiso   1.00
O118   O     0.46177   0.10559   0.25000   0.00000  Uiso   1.00
O119   O     0.43994   0.16667   0.31613   0.00000  Uiso   1.00
O120   O     0.56006   0.16666   0.18388   0.00000  Uiso   1.00
O121   O     0.51639   0.16666   0.31612   0.00000  Uiso   1.00
O122   O     0.48361   0.16667   0.18388   0.00000  Uiso   1.00
Zn123  Zn    0.44896   0.16667   0.25000   0.00000  Uiso   1.00
Zn124  Zn    0.55104   0.16666   0.25000   0.00000  Uiso   1.00
C125   C     0.64159   0.11326   0.18972   0.00000  Uiso   1.00
N126   N     0.63209   0.09157   0.16431   0.00000  Uiso   1.00
C127   C     0.35841   0.22002   0.31031   0.00000  Uiso   1.00
N128   N     0.36795   0.24171   0.33571   0.00000  Uiso   1.00
C129   C     0.40370   0.11024   0.19279   0.00000  Uiso   1.00
N130   N     0.43166   0.08615   0.16975   0.00000  Uiso   1.00
C131   C     0.59588   0.22227   0.30822   0.00000  Uiso   1.00
N132   N     0.56761   0.24576   0.33200   0.00000  Uiso   1.00
C133   C     0.83333   0.24666   0.25007   0.00000  Uiso   1.00
C134   C     0.83331   0.08667   0.25001   0.00000  Uiso   1.00
C135   C     0.78533   0.12579   0.04471   0.00000  Uiso   1.00
C136   C     0.89438   0.16157   0.44633   0.00000  Uiso   1.00
C137   C     0.75179   0.12049   0.02366   0.00000  Uiso   1.00
C138   C     0.92822   0.16621   0.46708   0.00000  Uiso   1.00
C139   C     0.87534   0.31203   0.24751   0.00000  Uiso   1.00
C140   C     0.79120   0.02131   0.25286   0.00000  Uiso   1.00
C141   C     0.87532   0.02126   0.24753   0.00000  Uiso   1.00
C142   C     0.79123   0.31208   0.25280   0.00000  Uiso   1.00
C143   C     0.83328   0.04249   0.25013   0.00000  Uiso   1.00
C144   C     0.83330   0.29085   0.25013   0.00000  Uiso   1.00
C145   C     0.98715   0.14030   0.22117   0.00000  Uiso   1.00
C146   C     0.67950   0.19300   0.27886   0.00000  Uiso   1.00
C147   C     0.70171   0.13990   0.22160   0.00000  Uiso   1.00
C148   C     0.96487   0.19325   0.27862   0.00000  Uiso   1.00
C149   C     0.80299   0.16630   0.33786   0.00000  Uiso   1.00
C150   C     0.86372   0.16621   0.16210   0.00000  Uiso   1.00
C151   C     0.78492   0.16013   0.38778   0.00000  Uiso   1.00
C152   C     0.88272   0.16366   0.11154   0.00000  Uiso   1.00
C153   C     0.72849   0.12920   0.45744   0.00000  Uiso   1.00
C154   C     0.94675   0.17203   0.03643   0.00000  Uiso   1.00
C155   C     0.73982   0.14189   0.41188   0.00000  Uiso   1.00
C156   C     0.93142   0.17185   0.08464   0.00000  Uiso   1.00
C157   C     0.81763   0.16654   0.40962   0.00000  Uiso   1.00
C158   C     0.85038   0.15353   0.09012   0.00000  Uiso   1.00
C159   C     0.80907   0.15066   0.45336   0.00000  Uiso   1.00
C160   C     0.86516   0.15209   0.04198   0.00000  Uiso   1.00
C161   C     0.76283   0.13348   0.47839   0.00000  Uiso   1.00
C162   C     0.91373   0.16309   0.01496   0.00000  Uiso   1.00
C163   C     0.84515   0.15217   0.47291   0.00000  Uiso   1.00
C164   C     0.83171   0.14319   0.02041   0.00000  Uiso   1.00
H165   H     0.71683   0.10679   0.04317   0.00000  Uiso   1.00
H166   H     0.96542   0.17381   0.44576   0.00000  Uiso   1.00
H167   H     0.81280   0.14914   0.11171   0.00000  Uiso   1.00
H168   H     0.85033   0.18355   0.39135   0.00000  Uiso   1.00
H169   H     0.95702   0.17958   0.10081   0.00000  Uiso   1.00
H170   H     0.71425   0.13625   0.39513   0.00000  Uiso   1.00
H171   H     0.69356   0.11498   0.47580   0.00000  Uiso   1.00
H172   H     0.98391   0.18046   0.01609   0.00000  Uiso   1.00
H173   H     0.77460   0.11451   0.07959   0.00000  Uiso   1.00
H174   H     0.90814   0.16435   0.40908   0.00000  Uiso   1.00
H175   H     0.90819   0.29589   0.24531   0.00000  Uiso   1.00
H176   H     0.75834   0.03745   0.25509   0.00000  Uiso   1.00
H177   H     0.90814   0.03736   0.24544   0.00000  Uiso   1.00
H178   H     0.75842   0.29598   0.25489   0.00000  Uiso   1.00
N179   N     0.71426   0.16668   0.25001   0.00000  Uiso   1.00
N180   N     0.95241   0.16666   0.24999   0.00000  Uiso   1.00
O181   O     0.79512   0.22775   0.25001   0.00000  Uiso   1.00
O182   O     0.87154   0.10558   0.25000   0.00000  Uiso   1.00
O183   O     0.87157   0.22774   0.25000   0.00000  Uiso   1.00
O184   O     0.79510   0.10559   0.25000   0.00000  Uiso   1.00
O185   O     0.77328   0.16667   0.31613   0.00000  Uiso   1.00
O186   O     0.89339   0.16666   0.18388   0.00000  Uiso   1.00
O187   O     0.84972   0.16666   0.31612   0.00000  Uiso   1.00
O188   O     0.81695   0.16667   0.18388   0.00000  Uiso   1.00
Zn189  Zn    0.78229   0.16667   0.25000   0.00000  Uiso   1.00
Zn190  Zn    0.88438   0.16666   0.25000   0.00000  Uiso   1.00
C191   C     0.97492   0.11326   0.18972   0.00000  Uiso   1.00
N192   N     0.96542   0.09157   0.16431   0.00000  Uiso   1.00
C193   C     0.69175   0.22002   0.31031   0.00000  Uiso   1.00
N194   N     0.70128   0.24171   0.33571   0.00000  Uiso   1.00
C195   C     0.73703   0.11024   0.19279   0.00000  Uiso   1.00
N196   N     0.76499   0.08615   0.16975   0.00000  Uiso   1.00
C197   C     0.92922   0.22227   0.30822   0.00000  Uiso   1.00
N198   N     0.90095   0.24576   0.33200   0.00000  Uiso   1.00
C199   C     0.16666   0.58000   0.25007   0.00000  Uiso   1.00
C200   C     0.16665   0.42000   0.25001   0.00000  Uiso   1.00
C201   C     0.11867   0.45912   0.04471   0.00000  Uiso   1.00
C202   C     0.22771   0.49490   0.44633   0.00000  Uiso   1.00
C203   C     0.08513   0.45382   0.02366   0.00000  Uiso   1.00
C204   C     0.26155   0.49954   0.46708   0.00000  Uiso   1.00
C205   C     0.20868   0.64536   0.24751   0.00000  Uiso   1.00
C206   C     0.12453   0.35464   0.25286   0.00000  Uiso   1.00
C207   C     0.20866   0.35460   0.24753   0.00000  Uiso   1.00
C208   C     0.12456   0.64541   0.25280   0.00000  Uiso   1.00
C209   C     0.16661   0.37583   0.25013   0.00000  Uiso   1.00
C210   C     0.16663   0.62418   0.25013   0.00000  Uiso   1.00
C211   C     0.32049   0.47364   0.22117   0.00000  Uiso   1.00
C212   C     0.01283   0.52633   0.27886   0.00000  Uiso   1.00
C213   C     0.03504   0.47323   0.22160   0.00000  Uiso   1.00
C214   C     0.29821   0.52659   0.27862   0.00000  Uiso   1.00
C215   C     0.13632   0.49963   0.33786   0.00000  Uiso   1.00
C216   C     0.19705   0.49954   0.16210   0.00000  Uiso   1.00
C217   C     0.11826   0.49347   0.38778   0.00000  Uiso   1.00
C218   C     0.21605   0.49699   0.11154   0.00000  Uiso   1.00
C219   C     0.06182   0.46253   0.45744   0.00000  Uiso   1.00
C220   C     0.28008   0.50536   0.03643   0.00000  Uiso   1.00
C221   C     0.07315   0.47523   0.41188   0.00000  Uiso   1.00
C222   C     0.26475   0.50518   0.08464   0.00000  Uiso   1.00
C223   C     0.15097   0.49987   0.40962   0.00000  Uiso   1.00
C224   C     0.18372   0.48686   0.09012   0.00000  Uiso   1.00
C225   C     0.14240   0.48399   0.45336   0.00000  Uiso   1.00
C226   C     0.19849   0.48542   0.04198   0.00000  Uiso   1.00
C227   C     0.09616   0.46681   0.47839   0.00000  Uiso   1.00
C228   C     0.24706   0.49642   0.01496   0.00000  Uiso   1.00
C229   C     0.17849   0.48551   0.47291   0.00000  Uiso   1.00
C230   C     0.16504   0.47652   0.02041   0.00000  Uiso   1.00
H231   H     0.05016   0.44012   0.04317   0.00000  Uiso   1.00
H232   H     0.29875   0.50715   0.44576   0.00000  Uiso   1.00
H233   H     0.14614   0.48248   0.11171   0.00000  Uiso   1.00
H234   H     0.18366   0.51688   0.39135   0.00000  Uiso   1.00
H235   H     0.29035   0.51292   0.10081   0.00000  Uiso   1.00
H236   H     0.04758   0.46958   0.39513   0.00000  Uiso   1.00
H237   H     0.02689   0.44832   0.47580   0.00000  Uiso   1.00
H238   H     0.31724   0.51380   0.01609   0.00000  Uiso   1.00
H239   H     0.10793   0.44785   0.07959   0.00000  Uiso   1.00
H240   H     0.24147   0.49769   0.40908   0.00000  Uiso   1.00
H241   H     0.24153   0.62922   0.24531   0.00000  Uiso   1.00
H242   H     0.09167   0.37079   0.25509   0.00000  Uiso   1.00
H243   H     0.24147   0.37070   0.24544   0.00000  Uiso   1.00
H244   H     0.09175   0.62931   0.25489   0.00000  Uiso   1.00
N245   N     0.04759   0.50001   0.25001   0.00000  Uiso   1.00
N246   N     0.28574   0.49999   0.24999   0.00000  Uiso   1.00
O247   O     0.12846   0.56108   0.25001   0.00000  Uiso   1.00
O248   O     0.20488   0.43892   0.25000   0.00000  Uiso   1.00
O249   O     0.20490   0.56107   0.25000   0.00000  Uiso   1.00
O250   O     0.12843   0.43893   0.25000   0.00000  Uiso   1.00
O251   O     0.10661   0.50001   0.31613   0.00000  Uiso   1.00
O252   O     0.22672   0.49999   0.18388   0.00000  Uiso   1.00
O253   O     0.18305   0.50000   0.31612   0.00000  Uiso   1.00
O254   O     0.15028   0.50000   0.18388   0.00000  Uiso   1.00
Zn255  Zn    0.11562   0.50001   0.25000   0.00000  Uiso   1.00
Zn256  Zn    0.21771   0.49999   0.25000   0.00000  Uiso   1.00
C257   C     0.30826   0.44660   0.18972   0.00000  Uiso   1.00
N258   N     0.29875   0.42490   0.16431   0.00000  Uiso   1.00
C259   C     0.02508   0.55336   0.31031   0.00000  Uiso   1.00
N260   N     0.03461   0.57505   0.33571   0.00000  Uiso   1.00
C261   C     0.07036   0.44357   0.19279   0.00000  Uiso   1.00
N262   N     0.09832   0.41949   0.16975   0.00000  Uiso   1.00
C263   C     0.26255   0.55560   0.30822   0.00000  Uiso   1.00
N264   N     0.23428   0.57910   0.33200   0.00000  Uiso   1.00
C265   C     0.49999   0.58000   0.25007   0.00000  Uiso   1.00
C266   C     0.49998   0.42000   0.25001   0.00000  Uiso   1.00
C267   C     0.45200   0.45912   0.04471   0.00000  Uiso   1.00
C268   C     0.56105   0.49490   0.44633   0.00000  Uiso   1.00
C269   C     0.41846   0.45382   0.02366   0.00000  Uiso   1.00
C270   C     0.59488   0.49954   0.46708   0.00000  Uiso   1.00
C271   C     0.54201   0.64536   0.24751   0.00000  Uiso   1.00
C272   C     0.45787   0.35464   0.25286   0.00000  Uiso   1.00
C273   C     0.54199   0.35460   0.24753   0.00000  Uiso   1.00
C274   C     0.45790   0.64541   0.25280   0.00000  Uiso   1.00
C275   C     0.49994   0.37583   0.25013   0.00000  Uiso   1.00
C276   C     0.49997   0.62418   0.25013   0.00000  Uiso   1.00
C277   C     0.65382   0.47364   0.22117   0.00000  Uiso   1.00
C278   C     0.34617   0.52633   0.27886   0.00000  Uiso   1.00
C279   C     0.36837   0.47323   0.22160   0.00000  Uiso   1.00
C280   C     0.63154   0.52659   0.27862   0.00000  Uiso   1.00
C281   C     0.46965   0.49963   0.33786   0.00000  Uiso   1.00
C282   C     0.53039   0.49954   0.16210   0.00000  Uiso   1.00
C283   C     0.45159   0.49347   0.38778   0.00000  Uiso   1.00
C284   C     0.54938   0.49699   0.11154   0.00000  Uiso   1.00
C285   C     0.39515   0.46253   0.45744   0.00000  Uiso   1.00
C286   C     0.61342   0.50536   0.03643   0.00000  Uiso   1.00
C287   C     0.40649   0.47523   0.41188   0.00000  Uiso   1.00
C288   C     0.59809   0.50518   0.08464   0.00000  Uiso   1.00
C289   C     0.48430   0.49987   0.40962   0.00000  Uiso   1.00
C290   C     0.51705   0.48686   0.09012   0.00000  Uiso   1.00
C291   C     0.47573   0.48399   0.45336   0.00000  Uiso   1.00
C292   C     0.53183   0.48542   0.04198   0.00000  Uiso   1.00
C293   C     0.42949   0.46681   0.47839   0.00000  Uiso   1.00
C294   C     0.58039   0.49642   0.01496   0.00000  Uiso   1.00
C295   C     0.51182   0.48551   0.47291   0.00000  Uiso   1.00
C296   C     0.49838   0.47652   0.02041   0.00000  Uiso   1.00
H297   H     0.38349   0.44012   0.04317   0.00000  Uiso   1.00
H298   H     0.63209   0.50715   0.44576   0.00000  Uiso   1.00
H299   H     0.47947   0.48248   0.11171   0.00000  Uiso   1.00
H300   H     0.51699   0.51688   0.39135   0.00000  Uiso   1.00
H301   H     0.62369   0.51292   0.10081   0.00000  Uiso   1.00
H302   H     0.38091   0.46958   0.39513   0.00000  Uiso   1.00
H303   H     0.36023   0.44832   0.47580   0.00000  Uiso   1.00
H304   H     0.65058   0.51380   0.01609   0.00000  Uiso   1.00
H305   H     0.44126   0.44785   0.07959   0.00000  Uiso   1.00
H306   H     0.57481   0.49769   0.40908   0.00000  Uiso   1.00
H307   H     0.57486   0.62922   0.24531   0.00000  Uiso   1.00
H308   H     0.42500   0.37079   0.25509   0.00000  Uiso   1.00
H309   H     0.57480   0.37070   0.24544   0.00000  Uiso   1.00
H310   H     0.42508   0.62931   0.25489   0.00000  Uiso   1.00
N311   N     0.38093   0.50001   0.25001   0.00000  Uiso   1.00
N312   N     0.61907   0.49999   0.24999   0.00000  Uiso   1.00
O313   O     0.46179   0.56108   0.25001   0.00000  Uiso   1.00
O314   O     0.53821   0.43892   0.25000   0.00000  Uiso   1.00
O315   O     0.53823   0.56107   0.25000   0.00000  Uiso   1.00
O316   O     0.46177   0.43893   0.25000   0.00000  Uiso   1.00
O317   O     0.43994   0.50001   0.31613   0.00000  Uiso   1.00
O318   O     0.56006   0.49999   0.18388   0.00000  Uiso   1.00
O319   O     0.51639   0.50000   0.31612   0.00000  Uiso   1.00
O320   O     0.48361   0.50000   0.18388   0.00000  Uiso   1.00
Zn321  Zn    0.44896   0.50001   0.25000   0.00000  Uiso   1.00
Zn322  Zn    0.55104   0.49999   0.25000   0.00000  Uiso   1.00
C323   C     0.64159   0.44660   0.18972   0.00000  Uiso   1.00
N324   N     0.63209   0.42490   0.16431   0.00000  Uiso   1.00
C325   C     0.35841   0.55336   0.31031   0.00000  Uiso   1.00
N326   N     0.36795   0.57505   0.33571   0.00000  Uiso   1.00
C327   C     0.40370   0.44357   0.19279   0.00000  Uiso   1.00
N328   N     0.43166   0.41949   0.16975   0.00000  Uiso   1.00
C329   C     0.59588   0.55560   0.30822   0.00000  Uiso   1.00
N330   N     0.56761   0.57910   0.33200   0.00000  Uiso   1.00
C331   C     0.83333   0.58000   0.25007   0.00000  Uiso   1.00
C332   C     0.83331   0.42000   0.25001   0.00000  Uiso   1.00
C333   C     0.78533   0.45912   0.04471   0.00000  Uiso   1.00
C334   C     0.89438   0.49490   0.44633   0.00000  Uiso   1.00
C335   C     0.75179   0.45382   0.02366   0.00000  Uiso   1.00
C336   C     0.92822   0.49954   0.46708   0.00000  Uiso   1.00
C337   C     0.87534   0.64536   0.24751   0.00000  Uiso   1.00
C338   C     0.79120   0.35464   0.25286   0.00000  Uiso   1.00
C339   C     0.87532   0.35460   0.24753   0.00000  Uiso   1.00
C340   C     0.79123   0.64541   0.25280   0.00000  Uiso   1.00
C341   C     0.83328   0.37583   0.25013   0.00000  Uiso   1.00
C342   C     0.83330   0.62418   0.25013   0.00000  Uiso   1.00
C343   C     0.98715   0.47364   0.22117   0.00000  Uiso   1.00
C344   C     0.67950   0.52633   0.27886   0.00000  Uiso   1.00
C345   C     0.70171   0.47323   0.22160   0.00000  Uiso   1.00
C346   C     0.96487   0.52659   0.27862   0.00000  Uiso   1.00
C347   C     0.80299   0.49963   0.33786   0.00000  Uiso   1.00
C348   C     0.86372   0.49954   0.16210   0.00000  Uiso   1.00
C349   C     0.78492   0.49347   0.38778   0.00000  Uiso   1.00
C350   C     0.88272   0.49699   0.11154   0.00000  Uiso   1.00
C351   C     0.72849   0.46253   0.45744   0.00000  Uiso   1.00
C352   C     0.94675   0.50536   0.03643   0.00000  Uiso   1.00
C353   C     0.73982   0.47523   0.41188   0.00000  Uiso   1.00
C354   C     0.93142   0.50518   0.08464   0.00000  Uiso   1.00
C355   C     0.81763   0.49987   0.40962   0.00000  Uiso   1.00
C356   C     0.85038   0.48686   0.09012   0.00000  Uiso   1.00
C357   C     0.80907   0.48399   0.45336   0.00000  Uiso   1.00
C358   C     0.86516   0.48542   0.04198   0.00000  Uiso   1.00
C359   C     0.76283   0.46681   0.47839   0.00000  Uiso   1.00
C360   C     0.91373   0.49642   0.01496   0.00000  Uiso   1.00
C361   C     0.84515   0.48551   0.47291   0.00000  Uiso   1.00
C362   C     0.83171   0.47652   0.02041   0.00000  Uiso   1.00
H363   H     0.71683   0.44012   0.04317   0.00000  Uiso   1.00
H364   H     0.96542   0.50715   0.44576   0.00000  Uiso   1.00
H365   H     0.81280   0.48248   0.11171   0.00000  Uiso   1.00
H366   H     0.85033   0.51688   0.39135   0.00000  Uiso   1.00
H367   H     0.95702   0.51292   0.10081   0.00000  Uiso   1.00
H368   H     0.71425   0.46958   0.39513   0.00000  Uiso   1.00
H369   H     0.69356   0.44832   0.47580   0.00000  Uiso   1.00
H370   H     0.98391   0.51380   0.01609   0.00000  Uiso   1.00
H371   H     0.77460   0.44785   0.07959   0.00000  Uiso   1.00
H372   H     0.90814   0.49769   0.40908   0.00000  Uiso   1.00
H373   H     0.90819   0.62922   0.24531   0.00000  Uiso   1.00
H374   H     0.75834   0.37079   0.25509   0.00000  Uiso   1.00
H375   H     0.90814   0.37070   0.24544   0.00000  Uiso   1.00
H376   H     0.75842   0.62931   0.25489   0.00000  Uiso   1.00
N377   N     0.71426   0.50001   0.25001   0.00000  Uiso   1.00
N378   N     0.95241   0.49999   0.24999   0.00000  Uiso   1.00
O379   O     0.79512   0.56108   0.25001   0.00000  Uiso   1.00
O380   O     0.87154   0.43892   0.25000   0.00000  Uiso   1.00
O381   O     0.87157   0.56107   0.25000   0.00000  Uiso   1.00
O382   O     0.79510   0.43893   0.25000   0.00000  Uiso   1.00
O383   O     0.77328   0.50001   0.31613   0.00000  Uiso   1.00
O384   O     0.89339   0.49999   0.18388   0.00000  Uiso   1.00
O385   O     0.84972   0.50000   0.31612   0.00000  Uiso   1.00
O386   O     0.81695   0.50000   0.18388   0.00000  Uiso   1.00
Zn387  Zn    0.78229   0.50001   0.25000   0.00000  Uiso   1.00
Zn388  Zn    0.88438   0.49999   0.25000   0.00000  Uiso   1.00
C389   C     0.97492   0.44660   0.18972   0.00000  Uiso   1.00
N390   N     0.96542   0.42490   0.16431   0.00000  Uiso   1.00
C391   C     0.69175   0.55336   0.31031   0.00000  Uiso   1.00
N392   N     0.70128   0.57505   0.33571   0.00000  Uiso   1.00
C393   C     0.73703   0.44357   0.19279   0.00000  Uiso   1.00
N394   N     0.76499   0.41949   0.16975   0.00000  Uiso   1.00
C395   C     0.92922   0.55560   0.30822   0.00000  Uiso   1.00
N396   N     0.90095   0.57910   0.33200   0.00000  Uiso   1.00
C397   C     0.16666   0.91333   0.25007   0.00000  Uiso   1.00
C398   C     0.16665   0.75334   0.25001   0.00000  Uiso   1.00
C399   C     0.11867   0.79245   0.04471   0.00000  Uiso   1.00
C400   C     0.22771   0.82823   0.44633   0.00000  Uiso   1.00
C401   C     0.08513   0.78716   0.02366   0.00000  Uiso   1.00
C402   C     0.26155   0.83288   0.46708   0.00000  Uiso   1.00
C403   C     0.20868   0.97870   0.24751   0.00000  Uiso   1.00
C404   C     0.12453   0.68798   0.25286   0.00000  Uiso   1.00
C405   C     0.20866   0.68793   0.24753   0.00000  Uiso   1.00
C406   C     0.12456   0.97874   0.25280   0.00000  Uiso   1.00
C407   C     0.16661   0.70916   0.25013   0.00000  Uiso   1.00
C408   C     0.16663   0.95751   0.25013   0.00000  Uiso   1.00
C409   C     0.32049   0.80697   0.22117   0.00000  Uiso   1.00
C410   C     0.01283   0.85966   0.27886   0.00000  Uiso   1.00
C411   C     0.03504   0.80657   0.22160   0.00000  Uiso   1.00
C412   C     0.29821   0.85992   0.27862   0.00000  Uiso   1.00
C413   C     0.13632   0.83296   0.33786   0.00000  Uiso   1.00
C414   C     0.19705   0.83288   0.16210   0.00000  Uiso   1.00
C415   C     0.11826   0.82680   0.38778   0.00000  Uiso   1.00
C416   C     0.21605   0.83033   0.11154   0.00000  Uiso   1.00
C417   C     0.06182   0.79587   0.45744   0.00000  Uiso   1.00
C418   C     0.28008   0.83870   0.03643   0.00000  Uiso   1.00
C419   C     0.07315   0.80856   0.41188   0.00000  Uiso   1.00
C420   C     0.26475   0.83852   0.08464   0.00000  Uiso   1.00
C421   C     0.15097   0.83320   0.40962   0.00000  Uiso   1.00
C422   C     0.18372   0.82020   0.09012   0.00000  Uiso   1.00
C423   C     0.14240   0.81732   0.45336   0.00000  Uiso   1.00
C424   C     0.19849   0.81875   0.04198   0.00000  Uiso   1.00
C425   C     0.09616   0.80014   0.47839   0.00000  Uiso   1.00
C426   C     0.24706   0.82976   0.01496   0.00000  Uiso   1.00
C427   C     0.17849   0.81884   0.47291   0.00000  Uiso   1.00
C428   C     0.16504   0.80986   0.02041   0.00000  Uiso   1.00
H429   H     0.05016   0.77346   0.04317   0.00000  Uiso   1.00
H430   H     0.29875   0.84048   0.44576   0.00000  Uiso   1.00
H431   H     0.14614   0.81581   0.11171   0.00000  Uiso   1.00
H432   H     0.18366   0.85022   0.39135   0.00000  Uiso   1.00
H433   H     0.29035   0.84625   0.10081   0.00000  Uiso   1.00
H434   H     0.04758   0.80291   0.39513   0.00000  Uiso   1.00
H435   H     0.02689   0.78165   0.47580   0.00000  Uiso   1.00
H436   H     0.31724   0.84713   0.01609   0.00000  Uiso   1.00
H437   H     0.10793   0.78118   0.07959   0.00000  Uiso   1.00
H438   H     0.24147   0.83102   0.40908   0.00000  Uiso   1.00
H439   H     0.24153   0.96255   0.24531   0.00000  Uiso   1.00
H440   H     0.09167   0.70412   0.25509   0.00000  Uiso   1.00
H441   H     0.24147   0.70403   0.24544   0.00000  Uiso   1.00
H442   H     0.09175   0.96264   0.25489   0.00000  Uiso   1.00
N443   N     0.04759   0.83334   0.25001   0.00000  Uiso   1.00
N444   N     0.28574   0.83332   0.24999   0.00000  Uiso   1.00
O445   O     0.12846   0.89442   0.25001   0.00000  Uiso   1.00
O446   O     0.20488   0.77225   0.25000   0.00000  Uiso   1.00
O447   O     0.20490   0.89441   0.25000   0.00000  Uiso   1.00
O448   O     0.12843   0.77226   0.25000   0.00000  Uiso   1.00
O449   O     0.10661   0.83334   0.31613   0.00000  Uiso   1.00
O450   O     0.22672   0.83333   0.18388   0.00000  Uiso   1.00
O451   O     0.18305   0.83333   0.31612   0.00000  Uiso   1.00
O452   O     0.15028   0.83334   0.18388   0.00000  Uiso   1.00
Zn453  Zn    0.11562   0.83334   0.25000   0.00000  Uiso   1.00
Zn454  Zn    0.21771   0.83333   0.25000   0.00000  Uiso   1.00
C455   C     0.30826   0.77993   0.18972   0.00000  Uiso   1.00
N456   N     0.29875   0.75824   0.16431   0.00000  Uiso   1.00
C457   C     0.02508   0.88669   0.31031   0.00000  Uiso   1.00
N458   N     0.03461   0.90838   0.33571   0.00000  Uiso   1.00
C459   C     0.07036   0.77691   0.19279   0.00000  Uiso   1.00
N460   N     0.09832   0.75282   0.16975   0.00000  Uiso   1.00
C461   C     0.26255   0.88893   0.30822   0.00000  Uiso   1.00
N462   N     0.23428   0.91243   0.33200   0.00000  Uiso   1.00
C463   C     0.49999   0.91333   0.25007   0.00000  Uiso   1.00
C464   C     0.49998   0.75334   0.25001   0.00000  Uiso   1.00
C465   C     0.45200   0.79245   0.04471   0.00000  Uiso   1.00
C466   C     0.56105   0.82823   0.44633   0.00000  Uiso   1.00
C467   C     0.41846   0.78716   0.02366   0.00000  Uiso   1.00
C468   C     0.59488   0.83288   0.46708   0.00000  Uiso   1.00
C469   C     0.54201   0.97870   0.24751   0.00000  Uiso   1.00
C470   C     0.45787   0.68798   0.25286   0.00000  Uiso   1.00
C471   C     0.54199   0.68793   0.24753   0.00000  Uiso   1.00
C472   C     0.45790   0.97874   0.25280   0.00000  Uiso   1.00
C473   C     0.49994   0.70916   0.25013   0.00000  Uiso   1.00
C474   C     0.49997   0.95751   0.25013   0.00000  Uiso   1.00
C475   C     0.65382   0.80697   0.22117   0.00000  Uiso   1.00
C476   C     0.34617   0.85966   0.27886   0.00000  Uiso   1.00
C477   C     0.36837   0.80657   0.22160   0.00000  Uiso   1.00
C478   C     0.63154   0.85992   0.27862   0.00000  Uiso   1.00
C479   C     0.46965   0.83296   0.33786   0.00000  Uiso   1.00
C480   C     0.53039   0.83288   0.16210   0.00000  Uiso   1.00
C481   C     0.45159   0.82680   0.38778   0.00000  Uiso   1.00
C482   C     0.54938   0.83033   0.11154   0.00000  Uiso   1.00
C483   C     0.39515   0.79587   0.45744   0.00000  Uiso   1.00
C484   C     0.61342   0.83870   0.03643   0.00000  Uiso   1.00
C485   C     0.40649   0.80856   0.41188   0.00000  Uiso   1.00
C486   C     0.59809   0.83852   0.08464   0.00000  Uiso   1.00
C487   C     0.48430   0.83320   0.40962   0.00000  Uiso   1.00
C488   C     0.51705   0.82020   0.09012   0.00000  Uiso   1.00
C489   C     0.47573   0.81732   0.45336   0.00000  Uiso   1.00
C490   C     0.53183   0.81875   0.04198   0.00000  Uiso   1.00
C491   C     0.42949   0.80014   0.47839   0.00000  Uiso   1.00
C492   C     0.58039   0.82976   0.01496   0.00000  Uiso   1.00
C493   C     0.51182   0.81884   0.47291   0.00000  Uiso   1.00
C494   C     0.49838   0.80986   0.02041   0.00000  Uiso   1.00
H495   H     0.38349   0.77346   0.04317   0.00000  Uiso   1.00
H496   H     0.63209   0.84048   0.44576   0.00000  Uiso   1.00
H497   H     0.47947   0.81581   0.11171   0.00000  Uiso   1.00
H498   H     0.51699   0.85022   0.39135   0.00000  Uiso   1.00
H499   H     0.62369   0.84625   0.10081   0.00000  Uiso   1.00
H500   H     0.38091   0.80291   0.39513   0.00000  Uiso   1.00
H501   H     0.36023   0.78165   0.47580   0.00000  Uiso   1.00
H502   H     0.65058   0.84713   0.01609   0.00000  Uiso   1.00
H503   H     0.44126   0.78118   0.07959   0.00000  Uiso   1.00
H504   H     0.57481   0.83102   0.40908   0.00000  Uiso   1.00
H505   H     0.57486   0.96255   0.24531   0.00000  Uiso   1.00
H506   H     0.42500   0.70412   0.25509   0.00000  Uiso   1.00
H507   H     0.57480   0.70403   0.24544   0.00000  Uiso   1.00
H508   H     0.42508   0.96264   0.25489   0.00000  Uiso   1.00
N509   N     0.38093   0.83334   0.25001   0.00000  Uiso   1.00
N510   N     0.61907   0.83332   0.24999   0.00000  Uiso   1.00
O511   O     0.46179   0.89442   0.25001   0.00000  Uiso   1.00
O512   O     0.53821   0.77225   0.25000   0.00000  Uiso   1.00
O513   O     0.53823   0.89441   0.25000   0.00000  Uiso   1.00
O514   O     0.46177   0.77226   0.25000   0.00000  Uiso   1.00
O515   O     0.43994   0.83334   0.31613   0.00000  Uiso   1.00
O516   O     0.56006   0.83333   0.18388   0.00000  Uiso   1.00
O517   O     0.51639   0.83333   0.31612   0.00000  Uiso   1.00
O518   O     0.48361   0.83334   0.18388   0.00000  Uiso   1.00
Zn519  Zn    0.44896   0.83334   0.25000   0.00000  Uiso   1.00
Zn520  Zn    0.55104   0.83333   0.25000   0.00000  Uiso   1.00
C521   C     0.64159   0.77993   0.18972   0.00000  Uiso   1.00
N522   N     0.63209   0.75824   0.16431   0.00000  Uiso   1.00
C523   C     0.35841   0.88669   0.31031   0.00000  Uiso   1.00
N524   N     0.36795   0.90838   0.33571   0.00000  Uiso   1.00
C525   C     0.40370   0.77691   0.19279   0.00000  Uiso   1.00
N526   N     0.43166   0.75282   0.16975   0.00000  Uiso   1.00
C527   C     0.59588   0.88893   0.30822   0.00000  Uiso   1.00
N528   N     0.56761   0.91243   0.33200   0.00000  Uiso   1.00
C529   C     0.83333   0.91333   0.25007   0.00000  Uiso   1.00
C530   C     0.83331   0.75334   0.25001   0.00000  Uiso   1.00
C531   C     0.78533   0.79245   0.04471   0.00000  Uiso   1.00
C532   C     0.89438   0.82823   0.44633   0.00000  Uiso   1.00
C533   C     0.75179   0.78716   0.02366   0.00000  Uiso   1.00
C534   C     0.92822   0.83288   0.46708   0.00000  Uiso   1.00
C535   C     0.87534   0.97870   0.24751   0.00000  Uiso   1.00
C536   C     0.79120   0.68798   0.25286   0.00000  Uiso   1.00
C537   C     0.87532   0.68793   0.24753   0.00000  Uiso   1.00
C538   C     0.79123   0.97874   0.25280   0.00000  Uiso   1.00
C539   C     0.83328   0.70916   0.25013   0.00000  Uiso   1.00
C540   C     0.83330   0.95751   0.25013   0.00000  Uiso   1.00
C541   C     0.98715   0.80697   0.22117   0.00000  Uiso   1.00
C542   C     0.67950   0.85966   0.27886   0.00000  Uiso   1.00
C543   C     0.70171   0.80657   0.22160   0.00000  Uiso   1.00
C544   C     0.96487   0.85992   0.27862   0.00000  Uiso   1.00
C545   C     0.80299   0.83296   0.33786   0.00000  Uiso   1.00
C546   C     0.86372   0.83288   0.16210   0.00000  Uiso   1.00
C547   C     0.78492   0.82680   0.38778   0.00000  Uiso   1.00
C548   C     0.88272   0.83033   0.11154   0.00000  Uiso   1.00
C549   C     0.72849   0.79587   0.45744   0.00000  Uiso   1.00
C550   C     0.94675   0.83870   0.03643   0.00000  Uiso   1.00
C551   C     0.73982   0.80856   0.41188   0.00000  Uiso   1.00
C552   C     0.93142   0.83852   0.08464   0.00000  Uiso   1.00
C553   C     0.81763   0.83320   0.40962   0.00000  Uiso   1.00
C554   C     0.85038   0.82020   0.09012   0.00000  Uiso   1.00
C555   C     0.80907   0.81732   0.45336   0.00000  Uiso   1.00
C556   C     0.86516   0.81875   0.04198   0.00000  Uiso   1.00
C557   C     0.76283   0.80014   0.47839   0.00000  Uiso   1.00
C558   C     0.91373   0.82976   0.01496   0.00000  Uiso   1.00
C559   C     0.84515   0.81884   0.47291   0.00000  Uiso   1.00
C560   C     0.83171   0.80986   0.02041   0.00000  Uiso   1.00
H561   H     0.71683   0.77346   0.04317   0.00000  Uiso   1.00
H562   H     0.96542   0.84048   0.44576   0.00000  Uiso   1.00
H563   H     0.81280   0.81581   0.11171   0.00000  Uiso   1.00
H564   H     0.85033   0.85022   0.39135   0.00000  Uiso   1.00
H565   H     0.95702   0.84625   0.10081   0.00000  Uiso   1.00
H566   H     0.71425   0.80291   0.39513   0.00000  Uiso   1.00
H567   H     0.69356   0.78165   0.47580   0.00000  Uiso   1.00
H568   H     0.98391   0.84713   0.01609   0.00000  Uiso   1.00
H569   H     0.77460   0.78118   0.07959   0.00000  Uiso   1.00
H570   H     0.90814   0.83102   0.40908   0.00000  Uiso   1.00
H571   H     0.90819   0.96255   0.24531   0.00000  Uiso   1.00
H572   H     0.75834   0.70412   0.25509   0.00000  Uiso   1.00
H573   H     0.90814   0.70403   0.24544   0.00000  Uiso   1.00
H574   H     0.75842   0.96264   0.25489   0.00000  Uiso   1.00
N575   N     0.71426   0.83334   0.25001   0.00000  Uiso   1.00
N576   N     0.95241   0.83332   0.24999   0.00000  Uiso   1.00
O577   O     0.79512   0.89442   0.25001   0.00000  Uiso   1.00
O578   O     0.87154   0.77225   0.25000   0.00000  Uiso   1.00
O579   O     0.87157   0.89441   0.25000   0.00000  Uiso   1.00
O580   O     0.79510   0.77226   0.25000   0.00000  Uiso   1.00
O581   O     0.77328   0.83334   0.31613   0.00000  Uiso   1.00
O582   O     0.89339   0.83333   0.18388   0.00000  Uiso   1.00
O583   O     0.84972   0.83333   0.31612   0.00000  Uiso   1.00
O584   O     0.81695   0.83334   0.18388   0.00000  Uiso   1.00
Zn585  Zn    0.78229   0.83334   0.25000   0.00000  Uiso   1.00
Zn586  Zn    0.88438   0.83333   0.25000   0.00000  Uiso   1.00
C587   C     0.97492   0.77993   0.18972   0.00000  Uiso   1.00
N588   N     0.96542   0.75824   0.16431   0.00000  Uiso   1.00
C589   C     0.69175   0.88669   0.31031   0.00000  Uiso   1.00
N590   N     0.70128   0.90838   0.33571   0.00000  Uiso   1.00
C591   C     0.73703   0.77691   0.19279   0.00000  Uiso   1.00
N592   N     0.76499   0.75282   0.16975   0.00000  Uiso   1.00
C593   C     0.92922   0.88893   0.30822   0.00000  Uiso   1.00
N594   N     0.90095   0.91243   0.33200   0.00000  Uiso   1.00
C595   C     0.16666   0.24666   0.75007   0.00000  Uiso   1.00
C596   C     0.16665   0.08667   0.75001   0.00000  Uiso   1.00
C597   C     0.11867   0.12579   0.54471   0.00000  Uiso   1.00
C598   C     0.22771   0.16157   0.94633   0.00000  Uiso   1.00
C599   C     0.08513   0.12049   0.52366   0.00000  Uiso   1.00
C600   C     0.26155   0.16621   0.96708   0.00000  Uiso   1.00
C601   C     0.20868   0.31203   0.74751   0.00000  Uiso   1.00
C602   C     0.12453   0.02131   0.75286   0.00000  Uiso   1.00
C603   C     0.20866   0.02126   0.74753   0.00000  Uiso   1.00
C604   C     0.12456   0.31208   0.75280   0.00000  Uiso   1.00
C605   C     0.16661   0.04249   0.75013   0.00000  Uiso   1.00
C606   C     0.16663   0.29085   0.75013   0.00000  Uiso   1.00
C607   C     0.32049   0.14030   0.72117   0.00000  Uiso   1.00
C608   C     0.01283   0.19300   0.77886   0.00000  Uiso   1.00
C609   C     0.03504   0.13990   0.72160   0.00000  Uiso   1.00
C610   C     0.29821   0.19325   0.77862   0.00000  Uiso   1.00
C611   C     0.13632   0.16630   0.83786   0.00000  Uiso   1.00
C612   C     0.19705   0.16621   0.66210   0.00000  Uiso   1.00
C613   C     0.11826   0.16013   0.88778   0.00000  Uiso   1.00
C614   C     0.21605   0.16366   0.61154   0.00000  Uiso   1.00
C615   C     0.06182   0.12920   0.95744   0.00000  Uiso   1.00
C616   C     0.28008   0.17203   0.53643   0.00000  Uiso   1.00
C617   C     0.07315   0.14189   0.91188   0.00000  Uiso   1.00
C618   C     0.26475   0.17185   0.58464   0.00000  Uiso   1.00
C619   C     0.15097   0.16654   0.90962   0.00000  Uiso   1.00
C620   C     0.18372   0.15353   0.59012   0.00000  Uiso   1.00
C621   C     0.14240   0.15066   0.95336   0.00000  Uiso   1.00
C622   C     0.19849   0.15209   0.54198   0.00000  Uiso   1.00
C623   C     0.09616   0.13348   0.97839   0.00000  Uiso   1.00
C624   C     0.24706   0.16309   0.51496   0.00000  Uiso   1.00
C625   C     0.17849   0.15217   0.97291   0.00000  Uiso   1.00
C626   C     0.16504   0.14319   0.52041   0.00000  Uiso   1.00
H627   H     0.05016   0.10679   0.54317   0.00000  Uiso   1.00
H628   H     0.29875   0.17381   0.94576   0.00000  Uiso   1.00
H629   H     0.14614   0.14914   0.61171   0.00000  Uiso   1.00
H630   H     0.18366   0.18355   0.89135   0.00000  Uiso   1.00
H631   H     0.29035   0.17958   0.60081   0.00000  Uiso   1.00
H632   H     0.04758   0.13625   0.89513   0.00000  Uiso   1.00
H633   H     0.02689   0.11498   0.97580   0.00000  Uiso   1.00
H634   H     0.31724   0.18046   0.51609   0.00000  Uiso   1.00
H635   H     0.10793   0.11451   0.57959   0.00000  Uiso   1.00
H636   H     0.24147   0.16435   0.90908   0.00000  Uiso   1.00
H637   H     0.24153   0.29589   0.74531   0.00000  Uiso   1.00
H638   H     0.09167   0.03745   0.75509   0.00000  Uiso   1.00
H639   H     0.24147   0.03736   0.74544   0.00000  Uiso   1.00
H640   H     0.09175   0.29598   0.75489   0.00000  Uiso   1.00
N641   N     0.04759   0.16668   0.75001   0.00000  Uiso   1.00
N642   N     0.28574   0.16666   0.74999   0.00000  Uiso   1.00
O643   O     0.12846   0.22775   0.75001   0.00000  Uiso   1.00
O644   O     0.20488   0.10558   0.75000   0.00000  Uiso   1.00
O645   O     0.20490   0.22774   0.75000   0.00000  Uiso   1.00
O646   O     0.12843   0.10559   0.75000   0.00000  Uiso   1.00
O647   O     0.10661   0.16667   0.81613   0.00000  Uiso   1.00
O648   O     0.22672   0.16666   0.68388   0.00000  Uiso   1.00
O649   O     0.18305   0.16666   0.81612   0.00000  Uiso   1.00
O650   O     0.15028   0.16667   0.68388   0.00000  Uiso   1.00
Zn651  Zn    0.11562   0.16667   0.75000   0.00000  Uiso   1.00
Zn652  Zn    0.21771   0.16666   0.75000   0.00000  Uiso   1.00
C653   C     0.30826   0.11326   0.68972   0.00000  Uiso   1.00
N654   N     0.29875   0.09157   0.66431   0.00000  Uiso   1.00
C655   C     0.02508   0.22002   0.81031   0.00000  Uiso   1.00
N656   N     0.03461   0.24171   0.83571   0.00000  Uiso   1.00
C657   C     0.07036   0.11024   0.69279   0.00000  Uiso   1.00
N658   N     0.09832   0.08615   0.66975   0.00000  Uiso   1.00
C659   C     0.26255   0.22227   0.80822   0.00000  Uiso   1.00
N660   N     0.23428   0.24576   0.83200   0.00000  Uiso   1.00
C661   C     0.49999   0.24666   0.75007   0.00000  Uiso   1.00
C662   C     0.49998   0.08667   0.75001   0.00000  Uiso   1.00
C663   C     0.45200   0.12579   0.54471   0.00000  Uiso   1.00
C664   C     0.56105   0.16157   0.94633   0.00000  Uiso   1.00
C665   C     0.41846   0.12049   0.52366   0.00000  Uiso   1.00
C666   C     0.59488   0.16621   0.96708   0.00000  Uiso   1.00
C667   C     0.54201   0.31203   0.74751   0.00000  Uiso   1.00
C668   C     0.45787   0.02131   0.75286   0.00000  Uiso   1.00
C669   C     0.54199   0.02126   0.74753   0.00000  Uiso   1.00
C670   C     0.45790   0.31208   0.75280   0.00000  Uiso   1.00
C671   C     0.49994   0.04249   0.75013   0.00000  Uiso   1.00
C672   C     0.49997   0.29085   0.75013   0.00000  Uiso   1.00
C673   C     0.65382   0.14030   0.72117   0.00000  Uiso   1.00
C674   C     0.34617   0.19300   0.77886   0.00000  Uiso   1.00
C675   C     0.36837   0.13990   0.72160   0.00000  Uiso   1.00
C676   C     0.63154   0.19325   0.77862   0.00000  Uiso   1.00
C677   C     0.46965   0.16630   0.83786   0.00000  Uiso   1.00
C678   C     0.53039   0.16621   0.66210   0.00000  Uiso   1.00
C679   C     0.45159   0.16013   0.88778   0.00000  Uiso   1.00
C680   C     0.54938   0.16366   0.61154   0.00000  Uiso   1.00
C681   C     0.39515   0.12920   0.95744   0.00000  Uiso   1.00
C682   C     0.61342   0.17203   0.53643   0.00000  Uiso   1.00
C683   C     0.40649   0.14189   0.91188   0.00000  Uiso   1.00
C684   C     0.59809   0.17185   0.58464   0.00000  Uiso   1.00
C685   C     0.48430   0.16654   0.90962   0.00000  Uiso   1.00
C686   C     0.51705   0.15353   0.59012   0.00000  Uiso   1.00
C687   C     0.47573   0.15066   0.95336   0.00000  Uiso   1.00
C688   C     0.53183   0.15209   0.54198   0.00000  Uiso   1.00
C689   C     0.42949   0.13348   0.97839   0.00000  Uiso   1.00
C690   C     0.58039   0.16309   0.51496   0.00000  Uiso   1.00
C691   C     0.51182   0.15217   0.97291   0.00000  Uiso   1.00
C692   C     0.49838   0.14319   0.52041   0.00000  Uiso   1.00
H693   H     0.38349   0.10679   0.54317   0.00000  Uiso   1.00
H694   H     0.63209   0.17381   0.94576   0.00000  Uiso   1.00
H695   H     0.47947   0.14914   0.61171   0.00000  Uiso   1.00
H696   H     0.51699   0.18355   0.89135   0.00000  Uiso   1.00
H697   H     0.62369   0.17958   0.60081   0.00000  Uiso   1.00
H698   H     0.38091   0.13625   0.89513   0.00000  Uiso   1.00
H699   H     0.36023   0.11498   0.97580   0.00000  Uiso   1.00
H700   H     0.65058   0.18046   0.51609   0.00000  Uiso   1.00
H701   H     0.44126   0.11451   0.57959   0.00000  Uiso   1.00
H702   H     0.57481   0.16435   0.90908   0.00000  Uiso   1.00
H703   H     0.57486   0.29589   0.74531   0.00000  Uiso   1.00
H704   H     0.42500   0.03745   0.75509   0.00000  Uiso   1.00
H705   H     0.57480   0.03736   0.74544   0.00000  Uiso   1.00
H706   H     0.42508   0.29598   0.75489   0.00000  Uiso   1.00
N707   N     0.38093   0.16668   0.75001   0.00000  Uiso   1.00
N708   N     0.61907   0.16666   0.74999   0.00000  Uiso   1.00
O709   O     0.46179   0.22775   0.75001   0.00000  Uiso   1.00
O710   O     0.53821   0.10558   0.75000   0.00000  Uiso   1.00
O711   O     0.53823   0.22774   0.75000   0.00000  Uiso   1.00
O712   O     0.46177   0.10559   0.75000   0.00000  Uiso   1.00
O713   O     0.43994   0.16667   0.81613   0.00000  Uiso   1.00
O714   O     0.56006   0.16666   0.68388   0.00000  Uiso   1.00
O715   O     0.51639   0.16666   0.81612   0.00000  Uiso   1.00
O716   O     0.48361   0.16667   0.68388   0.00000  Uiso   1.00
Zn717  Zn    0.44896   0.16667   0.75000   0.00000  Uiso   1.00
Zn718  Zn    0.55104   0.16666   0.75000   0.00000  Uiso   1.00
C719   C     0.64159   0.11326   0.68972   0.00000  Uiso   1.00
N720   N     0.63209   0.09157   0.66431   0.00000  Uiso   1.00
C721   C     0.35841   0.22002   0.81031   0.00000  Uiso   1.00
N722   N     0.36795   0.24171   0.83571   0.00000  Uiso   1.00
C723   C     0.40370   0.11024   0.69279   0.00000  Uiso   1.00
N724   N     0.43166   0.08615   0.66975   0.00000  Uiso   1.00
C725   C     0.59588   0.22227   0.80822   0.00000  Uiso   1.00
N726   N     0.56761   0.24576   0.83200   0.00000  Uiso   1.00
C727   C     0.83333   0.24666   0.75007   0.00000  Uiso   1.00
C728   C     0.83331   0.08667   0.75001   0.00000  Uiso   1.00
C729   C     0.78533   0.12579   0.54471   0.00000  Uiso   1.00
C730   C     0.89438   0.16157   0.94633   0.00000  Uiso   1.00
C731   C     0.75179   0.12049   0.52366   0.00000  Uiso   1.00
C732   C     0.92822   0.16621   0.96708   0.00000  Uiso   1.00
C733   C     0.87534   0.31203   0.74751   0.00000  Uiso   1.00
C734   C     0.79120   0.02131   0.75286   0.00000  Uiso   1.00
C735   C     0.87532   0.02126   0.74753   0.00000  Uiso   1.00
C736   C     0.79123   0.31208   0.75280   0.00000  Uiso   1.00
C737   C     0.83328   0.04249   0.75013   0.00000  Uiso   1.00
C738   C     0.83330   0.29085   0.75013   0.00000  Uiso   1.00
C739   C     0.98715   0.14030   0.72117   0.00000  Uiso   1.00
C740   C     0.67950   0.19300   0.77886   0.00000  Uiso   1.00
C741   C     0.70171   0.13990   0.72160   0.00000  Uiso   1.00
C742   C     0.96487   0.19325   0.77862   0.00000  Uiso   1.00
C743   C     0.80299   0.16630   0.83786   0.00000  Uiso   1.00
C744   C     0.86372   0.16621   0.66210   0.00000  Uiso   1.00
C745   C     0.78492   0.16013   0.88778   0.00000  Uiso   1.00
C746   C     0.88272   0.16366   0.61154   0.00000  Uiso   1.00
C747   C     0.72849   0.12920   0.95744   0.00000  Uiso   1.00
C748   C     0.94675   0.17203   0.53643   0.00000  Uiso   1.00
C749   C     0.73982   0.14189   0.91188   0.00000  Uiso   1.00
C750   C     0.93142   0.17185   0.58464   0.00000  Uiso   1.00
C751   C     0.81763   0.16654   0.90962   0.00000  Uiso   1.00
C752   C     0.85038   0.15353   0.59012   0.00000  Uiso   1.00
C753   C     0.80907   0.15066   0.95336   0.00000  Uiso   1.00
C754   C     0.86516   0.15209   0.54198   0.00000  Uiso   1.00
C755   C     0.76283   0.13348   0.97839   0.00000  Uiso   1.00
C756   C     0.91373   0.16309   0.51496   0.00000  Uiso   1.00
C757   C     0.84515   0.15217   0.97291   0.00000  Uiso   1.00
C758   C     0.83171   0.14319   0.52041   0.00000  Uiso   1.00
H759   H     0.71683   0.10679   0.54317   0.00000  Uiso   1.00
H760   H     0.96542   0.17381   0.94576   0.00000  Uiso   1.00
H761   H     0.81280   0.14914   0.61171   0.00000  Uiso   1.00
H762   H     0.85033   0.18355   0.89135   0.00000  Uiso   1.00
H763   H     0.95702   0.17958   0.60081   0.00000  Uiso   1.00
H764   H     0.71425   0.13625   0.89513   0.00000  Uiso   1.00
H765   H     0.69356   0.11498   0.97580   0.00000  Uiso   1.00
H766   H     0.98391   0.18046   0.51609   0.00000  Uiso   1.00
H767   H     0.77460   0.11451   0.57959   0.00000  Uiso   1.00
H768   H     0.90814   0.16435   0.90908   0.00000  Uiso   1.00
H769   H     0.90819   0.29589   0.74531   0.00000  Uiso   1.00
H770   H     0.75834   0.03745   0.75509   0.00000  Uiso   1.00
H771   H     0.90814   0.03736   0.74544   0.00000  Uiso   1.00
H772   H     0.75842   0.29598   0.75489   0.00000  Uiso   1.00
N773   N     0.71426   0.16668   0.75001   0.00000  Uiso   1.00
N774   N     0.95241   0.16666   0.74999   0.00000  Uiso   1.00
O775   O     0.79512   0.22775   0.75001   0.00000  Uiso   1.00
O776   O     0.87154   0.10558   0.75000   0.00000  Uiso   1.00
O777   O     0.87157   0.22774   0.75000   0.00000  Uiso   1.00
O778   O     0.79510   0.10559   0.75000   0.00000  Uiso   1.00
O779   O     0.77328   0.16667   0.81613   0.00000  Uiso   1.00
O780   O     0.89339   0.16666   0.68388   0.00000  Uiso   1.00
O781   O     0.84972   0.16666   0.81612   0.00000  Uiso   1.00
O782   O     0.81695   0.16667   0.68388   0.00000  Uiso   1.00
Zn783  Zn    0.78229   0.16667   0.75000   0.00000  Uiso   1.00
Zn784  Zn    0.88438   0.16666   0.75000   0.00000  Uiso   1.00
C785   C     0.97492   0.11326   0.68972   0.00000  Uiso   1.00
N786   N     0.96542   0.09157   0.66431   0.00000  Uiso   1.00
C787   C     0.69175   0.22002   0.81031   0.00000  Uiso   1.00
N788   N     0.70128   0.24171   0.83571   0.00000  Uiso   1.00
C789   C     0.73703   0.11024   0.69279   0.00000  Uiso   1.00
N790   N     0.76499   0.08615   0.66975   0.00000  Uiso   1.00
C791   C     0.92922   0.22227   0.80822   0.00000  Uiso   1.00
N792   N     0.90095   0.24576   0.83200   0.00000  Uiso   1.00
C793   C     0.16666   0.58000   0.75007   0.00000  Uiso   1.00
C794   C     0.16665   0.42000   0.75001   0.00000  Uiso   1.00
C795   C     0.11867   0.45912   0.54471   0.00000  Uiso   1.00
C796   C     0.22771   0.49490   0.94633   0.00000  Uiso   1.00
C797   C     0.08513   0.45382   0.52366   0.00000  Uiso   1.00
C798   C     0.26155   0.49954   0.96708   0.00000  Uiso   1.00
C799   C     0.20868   0.64536   0.74751   0.00000  Uiso   1.00
C800   C     0.12453   0.35464   0.75286   0.00000  Uiso   1.00
C801   C     0.20866   0.35460   0.74753   0.00000  Uiso   1.00
C802   C     0.12456   0.64541   0.75280   0.00000  Uiso   1.00
C803   C     0.16661   0.37583   0.75013   0.00000  Uiso   1.00
C804   C     0.16663   0.62418   0.75013   0.00000  Uiso   1.00
C805   C     0.32049   0.47364   0.72117   0.00000  Uiso   1.00
C806   C     0.01283   0.52633   0.77886   0.00000  Uiso   1.00
C807   C     0.03504   0.47323   0.72160   0.00000  Uiso   1.00
C808   C     0.29821   0.52659   0.77862   0.00000  Uiso   1.00
C809   C     0.13632   0.49963   0.83786   0.00000  Uiso   1.00
C810   C     0.19705   0.49954   0.66210   0.00000  Uiso   1.00
C811   C     0.11826   0.49347   0.88778   0.00000  Uiso   1.00
C812   C     0.21605   0.49699   0.61154   0.00000  Uiso   1.00
C813   C     0.06182   0.46253   0.95744   0.00000  Uiso   1.00
C814   C     0.28008   0.50536   0.53643   0.00000  Uiso   1.00
C815   C     0.07315   0.47523   0.91188   0.00000  Uiso   1.00
C816   C     0.26475   0.50518   0.58464   0.00000  Uiso   1.00
C817   C     0.15097   0.49987   0.90962   0.00000  Uiso   1.00
C818   C     0.18372   0.48686   0.59012   0.00000  Uiso   1.00
C819   C     0.14240   0.48399   0.95336   0.00000  Uiso   1.00
C820   C     0.19849   0.48542   0.54198   0.00000  Uiso   1.00
C821   C     0.09616   0.46681   0.97839   0.00000  Uiso   1.00
C822   C     0.24706   0.49642   0.51496   0.00000  Uiso   1.00
C823   C     0.17849   0.48551   0.97291   0.00000  Uiso   1.00
C824   C     0.16504   0.47652   0.52041   0.00000  Uiso   1.00
H825   H     0.05016   0.44012   0.54317   0.00000  Uiso   1.00
H826   H     0.29875   0.50715   0.94576   0.00000  Uiso   1.00
H827   H     0.14614   0.48248   0.61171   0.00000  Uiso   1.00
H828   H     0.18366   0.51688   0.89135   0.00000  Uiso   1.00
H829   H     0.29035   0.51292   0.60081   0.00000  Uiso   1.00
H830   H     0.04758   0.46958   0.89513   0.00000  Uiso   1.00
H831   H     0.02689   0.44832   0.97580   0.00000  Uiso   1.00
H832   H     0.31724   0.51380   0.51609   0.00000  Uiso   1.00
H833   H     0.10793   0.44785   0.57959   0.00000  Uiso   1.00
H834   H     0.24147   0.49769   0.90908   0.00000  Uiso   1.00
H835   H     0.24153   0.62922   0.74531   0.00000  Uiso   1.00
H836   H     0.09167   0.37079   0.75509   0.00000  Uiso   1.00
H837   H     0.24147   0.37070   0.74544   0.00000  Uiso   1.00
H838   H     0.09175   0.62931   0.75489   0.00000  Uiso   1.00
N839   N     0.04759   0.50001   0.75001   0.00000  Uiso   1.00
N840   N     0.28574   0.49999   0.74999   0.00000  Uiso   1.00
O841   O     0.12846   0.56108   0.75001   0.00000  Uiso   1.00
O842   O     0.20488   0.43892   0.75000   0.00000  Uiso   1.00
O843   O     0.20490   0.56107   0.75000   0.00000  Uiso   1.00
O844   O     0.12843   0.43893   0.75000   0.00000  Uiso   1.00
O845   O     0.10661   0.50001   0.81613   0.00000  Uiso   1.00
O846   O     0.22672   0.49999   0.68388   0.00000  Uiso   1.00
O847   O     0.18305   0.50000   0.81612   0.00000  Uiso   1.00
O848   O     0.15028   0.50000   0.68388   0.00000  Uiso   1.00
Zn849  Zn    0.11562   0.50001   0.75000   0.00000  Uiso   1.00
Zn850  Zn    0.21771   0.49999   0.75000   0.00000  Uiso   1.00
C851   C     0.30826   0.44660   0.68972   0.00000  Uiso   1.00
N852   N     0.29875   0.42490   0.66431   0.00000  Uiso   1.00
C853   C     0.02508   0.55336   0.81031   0.00000  Uiso   1.00
N854   N     0.03461   0.57505   0.83571   0.00000  Uiso   1.00
C855   C     0.07036   0.44357   0.69279   0.00000  Uiso   1.00
N856   N     0.09832   0.41949   0.66975   0.00000  Uiso   1.00
C857   C     0.26255   0.55560   0.80822   0.00000  Uiso   1.00
N858   N     0.23428   0.57910   0.83200   0.00000  Uiso   1.00
C859   C     0.49999   0.58000   0.75007   0.00000  Uiso   1.00
C860   C     0.49998   0.42000   0.75001   0.00000  Uiso   1.00
C861   C     0.45200   0.45912   0.54471   0.00000  Uiso   1.00
C862   C     0.56105   0.49490   0.94633   0.00000  Uiso   1.00
C863   C     0.41846   0.45382   0.52366   0.00000  Uiso   1.00
C864   C     0.59488   0.49954   0.96708   0.00000  Uiso   1.00
C865   C     0.54201   0.64536   0.74751   0.00000  Uiso   1.00
C866   C     0.45787   0.35464   0.75286   0.00000  Uiso   1.00
C867   C     0.54199   0.35460   0.74753   0.00000  Uiso   1.00
C868   C     0.45790   0.64541   0.75280   0.00000  Uiso   1.00
C869   C     0.49994   0.37583   0.75013   0.00000  Uiso   1.00
C870   C     0.49997   0.62418   0.75013   0.00000  Uiso   1.00
C871   C     0.65382   0.47364   0.72117   0.00000  Uiso   1.00
C872   C     0.34617   0.52633   0.77886   0.00000  Uiso   1.00
C873   C     0.36837   0.47323   0.72160   0.00000  Uiso   1.00
C874   C     0.63154   0.52659   0.77862   0.00000  Uiso   1.00
C875   C     0.46965   0.49963   0.83786   0.00000  Uiso   1.00
C876   C     0.53039   0.49954   0.66210   0.00000  Uiso   1.00
C877   C     0.45159   0.49347   0.88778   0.00000  Uiso   1.00
C878   C     0.54938   0.49699   0.61154   0.00000  Uiso   1.00
C879   C     0.39515   0.46253   0.95744   0.00000  Uiso   1.00
C880   C     0.61342   0.50536   0.53643   0.00000  Uiso   1.00
C881   C     0.40649   0.47523   0.91188   0.00000  Uiso   1.00
C882   C     0.59809   0.50518   0.58464   0.00000  Uiso   1.00
C883   C     0.48430   0.49987   0.90962   0.00000  Uiso   1.00
C884   C     0.51705   0.48686   0.59012   0.00000  Uiso   1.00
C885   C     0.47573   0.48399   0.95336   0.00000  Uiso   1.00
C886   C     0.53183   0.48542   0.54198   0.00000  Uiso   1.00
C887   C     0.42949   0.46681   0.97839   0.00000  Uiso   1.00
C888   C     0.58039   0.49642   0.51496   0.00000  Uiso   1.00
C889   C     0.51182   0.48551   0.97291   0.00000  Uiso   1.00
C890   C     0.49838   0.47652   0.52041   0.00000  Uiso   1.00
H891   H     0.38349   0.44012   0.54317   0.00000  Uiso   1.00
H892   H     0.63209   0.50715   0.94576   0.00000  Uiso   1.00
H893   H     0.47947   0.48248   0.61171   0.00000  Uiso   1.00
H894   H     0.51699   0.51688   0.89135   0.00000  Uiso   1.00
H895   H     0.62369   0.51292   0.60081   0.00000  Uiso   1.00
H896   H     0.38091   0.46958   0.89513   0.00000  Uiso   1.00
H897   H     0.36023   0.44832   0.97580   0.00000  Uiso   1.00
H898   H     0.65058   0.51380   0.51609   0.00000  Uiso   1.00
H899   H     0.44126   0.44785   0.57959   0.00000  Uiso   1.00
H900   H     0.57481   0.49769   0.90908   0.00000  Uiso   1.00
H901   H     0.57486   0.62922   0.74531   0.00000  Uiso   1.00
H902   H     0.42500   0.37079   0.75509   0.00000  Uiso   1.00
H903   H     0.57480   0.37070   0.74544   0.00000  Uiso   1.00
H904   H     0.42508   0.62931   0.75489   0.00000  Uiso   1.00
N905   N     0.38093   0.50001   0.75001   0.00000  Uiso   1.00
N906   N     0.61907   0.49999   0.74999   0.00000  Uiso   1.00
O907   O     0.46179   0.56108   0.75001   0.00000  Uiso   1.00
O908   O     0.53821   0.43892   0.75000   0.00000  Uiso   1.00
O909   O     0.53823   0.56107   0.75000   0.00000  Uiso   1.00
O910   O     0.46177   0.43893   0.75000   0.00000  Uiso   1.00
O911   O     0.43994   0.50001   0.81613   0.00000  Uiso   1.00
O912   O     0.56006   0.49999   0.68388   0.00000  Uiso   1.00
O913   O     0.51639   0.50000   0.81612   0.00000  Uiso   1.00
O914   O     0.48361   0.50000   0.68388   0.00000  Uiso   1.00
Zn915  Zn    0.44896   0.50001   0.75000   0.00000  Uiso   1.00
Zn916  Zn    0.55104   0.49999   0.75000   0.00000  Uiso   1.00
C917   C     0.64159   0.44660   0.68972   0.00000  Uiso   1.00
N918   N     0.63209   0.42490   0.66431   0.00000  Uiso   1.00
C919   C     0.35841   0.55336   0.81031   0.00000  Uiso   1.00
N920   N     0.36795   0.57505   0.83571   0.00000  Uiso   1.00
C921   C     0.40370   0.44357   0.69279   0.00000  Uiso   1.00
N922   N     0.43166   0.41949   0.66975   0.00000  Uiso   1.00
C923   C     0.59588   0.55560   0.80822   0.00000  Uiso   1.00
N924   N     0.56761   0.57910   0.83200   0.00000  Uiso   1.00
C925   C     0.83333   0.58000   0.75007   0.00000  Uiso   1.00
C926   C     0.83331   0.42000   0.75001   0.00000  Uiso   1.00
C927   C     0.78533   0.45912   0.54471   0.00000  Uiso   1.00
C928   C     0.89438   0.49490   0.94633   0.00000  Uiso   1.00
C929   C     0.75179   0.45382   0.52366   0.00000  Uiso   1.00
C930   C     0.92822   0.49954   0.96708   0.00000  Uiso   1.00
C931   C     0.87534   0.64536   0.74751   0.00000  Uiso   1.00
C932   C     0.79120   0.35464   0.75286   0.00000  Uiso   1.00
C933   C     0.87532   0.35460   0.74753   0.00000  Uiso   1.00
C934   C     0.79123   0.64541   0.75280   0.00000  Uiso   1.00
C935   C     0.83328   0.37583   0.75013   0.00000  Uiso   1.00
C936   C     0.83330   0.62418   0.75013   0.00000  Uiso   1.00
C937   C     0.98715   0.47364   0.72117   0.00000  Uiso   1.00
C938   C     0.67950   0.52633   0.77886   0.00000  Uiso   1.00
C939   C     0.70171   0.47323   0.72160   0.00000  Uiso   1.00
C940   C     0.96487   0.52659   0.77862   0.00000  Uiso   1.00
C941   C     0.80299   0.49963   0.83786   0.00000  Uiso   1.00
C942   C     0.86372   0.49954   0.66210   0.00000  Uiso   1.00
C943   C     0.78492   0.49347   0.88778   0.00000  Uiso   1.00
C944   C     0.88272   0.49699   0.61154   0.00000  Uiso   1.00
C945   C     0.72849   0.46253   0.95744   0.00000  Uiso   1.00
C946   C     0.94675   0.50536   0.53643   0.00000  Uiso   1.00
C947   C     0.73982   0.47523   0.91188   0.00000  Uiso   1.00
C948   C     0.93142   0.50518   0.58464   0.00000  Uiso   1.00
C949   C     0.81763   0.49987   0.90962   0.00000  Uiso   1.00
C950   C     0.85038   0.48686   0.59012   0.00000  Uiso   1.00
C951   C     0.80907   0.48399   0.95336   0.00000  Uiso   1.00
C952   C     0.86516   0.48542   0.54198   0.00000  Uiso   1.00
C953   C     0.76283   0.46681   0.97839   0.00000  Uiso   1.00
C954   C     0.91373   0.49642   0.51496   0.00000  Uiso   1.00
C955   C     0.84515   0.48551   0.97291   0.00000  Uiso   1.00
C956   C     0.83171   0.47652   0.52041   0.00000  Uiso   1.00
H957   H     0.71683   0.44012   0.54317   0.00000  Uiso   1.00
H958   H     0.96542   0.50715   0.94576   0.00000  Uiso   1.00
H959   H     0.81280   0.48248   0.61171   0.00000  Uiso   1.00
H960   H     0.85033   0.51688   0.89135   0.00000  Uiso   1.00
H961   H     0.95702   0.51292   0.60081   0.00000  Uiso   1.00
H962   H     0.71425   0.46958   0.89513   0.00000  Uiso   1.00
H963   H     0.69356   0.44832   0.97580   0.00000  Uiso   1.00
H964   H     0.98391   0.51380   0.51609   0.00000  Uiso   1.00
H965   H     0.77460   0.44785   0.57959   0.00000  Uiso   1.00
H966   H     0.90814   0.49769   0.90908   0.00000  Uiso   1.00
H967   H     0.90819   0.62922   0.74531   0.00000  Uiso   1.00
H968   H     0.75834   0.37079   0.75509   0.00000  Uiso   1.00
H969   H     0.90814   0.37070   0.74544   0.00000  Uiso   1.00
H970   H     0.75842   0.62931   0.75489   0.00000  Uiso   1.00
N971   N     0.71426   0.50001   0.75001   0.00000  Uiso   1.00
N972   N     0.95241   0.49999   0.74999   0.00000  Uiso   1.00
O973   O     0.79512   0.56108   0.75001   0.00000  Uiso   1.00
O974   O     0.87154   0.43892   0.75000   0.00000  Uiso   1.00
O975   O     0.87157   0.56107   0.75000   0.00000  Uiso   1.00
O976   O     0.79510   0.43893   0.75000   0.00000  Uiso   1.00
O977   O     0.77328   0.50001   0.81613   0.00000  Uiso   1.00
O978   O     0.89339   0.49999   0.68388   0.00000  Uiso   1.00
O979   O     0.84972   0.50000   0.81612   0.00000  Uiso   1.00
O980   O     0.81695   0.50000   0.68388   0.00000  Uiso   1.00
Zn981  Zn    0.78229   0.50001   0.75000   0.00000  Uiso   1.00
Zn982  Zn    0.88438   0.49999   0.75000   0.00000  Uiso   1.00
C983   C     0.97492   0.44660   0.68972   0.00000  Uiso   1.00
N984   N     0.96542   0.42490   0.66431   0.00000  Uiso   1.00
C985   C     0.69175   0.55336   0.81031   0.00000  Uiso   1.00
N986   N     0.70128   0.57505   0.83571   0.00000  Uiso   1.00
C987   C     0.73703   0.44357   0.69279   0.00000  Uiso   1.00
N988   N     0.76499   0.41949   0.66975   0.00000  Uiso   1.00
C989   C     0.92922   0.55560   0.80822   0.00000  Uiso   1.00
N990   N     0.90095   0.57910   0.83200   0.00000  Uiso   1.00
C991   C     0.16666   0.91333   0.75007   0.00000  Uiso   1.00
C992   C     0.16665   0.75334   0.75001   0.00000  Uiso   1.00
C993   C     0.11867   0.79245   0.54471   0.00000  Uiso   1.00
C994   C     0.22771   0.82823   0.94633   0.00000  Uiso   1.00
C995   C     0.08513   0.78716   0.52366   0.00000  Uiso   1.00
C996   C     0.26155   0.83288   0.96708   0.00000  Uiso   1.00
C997   C     0.20868   0.97870   0.74751   0.00000  Uiso   1.00
C998   C     0.12453   0.68798   0.75286   0.00000  Uiso   1.00
C999   C     0.20866   0.68793   0.74753   0.00000  Uiso   1.00
C1000  C     0.12456   0.97874   0.75280   0.00000  Uiso   1.00
C1001  C     0.16661   0.70916   0.75013   0.00000  Uiso   1.00
C1002  C     0.16663   0.95751   0.75013   0.00000  Uiso   1.00
C1003  C     0.32049   0.80697   0.72117   0.00000  Uiso   1.00
C1004  C     0.01283   0.85966   0.77886   0.00000  Uiso   1.00
C1005  C     0.03504   0.80657   0.72160   0.00000  Uiso   1.00
C1006  C     0.29821   0.85992   0.77862   0.00000  Uiso   1.00
C1007  C     0.13632   0.83296   0.83786   0.00000  Uiso   1.00
C1008  C     0.19705   0.83288   0.66210   0.00000  Uiso   1.00
C1009  C     0.11826   0.82680   0.88778   0.00000  Uiso   1.00
C1010  C     0.21605   0.83033   0.61154   0.00000  Uiso   1.00
C1011  C     0.06182   0.79587   0.95744   0.00000  Uiso   1.00
C1012  C     0.28008   0.83870   0.53643   0.00000  Uiso   1.00
C1013  C     0.07315   0.80856   0.91188   0.00000  Uiso   1.00
C1014  C     0.26475   0.83852   0.58464   0.00000  Uiso   1.00
C1015  C     0.15097   0.83320   0.90962   0.00000  Uiso   1.00
C1016  C     0.18372   0.82020   0.59012   0.00000  Uiso   1.00
C1017  C     0.14240   0.81732   0.95336   0.00000  Uiso   1.00
C1018  C     0.19849   0.81875   0.54198   0.00000  Uiso   1.00
C1019  C     0.09616   0.80014   0.97839   0.00000  Uiso   1.00
C1020  C     0.24706   0.82976   0.51496   0.00000  Uiso   1.00
C1021  C     0.17849   0.81884   0.97291   0.00000  Uiso   1.00
C1022  C     0.16504   0.80986   0.52041   0.00000  Uiso   1.00
H1023  H     0.05016   0.77346   0.54317   0.00000  Uiso   1.00
H1024  H     0.29875   0.84048   0.94576   0.00000  Uiso   1.00
H1025  H     0.14614   0.81581   0.61171   0.00000  Uiso   1.00
H1026  H     0.18366   0.85022   0.89135   0.00000  Uiso   1.00
H1027  H     0.29035   0.84625   0.60081   0.00000  Uiso   1.00
H1028  H     0.04758   0.80291   0.89513   0.00000  Uiso   1.00
H1029  H     0.02689   0.78165   0.97580   0.00000  Uiso   1.00
H1030  H     0.31724   0.84713   0.51609   0.00000  Uiso   1.00
H1031  H     0.10793   0.78118   0.57959   0.00000  Uiso   1.00
H1032  H     0.24147   0.83102   0.90908   0.00000  Uiso   1.00
H1033  H     0.24153   0.96255   0.74531   0.00000  Uiso   1.00
H1034  H     0.09167   0.70412   0.75509   0.00000  Uiso   1.00
H1035  H     0.24147   0.70403   0.74544   0.00000  Uiso   1.00
H1036  H     0.09175   0.96264   0.75489   0.00000  Uiso   1.00
N1037  N     0.04759   0.83334   0.75001   0.00000  Uiso   1.00
N1038  N     0.28574   0.83332   0.74999   0.00000  Uiso   1.00
O1039  O     0.12846   0.89442   0.75001   0.00000  Uiso   1.00
O1040  O     0.20488   0.77225   0.75000   0.00000  Uiso   1.00
O1041  O     0.20490   0.89441   0.75000   0.00000  Uiso   1.00
O1042  O     0.12843   0.77226   0.75000   0.00000  Uiso   1.00
O1043  O     0.10661   0.83334   0.81613   0.00000  Uiso   1.00
O1044  O     0.22672   0.83333   0.68388   0.00000  Uiso   1.00
O1045  O     0.18305   0.83333   0.81612   0.00000  Uiso   1.00
O1046  O     0.15028   0.83334   0.68388   0.00000  Uiso   1.00
Zn1047 Zn    0.11562   0.83334   0.75000   0.00000  Uiso   1.00
Zn1048 Zn    0.21771   0.83333   0.75000   0.00000  Uiso   1.00
C1049  C     0.30826   0.77993   0.68972   0.00000  Uiso   1.00
N1050  N     0.29875   0.75824   0.66431   0.00000  Uiso   1.00
C1051  C     0.02508   0.88669   0.81031   0.00000  Uiso   1.00
N1052  N     0.03461   0.90838   0.83571   0.00000  Uiso   1.00
C1053  C     0.07036   0.77691   0.69279   0.00000  Uiso   1.00
N1054  N     0.09832   0.75282   0.66975   0.00000  Uiso   1.00
C1055  C     0.26255   0.88893   0.80822   0.00000  Uiso   1.00
N1056  N     0.23428   0.91243   0.83200   0.00000  Uiso   1.00
C1057  C     0.49999   0.91333   0.75007   0.00000  Uiso   1.00
C1058  C     0.49998   0.75334   0.75001   0.00000  Uiso   1.00
C1059  C     0.45200   0.79245   0.54471   0.00000  Uiso   1.00
C1060  C     0.56105   0.82823   0.94633   0.00000  Uiso   1.00
C1061  C     0.41846   0.78716   0.52366   0.00000  Uiso   1.00
C1062  C     0.59488   0.83288   0.96708   0.00000  Uiso   1.00
C1063  C     0.54201   0.97870   0.74751   0.00000  Uiso   1.00
C1064  C     0.45787   0.68798   0.75286   0.00000  Uiso   1.00
C1065  C     0.54199   0.68793   0.74753   0.00000  Uiso   1.00
C1066  C     0.45790   0.97874   0.75280   0.00000  Uiso   1.00
C1067  C     0.49994   0.70916   0.75013   0.00000  Uiso   1.00
C1068  C     0.49997   0.95751   0.75013   0.00000  Uiso   1.00
C1069  C     0.65382   0.80697   0.72117   0.00000  Uiso   1.00
C1070  C     0.34617   0.85966   0.77886   0.00000  Uiso   1.00
C1071  C     0.36837   0.80657   0.72160   0.00000  Uiso   1.00
C1072  C     0.63154   0.85992   0.77862   0.00000  Uiso   1.00
C1073  C     0.46965   0.83296   0.83786   0.00000  Uiso   1.00
C1074  C     0.53039   0.83288   0.66210   0.00000  Uiso   1.00
C1075  C     0.45159   0.82680   0.88778   0.00000  Uiso   1.00
C1076  C     0.54938   0.83033   0.61154   0.00000  Uiso   1.00
C1077  C     0.39515   0.79587   0.95744   0.00000  Uiso   1.00
C1078  C     0.61342   0.83870   0.53643   0.00000  Uiso   1.00
C1079  C     0.40649   0.80856   0.91188   0.00000  Uiso   1.00
C1080  C     0.59809   0.83852   0.58464   0.00000  Uiso   1.00
C1081  C     0.48430   0.83320   0.90962   0.00000  Uiso   1.00
C1082  C     0.51705   0.82020   0.59012   0.00000  Uiso   1.00
C1083  C     0.47573   0.81732   0.95336   0.00000  Uiso   1.00
C1084  C     0.53183   0.81875   0.54198   0.00000  Uiso   1.00
C1085  C     0.42949   0.80014   0.97839   0.00000  Uiso   1.00
C1086  C     0.58039   0.82976   0.51496   0.00000  Uiso   1.00
C1087  C     0.51182   0.81884   0.97291   0.00000  Uiso   1.00
C1088  C     0.49838   0.80986   0.52041   0.00000  Uiso   1.00
H1089  H     0.38349   0.77346   0.54317   0.00000  Uiso   1.00
H1090  H     0.63209   0.84048   0.94576   0.00000  Uiso   1.00
H1091  H     0.47947   0.81581   0.61171   0.00000  Uiso   1.00
H1092  H     0.51699   0.85022   0.89135   0.00000  Uiso   1.00
H1093  H     0.62369   0.84625   0.60081   0.00000  Uiso   1.00
H1094  H     0.38091   0.80291   0.89513   0.00000  Uiso   1.00
H1095  H     0.36023   0.78165   0.97580   0.00000  Uiso   1.00
H1096  H     0.65058   0.84713   0.51609   0.00000  Uiso   1.00
H1097  H     0.44126   0.78118   0.57959   0.00000  Uiso   1.00
H1098  H     0.57481   0.83102   0.90908   0.00000  Uiso   1.00
H1099  H     0.57486   0.96255   0.74531   0.00000  Uiso   1.00
H1100  H     0.42500   0.70412   0.75509   0.00000  Uiso   1.00
H1101  H     0.57480   0.70403   0.74544   0.00000  Uiso   1.00
H1102  H     0.42508   0.96264   0.75489   0.00000  Uiso   1.00
N1103  N     0.38093   0.83334   0.75001   0.00000  Uiso   1.00
N1104  N     0.61907   0.83332   0.74999   0.00000  Uiso   1.00
O1105  O     0.46179   0.89442   0.75001   0.00000  Uiso   1.00
O1106  O     0.53821   0.77225   0.75000   0.00000  Uiso   1.00
O1107  O     0.53823   0.89441   0.75000   0.00000  Uiso   1.00
O1108  O     0.46177   0.77226   0.75000   0.00000  Uiso   1.00
O1109  O     0.43994   0.83334   0.81613   0.00000  Uiso   1.00
O1110  O     0.56006   0.83333   0.68388   0.00000  Uiso   1.00
O1111  O     0.51639   0.83333   0.81612   0.00000  Uiso   1.00
O1112  O     0.48361   0.83334   0.68388   0.00000  Uiso   1.00
Zn1113 Zn    0.44896   0.83334   0.75000   0.00000  Uiso   1.00
Zn1114 Zn    0.55104   0.83333   0.75000   0.00000  Uiso   1.00
C1115  C     0.64159   0.77993   0.68972   0.00000  Uiso   1.00
N1116  N     0.63209   0.75824   0.66431   0.00000  Uiso   1.00
C1117  C     0.35841   0.88669   0.81031   0.00000  Uiso   1.00
N1118  N     0.36795   0.90838   0.83571   0.00000  Uiso   1.00
C1119  C     0.40370   0.77691   0.69279   0.00000  Uiso   1.00
N1120  N     0.43166   0.75282   0.66975   0.00000  Uiso   1.00
C1121  C     0.59588   0.88893   0.80822   0.00000  Uiso   1.00
N1122  N     0.56761   0.91243   0.83200   0.00000  Uiso   1.00
C1123  C     0.83333   0.91333   0.75007   0.00000  Uiso   1.00
C1124  C     0.83331   0.75334   0.75001   0.00000  Uiso   1.00
C1125  C     0.78533   0.79245   0.54471   0.00000  Uiso   1.00
C1126  C     0.89438   0.82823   0.94633   0.00000  Uiso   1.00
C1127  C     0.75179   0.78716   0.52366   0.00000  Uiso   1.00
C1128  C     0.92822   0.83288   0.96708   0.00000  Uiso   1.00
C1129  C     0.87534   0.97870   0.74751   0.00000  Uiso   1.00
C1130  C     0.79120   0.68798   0.75286   0.00000  Uiso   1.00
C1131  C     0.87532   0.68793   0.74753   0.00000  Uiso   1.00
C1132  C     0.79123   0.97874   0.75280   0.00000  Uiso   1.00
C1133  C     0.83328   0.70916   0.75013   0.00000  Uiso   1.00
C1134  C     0.83330   0.95751   0.75013   0.00000  Uiso   1.00
C1135  C     0.98715   0.80697   0.72117   0.00000  Uiso   1.00
C1136  C     0.67950   0.85966   0.77886   0.00000  Uiso   1.00
C1137  C     0.70171   0.80657   0.72160   0.00000  Uiso   1.00
C1138  C     0.96487   0.85992   0.77862   0.00000  Uiso   1.00
C1139  C     0.80299   0.83296   0.83786   0.00000  Uiso   1.00
C1140  C     0.86372   0.83288   0.66210   0.00000  Uiso   1.00
C1141  C     0.78492   0.82680   0.88778   0.00000  Uiso   1.00
C1142  C     0.88272   0.83033   0.61154   0.00000  Uiso   1.00
C1143  C     0.72849   0.79587   0.95744   0.00000  Uiso   1.00
C1144  C     0.94675   0.83870   0.53643   0.00000  Uiso   1.00
C1145  C     0.73982   0.80856   0.91188   0.00000  Uiso   1.00
C1146  C     0.93142   0.83852   0.58464   0.00000  Uiso   1.00
C1147  C     0.81763   0.83320   0.90962   0.00000  Uiso   1.00
C1148  C     0.85038   0.82020   0.59012   0.00000  Uiso   1.00
C1149  C     0.80907   0.81732   0.95336   0.00000  Uiso   1.00
C1150  C     0.86516   0.81875   0.54198   0.00000  Uiso   1.00
C1151  C     0.76283   0.80014   0.97839   0.00000  Uiso   1.00
C1152  C     0.91373   0.82976   0.51496   0.00000  Uiso   1.00
C1153  C     0.84515   0.81884   0.97291   0.00000  Uiso   1.00
C1154  C     0.83171   0.80986   0.52041   0.00000  Uiso   1.00
H1155  H     0.71683   0.77346   0.54317   0.00000  Uiso   1.00
H1156  H     0.96542   0.84048   0.94576   0.00000  Uiso   1.00
H1157  H     0.81280   0.81581   0.61171   0.00000  Uiso   1.00
H1158  H     0.85033   0.85022   0.89135   0.00000  Uiso   1.00
H1159  H     0.95702   0.84625   0.60081   0.00000  Uiso   1.00
H1160  H     0.71425   0.80291   0.89513   0.00000  Uiso   1.00
H1161  H     0.69356   0.78165   0.97580   0.00000  Uiso   1.00
H1162  H     0.98391   0.84713   0.51609   0.00000  Uiso   1.00
H1163  H     0.77460   0.78118   0.57959   0.00000  Uiso   1.00
H1164  H     0.90814   0.83102   0.90908   0.00000  Uiso   1.00
H1165  H     0.90819   0.96255   0.74531   0.00000  Uiso   1.00
H1166  H     0.75834   0.70412   0.75509   0.00000  Uiso   1.00
H1167  H     0.90814   0.70403   0.74544   0.00000  Uiso   1.00
H1168  H     0.75842   0.96264   0.75489   0.00000  Uiso   1.00
N1169  N     0.71426   0.83334   0.75001   0.00000  Uiso   1.00
N1170  N     0.95241   0.83332   0.74999   0.00000  Uiso   1.00
O1171  O     0.79512   0.89442   0.75001   0.00000  Uiso   1.00
O1172  O     0.87154   0.77225   0.75000   0.00000  Uiso   1.00
O1173  O     0.87157   0.89441   0.75000   0.00000  Uiso   1.00
O1174  O     0.79510   0.77226   0.75000   0.00000  Uiso   1.00
O1175  O     0.77328   0.83334   0.81613   0.00000  Uiso   1.00
O1176  O     0.89339   0.83333   0.68388   0.00000  Uiso   1.00
O1177  O     0.84972   0.83333   0.81612   0.00000  Uiso   1.00
O1178  O     0.81695   0.83334   0.68388   0.00000  Uiso   1.00
Zn1179 Zn    0.78229   0.83334   0.75000   0.00000  Uiso   1.00
Zn1180 Zn    0.88438   0.83333   0.75000   0.00000  Uiso   1.00
C1181  C     0.97492   0.77993   0.68972   0.00000  Uiso   1.00
N1182  N     0.96542   0.75824   0.66431   0.00000  Uiso   1.00
C1183  C     0.69175   0.88669   0.81031   0.00000  Uiso   1.00
N1184  N     0.70128   0.90838   0.83571   0.00000  Uiso   1.00
C1185  C     0.73703   0.77691   0.69279   0.00000  Uiso   1.00
N1186  N     0.76499   0.75282   0.66975   0.00000  Uiso   1.00
C1187  C     0.92922   0.88893   0.80822   0.00000  Uiso   1.00
N1188  N     0.90095   0.91243   0.83200   0.00000  Uiso   1.00
loop_
_geom_bond_atom_site_label_1
_geom_bond_atom_site_label_2
_geom_bond_distance
_geom_bond_site_symmetry_2
_ccdc_geom_bond_type
C1     O51     1.287   .     A
C1     C12     1.421   .     S
C1     O49     1.287   .     A
C2     O52     1.287   .     A
C2     C11     1.421   .     S
C2     O50     1.287   .     A
C3     C5      1.390   .     A
C3     C32     1.418   .     A
C3     H41     1.078   .     S
C4     H42     1.079   .     S
C4     C31     1.418   .     A
C4     C6      1.389   .     A
C5     H33     1.084   .     S
C5     C623    1.391   1_554 S
C6     H34     1.084   .     S
C6     C624    1.391   .     S
C7     H43     1.083   .     S
C7     C12     1.397   .     A
C7     C207    1.369   .     S
C8     H44     1.083   .     S
C8     C11     1.397   .     A
C8     C406    1.369   1_545 S
C9     H45     1.083   .     S
C9     C11     1.398   .     A
C9     C403    1.369   1_545 S
C10    H46     1.083   .     S
C10    C12     1.398   .     A
C10    C206    1.369   .     S
C13    N48     1.367   .     A
C13    C59     1.443   .     S
C13    C81     1.426   .     S
C14    N47     1.367   .     A
C14    C61     1.443   .     S
C14    C148    1.426   1_455 S
C15    N47     1.372   .     A
C15    C63     1.443   .     S
C15    C145    1.426   1_455 S
C16    N48     1.372   .     A
C16    C65     1.443   .     S
C16    C80     1.426   .     S
C17    O55     1.295   .     A
C17    O53     1.296   .     A
C17    C19     1.456   .     S
C18    O56     1.297   .     A
C18    O54     1.296   .     A
C18    C20     1.458   .     S
C19    C23     1.400   .     A
C19    C25     1.391   .     A
C20    C24     1.400   .     A
C20    C26     1.393   .     A
C21    C29     1.405   .     A
C21    H39     1.084   .     S
C21    C23     1.395   .     A
C22    H40     1.083   .     S
C22    C24     1.394   .     A
C22    C30     1.404   .     A
C23    H38     1.083   .     S
C24    H37     1.083   .     S
C25    H36     1.077   .     S
C25    C27     1.392   .     A
C26    C28     1.393   .     A
C26    H35     1.075   .     S
C27    C29     1.417   .     A
C27    C31     1.416   .     A
C28    C30     1.418   .     A
C28    C32     1.417   .     A
C29    C599    1.391   .     S
C30    C600    1.391   1_554 S
C31    C626    1.412   .     S
C32    C625    1.412   1_554 S
N47    Zn57    2.019   .     S
N48    Zn58    2.019   .     S
O49    Zn57    2.001   .     S
O50    Zn58    2.001   .     S
O51    Zn58    2.002   .     S
O52    Zn57    2.002   .     S
O53    Zn57    1.971   .     S
O54    Zn58    1.971   .     S
O55    Zn58    1.923   .     S
O56    Zn57    1.923   .     S
C59    N60     1.158   .     T
C61    N62     1.157   .     T
C63    N64     1.158   .     T
C65    N66     1.158   .     T
C67    O117    1.287   .     A
C67    C78     1.421   .     S
C67    O115    1.287   .     A
C68    O118    1.287   .     A
C68    C77     1.421   .     S
C68    O116    1.287   .     A
C69    C71     1.390   .     A
C69    C98     1.418   .     A
C69    H107    1.078   .     S
C70    H108    1.079   .     S
C70    C97     1.418   .     A
C70    C72     1.389   .     A
C71    H99     1.084   .     S
C71    C689    1.391   1_554 S
C72    H100    1.084   .     S
C72    C690    1.391   .     S
C73    H109    1.083   .     S
C73    C78     1.397   .     A
C73    C273    1.369   .     S
C74    H110    1.083   .     S
C74    C77     1.397   .     A
C74    C472    1.369   1_545 S
C75    H111    1.083   .     S
C75    C77     1.398   .     A
C75    C469    1.369   1_545 S
C76    H112    1.083   .     S
C76    C78     1.398   .     A
C76    C272    1.369   .     S
C79    N114    1.367   .     A
C79    C125    1.443   .     S
C79    C147    1.426   .     S
C80    N113    1.367   .     A
C80    C127    1.443   .     S
C81    N113    1.372   .     A
C81    C129    1.443   .     S
C82    N114    1.372   .     A
C82    C131    1.443   .     S
C82    C146    1.426   .     S
C83    O121    1.295   .     A
C83    O119    1.296   .     A
C83    C85     1.456   .     S
C84    O122    1.297   .     A
C84    O120    1.296   .     A
C84    C86     1.458   .     S
C85    C89     1.400   .     A
C85    C91     1.391   .     A
C86    C90     1.400   .     A
C86    C92     1.393   .     A
C87    C95     1.405   .     A
C87    H105    1.084   .     S
C87    C89     1.395   .     A
C88    H106    1.083   .     S
C88    C90     1.394   .     A
C88    C96     1.404   .     A
C89    H104    1.083   .     S
C90    H103    1.083   .     S
C91    H102    1.077   .     S
C91    C93     1.392   .     A
C92    C94     1.393   .     A
C92    H101    1.075   .     S
C93    C95     1.417   .     A
C93    C97     1.416   .     A
C94    C96     1.418   .     A
C94    C98     1.417   .     A
C95    C665    1.391   .     S
C96    C666    1.391   1_554 S
C97    C692    1.412   .     S
C98    C691    1.412   1_554 S
N113   Zn123   2.019   .     S
N114   Zn124   2.019   .     S
O115   Zn123   2.001   .     S
O116   Zn124   2.001   .     S
O117   Zn124   2.002   .     S
O118   Zn123   2.002   .     S
O119   Zn123   1.971   .     S
O120   Zn124   1.971   .     S
O121   Zn124   1.923   .     S
O122   Zn123   1.923   .     S
C125   N126    1.158   .     T
C127   N128    1.157   .     T
C129   N130    1.158   .     T
C131   N132    1.158   .     T
C133   O183    1.287   .     A
C133   C144    1.421   .     S
C133   O181    1.287   .     A
C134   O184    1.287   .     A
C134   C143    1.421   .     S
C134   O182    1.287   .     A
C135   C137    1.390   .     A
C135   C164    1.418   .     A
C135   H173    1.078   .     S
C136   H174    1.079   .     S
C136   C163    1.418   .     A
C136   C138    1.389   .     A
C137   H165    1.084   .     S
C137   C755    1.391   1_554 S
C138   H166    1.084   .     S
C138   C756    1.391   .     S
C139   H175    1.083   .     S
C139   C144    1.397   .     A
C139   C339    1.369   .     S
C140   H176    1.083   .     S
C140   C143    1.397   .     A
C140   C538    1.369   1_545 S
C141   H177    1.083   .     S
C141   C143    1.398   .     A
C141   C535    1.369   1_545 S
C142   H178    1.083   .     S
C142   C144    1.398   .     A
C142   C338    1.369   .     S
C145   N180    1.367   .     A
C145   C191    1.443   .     S
C145   C15     1.426   1_655 S
C146   N179    1.367   .     A
C146   C193    1.443   .     S
C147   N179    1.372   .     A
C147   C195    1.443   .     S
C148   N180    1.372   .     A
C148   C197    1.443   .     S
C148   C14     1.426   1_655 S
C149   O187    1.295   .     A
C149   O185    1.296   .     A
C149   C151    1.456   .     S
C150   O188    1.297   .     A
C150   O186    1.296   .     A
C150   C152    1.458   .     S
C151   C155    1.400   .     A
C151   C157    1.391   .     A
C152   C156    1.400   .     A
C152   C158    1.393   .     A
C153   C161    1.405   .     A
C153   H171    1.084   .     S
C153   C155    1.395   .     A
C154   H172    1.083   .     S
C154   C156    1.394   .     A
C154   C162    1.404   .     A
C155   H170    1.083   .     S
C156   H169    1.083   .     S
C157   H168    1.077   .     S
C157   C159    1.392   .     A
C158   C160    1.393   .     A
C158   H167    1.075   .     S
C159   C161    1.417   .     A
C159   C163    1.416   .     A
C160   C162    1.418   .     A
C160   C164    1.417   .     A
C161   C731    1.391   .     S
C162   C732    1.391   1_554 S
C163   C758    1.412   .     S
C164   C757    1.412   1_554 S
N179   Zn189   2.019   .     S
N180   Zn190   2.019   .     S
O181   Zn189   2.001   .     S
O182   Zn190   2.001   .     S
O183   Zn190   2.002   .     S
O184   Zn189   2.002   .     S
O185   Zn189   1.971   .     S
O186   Zn190   1.971   .     S
O187   Zn190   1.923   .     S
O188   Zn189   1.923   .     S
C191   N192    1.158   .     T
C193   N194    1.157   .     T
C195   N196    1.158   .     T
C197   N198    1.158   .     T
C199   O249    1.287   .     A
C199   C210    1.421   .     S
C199   O247    1.287   .     A
C200   O250    1.287   .     A
C200   C209    1.421   .     S
C200   O248    1.287   .     A
C201   C203    1.390   .     A
C201   C230    1.418   .     A
C201   H239    1.078   .     S
C202   H240    1.079   .     S
C202   C229    1.418   .     A
C202   C204    1.389   .     A
C203   H231    1.084   .     S
C203   C821    1.391   1_554 S
C204   H232    1.084   .     S
C204   C822    1.391   .     S
C205   H241    1.083   .     S
C205   C210    1.397   .     A
C205   C405    1.369   .     S
C206   H242    1.083   .     S
C206   C209    1.397   .     A
C207   H243    1.083   .     S
C207   C209    1.398   .     A
C208   H244    1.083   .     S
C208   C210    1.398   .     A
C208   C404    1.369   .     S
C211   N246    1.367   .     A
C211   C257    1.443   .     S
C211   C279    1.426   .     S
C212   N245    1.367   .     A
C212   C259    1.443   .     S
C212   C346    1.426   1_455 S
C213   N245    1.372   .     A
C213   C261    1.443   .     S
C213   C343    1.426   1_455 S
C214   N246    1.372   .     A
C214   C263    1.443   .     S
C214   C278    1.426   .     S
C215   O253    1.295   .     A
C215   O251    1.296   .     A
C215   C217    1.456   .     S
C216   O254    1.297   .     A
C216   O252    1.296   .     A
C216   C218    1.458   .     S
C217   C221    1.400   .     A
C217   C223    1.391   .     A
C218   C222    1.400   .     A
C218   C224    1.393   .     A
C219   C227    1.405   .     A
C219   H237    1.084   .     S
C219   C221    1.395   .     A
C220   H238    1.083   .     S
C220   C222    1.394   .     A
C220   C228    1.404   .     A
C221   H236    1.083   .     S
C222   H235    1.083   .     S
C223   H234    1.077   .     S
C223   C225    1.392   .     A
C224   C226    1.393   .     A
C224   H233    1.075   .     S
C225   C227    1.417   .     A
C225   C229    1.416   .     A
C226   C228    1.418   .     A
C226   C230    1.417   .     A
C227   C797    1.391   .     S
C228   C798    1.391   1_554 S
C229   C824    1.412   .     S
C230   C823    1.412   1_554 S
N245   Zn255   2.019   .     S
N246   Zn256   2.019   .     S
O247   Zn255   2.001   .     S
O248   Zn256   2.001   .     S
O249   Zn256   2.002   .     S
O250   Zn255   2.002   .     S
O251   Zn255   1.971   .     S
O252   Zn256   1.971   .     S
O253   Zn256   1.923   .     S
O254   Zn255   1.923   .     S
C257   N258    1.158   .     T
C259   N260    1.157   .     T
C261   N262    1.158   .     T
C263   N264    1.158   .     T
C265   O315    1.287   .     A
C265   C276    1.421   .     S
C265   O313    1.287   .     A
C266   O316    1.287   .     A
C266   C275    1.421   .     S
C266   O314    1.287   .     A
C267   C269    1.390   .     A
C267   C296    1.418   .     A
C267   H305    1.078   .     S
C268   H306    1.079   .     S
C268   C295    1.418   .     A
C268   C270    1.389   .     A
C269   H297    1.084   .     S
C269   C887    1.391   1_554 S
C270   H298    1.084   .     S
C270   C888    1.391   .     S
C271   H307    1.083   .     S
C271   C276    1.397   .     A
C271   C471    1.369   .     S
C272   H308    1.083   .     S
C272   C275    1.397   .     A
C273   H309    1.083   .     S
C273   C275    1.398   .     A
C274   H310    1.083   .     S
C274   C276    1.398   .     A
C274   C470    1.369   .     S
C277   N312    1.367   .     A
C277   C323    1.443   .     S
C277   C345    1.426   .     S
C278   N311    1.367   .     A
C278   C325    1.443   .     S
C279   N311    1.372   .     A
C279   C327    1.443   .     S
C280   N312    1.372   .     A
C280   C329    1.443   .     S
C280   C344    1.426   .     S
C281   O319    1.295   .     A
C281   O317    1.296   .     A
C281   C283    1.456   .     S
C282   O320    1.297   .     A
C282   O318    1.296   .     A
C282   C284    1.458   .     S
C283   C287    1.400   .     A
C283   C289    1.391   .     A
C284   C288    1.400   .     A
C284   C290    1.393   .     A
C285   C293    1.405   .     A
C285   H303    1.084   .     S
C285   C287    1.395   .     A
C286   H304    1.083   .     S
C286   C288    1.394   .     A
C286   C294    1.404   .     A
C287   H302    1.083   .     S
C288   H301    1.083   .     S
C289   H300    1.077   .     S
C289   C291    1.392   .     A
C290   C292    1.393   .     A
C290   H299    1.075   .     S
C291   C293    1.417   .     A
C291   C295    1.416   .     A
C292   C294    1.418   .     A
C292   C296    1.417   .     A
C293   C863    1.391   .     S
C294   C864    1.391   1_554 S
C295   C890    1.412   .     S
C296   C889    1.412   1_554 S
N311   Zn321   2.019   .     S
N312   Zn322   2.019   .     S
O313   Zn321   2.001   .     S
O314   Zn322   2.001   .     S
O315   Zn322   2.002   .     S
O316   Zn321   2.002   .     S
O317   Zn321   1.971   .     S
O318   Zn322   1.971   .     S
O319   Zn322   1.923   .     S
O320   Zn321   1.923   .     S
C323   N324    1.158   .     T
C325   N326    1.157   .     T
C327   N328    1.158   .     T
C329   N330    1.158   .     T
C331   O381    1.287   .     A
C331   C342    1.421   .     S
C331   O379    1.287   .     A
C332   O382    1.287   .     A
C332   C341    1.421   .     S
C332   O380    1.287   .     A
C333   C335    1.390   .     A
C333   C362    1.418   .     A
C333   H371    1.078   .     S
C334   H372    1.079   .     S
C334   C361    1.418   .     A
C334   C336    1.389   .     A
C335   H363    1.084   .     S
C335   C953    1.391   1_554 S
C336   H364    1.084   .     S
C336   C954    1.391   .     S
C337   H373    1.083   .     S
C337   C342    1.397   .     A
C337   C537    1.369   .     S
C338   H374    1.083   .     S
C338   C341    1.397   .     A
C339   H375    1.083   .     S
C339   C341    1.398   .     A
C340   H376    1.083   .     S
C340   C342    1.398   .     A
C340   C536    1.369   .     S
C343   N378    1.367   .     A
C343   C389    1.443   .     S
C343   C213    1.426   1_655 S
C344   N377    1.367   .     A
C344   C391    1.443   .     S
C345   N377    1.372   .     A
C345   C393    1.443   .     S
C346   N378    1.372   .     A
C346   C395    1.443   .     S
C346   C212    1.426   1_655 S
C347   O385    1.295   .     A
C347   O383    1.296   .     A
C347   C349    1.456   .     S
C348   O386    1.297   .     A
C348   O384    1.296   .     A
C348   C350    1.458   .     S
C349   C353    1.400   .     A
C349   C355    1.391   .     A
C350   C354    1.400   .     A
C350   C356    1.393   .     A
C351   C359    1.405   .     A
C351   H369    1.084   .     S
C351   C353    1.395   .     A
C352   H370    1.083   .     S
C352   C354    1.394   .     A
C352   C360    1.404   .     A
C353   H368    1.083   .     S
C354   H367    1.083   .     S
C355   H366    1.077   .     S
C355   C357    1.392   .     A
C356   C358    1.393   .     A
C356   H365    1.075   .     S
C357   C359    1.417   .     A
C357   C361    1.416   .     A
C358   C360    1.418   .     A
C358   C362    1.417   .     A
C359   C929    1.391   .     S
C360   C930    1.391   1_554 S
C361   C956    1.412   .     S
C362   C955    1.412   1_554 S
N377   Zn387   2.019   .     S
N378   Zn388   2.019   .     S
O379   Zn387   2.001   .     S
O380   Zn388   2.001   .     S
O381   Zn388   2.002   .     S
O382   Zn387   2.002   .     S
O383   Zn387   1.971   .     S
O384   Zn388   1.971   .     S
O385   Zn388   1.923   .     S
O386   Zn387   1.923   .     S
C389   N390    1.158   .     T
C391   N392    1.157   .     T
C393   N394    1.158   .     T
C395   N396    1.158   .     T
C397   O447    1.287   .     A
C397   C408    1.421   .     S
C397   O445    1.287   .     A
C398   O448    1.287   .     A
C398   C407    1.421   .     S
C398   O446    1.287   .     A
C399   C401    1.390   .     A
C399   C428    1.418   .     A
C399   H437    1.078   .     S
C400   H438    1.079   .     S
C400   C427    1.418   .     A
C400   C402    1.389   .     A
C401   H429    1.084   .     S
C401   C1019   1.391   1_554 S
C402   H430    1.084   .     S
C402   C1020   1.391   .     S
C403   H439    1.083   .     S
C403   C408    1.397   .     A
C403   C9      1.369   1_565 S
C404   H440    1.083   .     S
C404   C407    1.397   .     A
C405   H441    1.083   .     S
C405   C407    1.398   .     A
C406   H442    1.083   .     S
C406   C408    1.398   .     A
C406   C8      1.369   1_565 S
C409   N444    1.367   .     A
C409   C455    1.443   .     S
C409   C477    1.426   .     S
C410   N443    1.367   .     A
C410   C457    1.443   .     S
C410   C544    1.426   1_455 S
C411   N443    1.372   .     A
C411   C459    1.443   .     S
C411   C541    1.426   1_455 S
C412   N444    1.372   .     A
C412   C461    1.443   .     S
C412   C476    1.426   .     S
C413   O451    1.295   .     A
C413   O449    1.296   .     A
C413   C415    1.456   .     S
C414   O452    1.297   .     A
C414   O450    1.296   .     A
C414   C416    1.458   .     S
C415   C419    1.400   .     A
C415   C421    1.391   .     A
C416   C420    1.400   .     A
C416   C422    1.393   .     A
C417   C425    1.405   .     A
C417   H435    1.084   .     S
C417   C419    1.395   .     A
C418   H436    1.083   .     S
C418   C420    1.394   .     A
C418   C426    1.404   .     A
C419   H434    1.083   .     S
C420   H433    1.083   .     S
C421   H432    1.077   .     S
C421   C423    1.392   .     A
C422   C424    1.393   .     A
C422   H431    1.075   .     S
C423   C425    1.417   .     A
C423   C427    1.416   .     A
C424   C426    1.418   .     A
C424   C428    1.417   .     A
C425   C995    1.391   .     S
C426   C996    1.391   1_554 S
C427   C1022   1.412   .     S
C428   C1021   1.412   1_554 S
N443   Zn453   2.019   .     S
N444   Zn454   2.019   .     S
O445   Zn453   2.001   .     S
O446   Zn454   2.001   .     S
O447   Zn454   2.002   .     S
O448   Zn453   2.002   .     S
O449   Zn453   1.971   .     S
O450   Zn454   1.971   .     S
O451   Zn454   1.923   .     S
O452   Zn453   1.923   .     S
C455   N456    1.158   .     T
C457   N458    1.157   .     T
C459   N460    1.158   .     T
C461   N462    1.158   .     T
C463   O513    1.287   .     A
C463   C474    1.421   .     S
C463   O511    1.287   .     A
C464   O514    1.287   .     A
C464   C473    1.421   .     S
C464   O512    1.287   .     A
C465   C467    1.390   .     A
C465   C494    1.418   .     A
C465   H503    1.078   .     S
C466   H504    1.079   .     S
C466   C493    1.418   .     A
C466   C468    1.389   .     A
C467   H495    1.084   .     S
C467   C1085   1.391   1_554 S
C468   H496    1.084   .     S
C468   C1086   1.391   .     S
C469   H505    1.083   .     S
C469   C474    1.397   .     A
C469   C75     1.369   1_565 S
C470   H506    1.083   .     S
C470   C473    1.397   .     A
C471   H507    1.083   .     S
C471   C473    1.398   .     A
C472   H508    1.083   .     S
C472   C474    1.398   .     A
C472   C74     1.369   1_565 S
C475   N510    1.367   .     A
C475   C521    1.443   .     S
C475   C543    1.426   .     S
C476   N509    1.367   .     A
C476   C523    1.443   .     S
C477   N509    1.372   .     A
C477   C525    1.443   .     S
C478   N510    1.372   .     A
C478   C527    1.443   .     S
C478   C542    1.426   .     S
C479   O517    1.295   .     A
C479   O515    1.296   .     A
C479   C481    1.456   .     S
C480   O518    1.297   .     A
C480   O516    1.296   .     A
C480   C482    1.458   .     S
C481   C485    1.400   .     A
C481   C487    1.391   .     A
C482   C486    1.400   .     A
C482   C488    1.393   .     A
C483   C491    1.405   .     A
C483   H501    1.084   .     S
C483   C485    1.395   .     A
C484   H502    1.083   .     S
C484   C486    1.394   .     A
C484   C492    1.404   .     A
C485   H500    1.083   .     S
C486   H499    1.083   .     S
C487   H498    1.077   .     S
C487   C489    1.392   .     A
C488   C490    1.393   .     A
C488   H497    1.075   .     S
C489   C491    1.417   .     A
C489   C493    1.416   .     A
C490   C492    1.418   .     A
C490   C494    1.417   .     A
C491   C1061   1.391   .     S
C492   C1062   1.391   1_554 S
C493   C1088   1.412   .     S
C494   C1087   1.412   1_554 S
N509   Zn519   2.019   .     S
N510   Zn520   2.019   .     S
O511   Zn519   2.001   .     S
O512   Zn520   2.001   .     S
O513   Zn520   2.002   .     S
O514   Zn519   2.002   .     S
O515   Zn519   1.971   .     S
O516   Zn520   1.971   .     S
O517   Zn520   1.923   .     S
O518   Zn519   1.923   .     S
C521   N522    1.158   .     T
C523   N524    1.157   .     T
C525   N526    1.158   .     T
C527   N528    1.158   .     T
C529   O579    1.287   .     A
C529   C540    1.421   .     S
C529   O577    1.287   .     A
C530   O580    1.287   .     A
C530   C539    1.421   .     S
C530   O578    1.287   .     A
C531   C533    1.390   .     A
C531   C560    1.418   .     A
C531   H569    1.078   .     S
C532   H570    1.079   .     S
C532   C559    1.418   .     A
C532   C534    1.389   .     A
C533   H561    1.084   .     S
C533   C1151   1.391   1_554 S
C534   H562    1.084   .     S
C534   C1152   1.391   .     S
C535   H571    1.083   .     S
C535   C540    1.397   .     A
C535   C141    1.369   1_565 S
C536   H572    1.083   .     S
C536   C539    1.397   .     A
C537   H573    1.083   .     S
C537   C539    1.398   .     A
C538   H574    1.083   .     S
C538   C540    1.398   .     A
C538   C140    1.369   1_565 S
C541   N576    1.367   .     A
C541   C587    1.443   .     S
C541   C411    1.426   1_655 S
C542   N575    1.367   .     A
C542   C589    1.443   .     S
C543   N575    1.372   .     A
C543   C591    1.443   .     S
C544   N576    1.372   .     A
C544   C593    1.443   .     S
C544   C410    1.426   1_655 S
C545   O583    1.295   .     A
C545   O581    1.296   .     A
C545   C547    1.456   .     S
C546   O584    1.297   .     A
C546   O582    1.296   .     A
C546   C548    1.458   .     S
C547   C551    1.400   .     A
C547   C553    1.391   .     A
C548   C552    1.400   .     A
C548   C554    1.393   .     A
C549   C557    1.405   .     A
C549   H567    1.084   .     S
C549   C551    1.395   .     A
C550   H568    1.083   .     S
C550   C552    1.394   .     A
C550   C558    1.404   .     A
C551   H566    1.083   .     S
C552   H565    1.083   .     S
C553   H564    1.077   .     S
C553   C555    1.392   .     A
C554   C556    1.393   .     A
C554   H563    1.075   .     S
C555   C557    1.417   .     A
C555   C559    1.416   .     A
C556   C558    1.418   .     A
C556   C560    1.417   .     A
C557   C1127   1.391   .     S
C558   C1128   1.391   1_554 S
C559   C1154   1.412   .     S
C560   C1153   1.412   1_554 S
N575   Zn585   2.019   .     S
N576   Zn586   2.019   .     S
O577   Zn585   2.001   .     S
O578   Zn586   2.001   .     S
O579   Zn586   2.002   .     S
O580   Zn585   2.002   .     S
O581   Zn585   1.971   .     S
O582   Zn586   1.971   .     S
O583   Zn586   1.923   .     S
O584   Zn585   1.923   .     S
C587   N588    1.158   .     T
C589   N590    1.157   .     T
C591   N592    1.158   .     T
C593   N594    1.158   .     T
C595   O645    1.287   .     A
C595   C606    1.421   .     S
C595   O643    1.287   .     A
C596   O646    1.287   .     A
C596   C605    1.421   .     S
C596   O644    1.287   .     A
C597   C599    1.390   .     A
C597   C626    1.418   .     A
C597   H635    1.078   .     S
C598   H636    1.079   .     S
C598   C625    1.418   .     A
C598   C600    1.389   .     A
C599   H627    1.084   .     S
C600   H628    1.084   .     S
C600   C30     1.391   1_556 S
C601   H637    1.083   .     S
C601   C606    1.397   .     A
C601   C801    1.369   .     S
C602   H638    1.083   .     S
C602   C605    1.397   .     A
C602   C1000   1.369   1_545 S
C603   H639    1.083   .     S
C603   C605    1.398   .     A
C603   C997    1.369   1_545 S
C604   H640    1.083   .     S
C604   C606    1.398   .     A
C604   C800    1.369   .     S
C607   N642    1.367   .     A
C607   C653    1.443   .     S
C607   C675    1.426   .     S
C608   N641    1.367   .     A
C608   C655    1.443   .     S
C608   C742    1.426   1_455 S
C609   N641    1.372   .     A
C609   C657    1.443   .     S
C609   C739    1.426   1_455 S
C610   N642    1.372   .     A
C610   C659    1.443   .     S
C610   C674    1.426   .     S
C611   O649    1.295   .     A
C611   O647    1.296   .     A
C611   C613    1.456   .     S
C612   O650    1.297   .     A
C612   O648    1.296   .     A
C612   C614    1.458   .     S
C613   C617    1.400   .     A
C613   C619    1.391   .     A
C614   C618    1.400   .     A
C614   C620    1.393   .     A
C615   C623    1.405   .     A
C615   H633    1.084   .     S
C615   C617    1.395   .     A
C616   H634    1.083   .     S
C616   C618    1.394   .     A
C616   C624    1.404   .     A
C617   H632    1.083   .     S
C618   H631    1.083   .     S
C619   H630    1.077   .     S
C619   C621    1.392   .     A
C620   C622    1.393   .     A
C620   H629    1.075   .     S
C621   C623    1.417   .     A
C621   C625    1.416   .     A
C622   C624    1.418   .     A
C622   C626    1.417   .     A
C623   C5      1.391   1_556 S
C625   C32     1.412   1_556 S
N641   Zn651   2.019   .     S
N642   Zn652   2.019   .     S
O643   Zn651   2.001   .     S
O644   Zn652   2.001   .     S
O645   Zn652   2.002   .     S
O646   Zn651   2.002   .     S
O647   Zn651   1.971   .     S
O648   Zn652   1.971   .     S
O649   Zn652   1.923   .     S
O650   Zn651   1.923   .     S
C653   N654    1.158   .     T
C655   N656    1.157   .     T
C657   N658    1.158   .     T
C659   N660    1.158   .     T
C661   O711    1.287   .     A
C661   C672    1.421   .     S
C661   O709    1.287   .     A
C662   O712    1.287   .     A
C662   C671    1.421   .     S
C662   O710    1.287   .     A
C663   C665    1.390   .     A
C663   C692    1.418   .     A
C663   H701    1.078   .     S
C664   H702    1.079   .     S
C664   C691    1.418   .     A
C664   C666    1.389   .     A
C665   H693    1.084   .     S
C666   H694    1.084   .     S
C666   C96     1.391   1_556 S
C667   H703    1.083   .     S
C667   C672    1.397   .     A
C667   C867    1.369   .     S
C668   H704    1.083   .     S
C668   C671    1.397   .     A
C668   C1066   1.369   1_545 S
C669   H705    1.083   .     S
C669   C671    1.398   .     A
C669   C1063   1.369   1_545 S
C670   H706    1.083   .     S
C670   C672    1.398   .     A
C670   C866    1.369   .     S
C673   N708    1.367   .     A
C673   C719    1.443   .     S
C673   C741    1.426   .     S
C674   N707    1.367   .     A
C674   C721    1.443   .     S
C675   N707    1.372   .     A
C675   C723    1.443   .     S
C676   N708    1.372   .     A
C676   C725    1.443   .     S
C676   C740    1.426   .     S
C677   O715    1.295   .     A
C677   O713    1.296   .     A
C677   C679    1.456   .     S
C678   O716    1.297   .     A
C678   O714    1.296   .     A
C678   C680    1.458   .     S
C679   C683    1.400   .     A
C679   C685    1.391   .     A
C680   C684    1.400   .     A
C680   C686    1.393   .     A
C681   C689    1.405   .     A
C681   H699    1.084   .     S
C681   C683    1.395   .     A
C682   H700    1.083   .     S
C682   C684    1.394   .     A
C682   C690    1.404   .     A
C683   H698    1.083   .     S
C684   H697    1.083   .     S
C685   H696    1.077   .     S
C685   C687    1.392   .     A
C686   C688    1.393   .     A
C686   H695    1.075   .     S
C687   C689    1.417   .     A
C687   C691    1.416   .     A
C688   C690    1.418   .     A
C688   C692    1.417   .     A
C689   C71     1.391   1_556 S
C691   C98     1.412   1_556 S
N707   Zn717   2.019   .     S
N708   Zn718   2.019   .     S
O709   Zn717   2.001   .     S
O710   Zn718   2.001   .     S
O711   Zn718   2.002   .     S
O712   Zn717   2.002   .     S
O713   Zn717   1.971   .     S
O714   Zn718   1.971   .     S
O715   Zn718   1.923   .     S
O716   Zn717   1.923   .     S
C719   N720    1.158   .     T
C721   N722    1.157   .     T
C723   N724    1.158   .     T
C725   N726    1.158   .     T
C727   O777    1.287   .     A
C727   C738    1.421   .     S
C727   O775    1.287   .     A
C728   O778    1.287   .     A
C728   C737    1.421   .     S
C728   O776    1.287   .     A
C729   C731    1.390   .     A
C729   C758    1.418   .     A
C729   H767    1.078   .     S
C730   H768    1.079   .     S
C730   C757    1.418   .     A
C730   C732    1.389   .     A
C731   H759    1.084   .     S
C732   H760    1.084   .     S
C732   C162    1.391   1_556 S
C733   H769    1.083   .     S
C733   C738    1.397   .     A
C733   C933    1.369   .     S
C734   H770    1.083   .     S
C734   C737    1.397   .     A
C734   C1132   1.369   1_545 S
C735   H771    1.083   .     S
C735   C737    1.398   .     A
C735   C1129   1.369   1_545 S
C736   H772    1.083   .     S
C736   C738    1.398   .     A
C736   C932    1.369   .     S
C739   N774    1.367   .     A
C739   C785    1.443   .     S
C739   C609    1.426   1_655 S
C740   N773    1.367   .     A
C740   C787    1.443   .     S
C741   N773    1.372   .     A
C741   C789    1.443   .     S
C742   N774    1.372   .     A
C742   C791    1.443   .     S
C742   C608    1.426   1_655 S
C743   O781    1.295   .     A
C743   O779    1.296   .     A
C743   C745    1.456   .     S
C744   O782    1.297   .     A
C744   O780    1.296   .     A
C744   C746    1.458   .     S
C745   C749    1.400   .     A
C745   C751    1.391   .     A
C746   C750    1.400   .     A
C746   C752    1.393   .     A
C747   C755    1.405   .     A
C747   H765    1.084   .     S
C747   C749    1.395   .     A
C748   H766    1.083   .     S
C748   C750    1.394   .     A
C748   C756    1.404   .     A
C749   H764    1.083   .     S
C750   H763    1.083   .     S
C751   H762    1.077   .     S
C751   C753    1.392   .     A
C752   C754    1.393   .     A
C752   H761    1.075   .     S
C753   C755    1.417   .     A
C753   C757    1.416   .     A
C754   C756    1.418   .     A
C754   C758    1.417   .     A
C755   C137    1.391   1_556 S
C757   C164    1.412   1_556 S
N773   Zn783   2.019   .     S
N774   Zn784   2.019   .     S
O775   Zn783   2.001   .     S
O776   Zn784   2.001   .     S
O777   Zn784   2.002   .     S
O778   Zn783   2.002   .     S
O779   Zn783   1.971   .     S
O780   Zn784   1.971   .     S
O781   Zn784   1.923   .     S
O782   Zn783   1.923   .     S
C785   N786    1.158   .     T
C787   N788    1.157   .     T
C789   N790    1.158   .     T
C791   N792    1.158   .     T
C793   O843    1.287   .     A
C793   C804    1.421   .     S
C793   O841    1.287   .     A
C794   O844    1.287   .     A
C794   C803    1.421   .     S
C794   O842    1.287   .     A
C795   C797    1.390   .     A
C795   C824    1.418   .     A
C795   H833    1.078   .     S
C796   H834    1.079   .     S
C796   C823    1.418   .     A
C796   C798    1.389   .     A
C797   H825    1.084   .     S
C798   H826    1.084   .     S
C798   C228    1.391   1_556 S
C799   H835    1.083   .     S
C799   C804    1.397   .     A
C799   C999    1.369   .     S
C800   H836    1.083   .     S
C800   C803    1.397   .     A
C801   H837    1.083   .     S
C801   C803    1.398   .     A
C802   H838    1.083   .     S
C802   C804    1.398   .     A
C802   C998    1.369   .     S
C805   N840    1.367   .     A
C805   C851    1.443   .     S
C805   C873    1.426   .     S
C806   N839    1.367   .     A
C806   C853    1.443   .     S
C806   C940    1.426   1_455 S
C807   N839    1.372   .     A
C807   C855    1.443   .     S
C807   C937    1.426   1_455 S
C808   N840    1.372   .     A
C808   C857    1.443   .     S
C808   C872    1.426   .     S
C809   O847    1.295   .     A
C809   O845    1.296   .     A
C809   C811    1.456   .     S
C810   O848    1.297   .     A
C810   O846    1.296   .     A
C810   C812    1.458   .     S
C811   C815    1.400   .     A
C811   C817    1.391   .     A
C812   C816    1.400   .     A
C812   C818    1.393   .     A
C813   C821    1.405   .     A
C813   H831    1.084   .     S
C813   C815    1.395   .     A
C814   H832    1.083   .     S
C814   C816    1.394   .     A
C814   C822    1.404   .     A
C815   H830    1.083   .     S
C816   H829    1.083   .     S
C817   H828    1.077   .     S
C817   C819    1.392   .     A
C818   C820    1.393   .     A
C818   H827    1.075   .     S
C819   C821    1.417   .     A
C819   C823    1.416   .     A
C820   C822    1.418   .     A
C820   C824    1.417   .     A
C821   C203    1.391   1_556 S
C823   C230    1.412   1_556 S
N839   Zn849   2.019   .     S
N840   Zn850   2.019   .     S
O841   Zn849   2.001   .     S
O842   Zn850   2.001   .     S
O843   Zn850   2.002   .     S
O844   Zn849   2.002   .     S
O845   Zn849   1.971   .     S
O846   Zn850   1.971   .     S
O847   Zn850   1.923   .     S
O848   Zn849   1.923   .     S
C851   N852    1.158   .     T
C853   N854    1.157   .     T
C855   N856    1.158   .     T
C857   N858    1.158   .     T
C859   O909    1.287   .     A
C859   C870    1.421   .     S
C859   O907    1.287   .     A
C860   O910    1.287   .     A
C860   C869    1.421   .     S
C860   O908    1.287   .     A
C861   C863    1.390   .     A
C861   C890    1.418   .     A
C861   H899    1.078   .     S
C862   H900    1.079   .     S
C862   C889    1.418   .     A
C862   C864    1.389   .     A
C863   H891    1.084   .     S
C864   H892    1.084   .     S
C864   C294    1.391   1_556 S
C865   H901    1.083   .     S
C865   C870    1.397   .     A
C865   C1065   1.369   .     S
C866   H902    1.083   .     S
C866   C869    1.397   .     A
C867   H903    1.083   .     S
C867   C869    1.398   .     A
C868   H904    1.083   .     S
C868   C870    1.398   .     A
C868   C1064   1.369   .     S
C871   N906    1.367   .     A
C871   C917    1.443   .     S
C871   C939    1.426   .     S
C872   N905    1.367   .     A
C872   C919    1.443   .     S
C873   N905    1.372   .     A
C873   C921    1.443   .     S
C874   N906    1.372   .     A
C874   C923    1.443   .     S
C874   C938    1.426   .     S
C875   O913    1.295   .     A
C875   O911    1.296   .     A
C875   C877    1.456   .     S
C876   O914    1.297   .     A
C876   O912    1.296   .     A
C876   C878    1.458   .     S
C877   C881    1.400   .     A
C877   C883    1.391   .     A
C878   C882    1.400   .     A
C878   C884    1.393   .     A
C879   C887    1.405   .     A
C879   H897    1.084   .     S
C879   C881    1.395   .     A
C880   H898    1.083   .     S
C880   C882    1.394   .     A
C880   C888    1.404   .     A
C881   H896    1.083   .     S
C882   H895    1.083   .     S
C883   H894    1.077   .     S
C883   C885    1.392   .     A
C884   C886    1.393   .     A
C884   H893    1.075   .     S
C885   C887    1.417   .     A
C885   C889    1.416   .     A
C886   C888    1.418   .     A
C886   C890    1.417   .     A
C887   C269    1.391   1_556 S
C889   C296    1.412   1_556 S
N905   Zn915   2.019   .     S
N906   Zn916   2.019   .     S
O907   Zn915   2.001   .     S
O908   Zn916   2.001   .     S
O909   Zn916   2.002   .     S
O910   Zn915   2.002   .     S
O911   Zn915   1.971   .     S
O912   Zn916   1.971   .     S
O913   Zn916   1.923   .     S
O914   Zn915   1.923   .     S
C917   N918    1.158   .     T
C919   N920    1.157   .     T
C921   N922    1.158   .     T
C923   N924    1.158   .     T
C925   O975    1.287   .     A
C925   C936    1.421   .     S
C925   O973    1.287   .     A
C926   O976    1.287   .     A
C926   C935    1.421   .     S
C926   O974    1.287   .     A
C927   C929    1.390   .     A
C927   C956    1.418   .     A
C927   H965    1.078   .     S
C928   H966    1.079   .     S
C928   C955    1.418   .     A
C928   C930    1.389   .     A
C929   H957    1.084   .     S
C930   H958    1.084   .     S
C930   C360    1.391   1_556 S
C931   H967    1.083   .     S
C931   C936    1.397   .     A
C931   C1131   1.369   .     S
C932   H968    1.083   .     S
C932   C935    1.397   .     A
C933   H969    1.083   .     S
C933   C935    1.398   .     A
C934   H970    1.083   .     S
C934   C936    1.398   .     A
C934   C1130   1.369   .     S
C937   N972    1.367   .     A
C937   C983    1.443   .     S
C937   C807    1.426   1_655 S
C938   N971    1.367   .     A
C938   C985    1.443   .     S
C939   N971    1.372   .     A
C939   C987    1.443   .     S
C940   N972    1.372   .     A
C940   C989    1.443   .     S
C940   C806    1.426   1_655 S
C941   O979    1.295   .     A
C941   O977    1.296   .     A
C941   C943    1.456   .     S
C942   O980    1.297   .     A
C942   O978    1.296   .     A
C942   C944    1.458   .     S
C943   C947    1.400   .     A
C943   C949    1.391   .     A
C944   C948    1.400   .     A
C944   C950    1.393   .     A
C945   C953    1.405   .     A
C945   H963    1.084   .     S
C945   C947    1.395   .     A
C946   H964    1.083   .     S
C946   C948    1.394   .     A
C946   C954    1.404   .     A
C947   H962    1.083   .     S
C948   H961    1.083   .     S
C949   H960    1.077   .     S
C949   C951    1.392   .     A
C950   C952    1.393   .     A
C950   H959    1.075   .     S
C951   C953    1.417   .     A
C951   C955    1.416   .     A
C952   C954    1.418   .     A
C952   C956    1.417   .     A
C953   C335    1.391   1_556 S
C955   C362    1.412   1_556 S
N971   Zn981   2.019   .     S
N972   Zn982   2.019   .     S
O973   Zn981   2.001   .     S
O974   Zn982   2.001   .     S
O975   Zn982   2.002   .     S
O976   Zn981   2.002   .     S
O977   Zn981   1.971   .     S
O978   Zn982   1.971   .     S
O979   Zn982   1.923   .     S
O980   Zn981   1.923   .     S
C983   N984    1.158   .     T
C985   N986    1.157   .     T
C987   N988    1.158   .     T
C989   N990    1.158   .     T
C991   O1041   1.287   .     A
C991   C1002   1.421   .     S
C991   O1039   1.287   .     A
C992   O1042   1.287   .     A
C992   C1001   1.421   .     S
C992   O1040   1.287   .     A
C993   C995    1.390   .     A
C993   C1022   1.418   .     A
C993   H1031   1.078   .     S
C994   H1032   1.079   .     S
C994   C1021   1.418   .     A
C994   C996    1.389   .     A
C995   H1023   1.084   .     S
C996   H1024   1.084   .     S
C996   C426    1.391   1_556 S
C997   H1033   1.083   .     S
C997   C1002   1.397   .     A
C997   C603    1.369   1_565 S
C998   H1034   1.083   .     S
C998   C1001   1.397   .     A
C999   H1035   1.083   .     S
C999   C1001   1.398   .     A
C1000  H1036   1.083   .     S
C1000  C1002   1.398   .     A
C1000  C602    1.369   1_565 S
C1003  N1038   1.367   .     A
C1003  C1049   1.443   .     S
C1003  C1071   1.426   .     S
C1004  N1037   1.367   .     A
C1004  C1051   1.443   .     S
C1004  C1138   1.426   1_455 S
C1005  N1037   1.372   .     A
C1005  C1053   1.443   .     S
C1005  C1135   1.426   1_455 S
C1006  N1038   1.372   .     A
C1006  C1055   1.443   .     S
C1006  C1070   1.426   .     S
C1007  O1045   1.295   .     A
C1007  O1043   1.296   .     A
C1007  C1009   1.456   .     S
C1008  O1046   1.297   .     A
C1008  O1044   1.296   .     A
C1008  C1010   1.458   .     S
C1009  C1013   1.400   .     A
C1009  C1015   1.391   .     A
C1010  C1014   1.400   .     A
C1010  C1016   1.393   .     A
C1011  C1019   1.405   .     A
C1011  H1029   1.084   .     S
C1011  C1013   1.395   .     A
C1012  H1030   1.083   .     S
C1012  C1014   1.394   .     A
C1012  C1020   1.404   .     A
C1013  H1028   1.083   .     S
C1014  H1027   1.083   .     S
C1015  H1026   1.077   .     S
C1015  C1017   1.392   .     A
C1016  C1018   1.393   .     A
C1016  H1025   1.075   .     S
C1017  C1019   1.417   .     A
C1017  C1021   1.416   .     A
C1018  C1020   1.418   .     A
C1018  C1022   1.417   .     A
C1019  C401    1.391   1_556 S
C1021  C428    1.412   1_556 S
N1037  Zn1047  2.019   .     S
N1038  Zn1048  2.019   .     S
O1039  Zn1047  2.001   .     S
O1040  Zn1048  2.001   .     S
O1041  Zn1048  2.002   .     S
O1042  Zn1047  2.002   .     S
O1043  Zn1047  1.971   .     S
O1044  Zn1048  1.971   .     S
O1045  Zn1048  1.923   .     S
O1046  Zn1047  1.923   .     S
C1049  N1050   1.158   .     T
C1051  N1052   1.157   .     T
C1053  N1054   1.158   .     T
C1055  N1056   1.158   .     T
C1057  O1107   1.287   .     A
C1057  C1068   1.421   .     S
C1057  O1105   1.287   .     A
C1058  O1108   1.287   .     A
C1058  C1067   1.421   .     S
C1058  O1106   1.287   .     A
C1059  C1061   1.390   .     A
C1059  C1088   1.418   .     A
C1059  H1097   1.078   .     S
C1060  H1098   1.079   .     S
C1060  C1087   1.418   .     A
C1060  C1062   1.389   .     A
C1061  H1089   1.084   .     S
C1062  H1090   1.084   .     S
C1062  C492    1.391   1_556 S
C1063  H1099   1.083   .     S
C1063  C1068   1.397   .     A
C1063  C669    1.369   1_565 S
C1064  H1100   1.083   .     S
C1064  C1067   1.397   .     A
C1065  H1101   1.083   .     S
C1065  C1067   1.398   .     A
C1066  H1102   1.083   .     S
C1066  C1068   1.398   .     A
C1066  C668    1.369   1_565 S
C1069  N1104   1.367   .     A
C1069  C1115   1.443   .     S
C1069  C1137   1.426   .     S
C1070  N1103   1.367   .     A
C1070  C1117   1.443   .     S
C1071  N1103   1.372   .     A
C1071  C1119   1.443   .     S
C1072  N1104   1.372   .     A
C1072  C1121   1.443   .     S
C1072  C1136   1.426   .     S
C1073  O1111   1.295   .     A
C1073  O1109   1.296   .     A
C1073  C1075   1.456   .     S
C1074  O1112   1.297   .     A
C1074  O1110   1.296   .     A
C1074  C1076   1.458   .     S
C1075  C1079   1.400   .     A
C1075  C1081   1.391   .     A
C1076  C1080   1.400   .     A
C1076  C1082   1.393   .     A
C1077  C1085   1.405   .     A
C1077  H1095   1.084   .     S
C1077  C1079   1.395   .     A
C1078  H1096   1.083   .     S
C1078  C1080   1.394   .     A
C1078  C1086   1.404   .     A
C1079  H1094   1.083   .     S
C1080  H1093   1.083   .     S
C1081  H1092   1.077   .     S
C1081  C1083   1.392   .     A
C1082  C1084   1.393   .     A
C1082  H1091   1.075   .     S
C1083  C1085   1.417   .     A
C1083  C1087   1.416   .     A
C1084  C1086   1.418   .     A
C1084  C1088   1.417   .     A
C1085  C467    1.391   1_556 S
C1087  C494    1.412   1_556 S
N1103  Zn1113  2.019   .     S
N1104  Zn1114  2.019   .     S
O1105  Zn1113  2.001   .     S
O1106  Zn1114  2.001   .     S
O1107  Zn1114  2.002   .     S
O1108  Zn1113  2.002   .     S
O1109  Zn1113  1.971   .     S
O1110  Zn1114  1.971   .     S
O1111  Zn1114  1.923   .     S
O1112  Zn1113  1.923   .     S
C1115  N1116   1.158   .     T
C1117  N1118   1.157   .     T
C1119  N1120   1.158   .     T
C1121  N1122   1.158   .     T
C1123  O1173   1.287   .     A
C1123  C1134   1.421   .     S
C1123  O1171   1.287   .     A
C1124  O1174   1.287   .     A
C1124  C1133   1.421   .     S
C1124  O1172   1.287   .     A
C1125  C1127   1.390   .     A
C1125  C1154   1.418   .     A
C1125  H1163   1.078   .     S
C1126  H1164   1.079   .     S
C1126  C1153   1.418   .     A
C1126  C1128   1.389   .     A
C1127  H1155   1.084   .     S
C1128  H1156   1.084   .     S
C1128  C558    1.391   1_556 S
C1129  H1165   1.083   .     S
C1129  C1134   1.397   .     A
C1129  C735    1.369   1_565 S
C1130  H1166   1.083   .     S
C1130  C1133   1.397   .     A
C1131  H1167   1.083   .     S
C1131  C1133   1.398   .     A
C1132  H1168   1.083   .     S
C1132  C1134   1.398   .     A
C1132  C734    1.369   1_565 S
C1135  N1170   1.367   .     A
C1135  C1181   1.443   .     S
C1135  C1005   1.426   1_655 S
C1136  N1169   1.367   .     A
C1136  C1183   1.443   .     S
C1137  N1169   1.372   .     A
C1137  C1185   1.443   .     S
C1138  N1170   1.372   .     A
C1138  C1187   1.443   .     S
C1138  C1004   1.426   1_655 S
C1139  O1177   1.295   .     A
C1139  O1175   1.296   .     A
C1139  C1141   1.456   .     S
C1140  O1178   1.297   .     A
C1140  O1176   1.296   .     A
C1140  C1142   1.458   .     S
C1141  C1145   1.400   .     A
C1141  C1147   1.391   .     A
C1142  C1146   1.400   .     A
C1142  C1148   1.393   .     A
C1143  C1151   1.405   .     A
C1143  H1161   1.084   .     S
C1143  C1145   1.395   .     A
C1144  H1162   1.083   .     S
C1144  C1146   1.394   .     A
C1144  C1152   1.404   .     A
C1145  H1160   1.083   .     S
C1146  H1159   1.083   .     S
C1147  H1158   1.077   .     S
C1147  C1149   1.392   .     A
C1148  C1150   1.393   .     A
C1148  H1157   1.075   .     S
C1149  C1151   1.417   .     A
C1149  C1153   1.416   .     A
C1150  C1152   1.418   .     A
C1150  C1154   1.417   .     A
C1151  C533    1.391   1_556 S
C1153  C560    1.412   1_556 S
N1169  Zn1179  2.019   .     S
N1170  Zn1180  2.019   .     S
O1171  Zn1179  2.001   .     S
O1172  Zn1180  2.001   .     S
O1173  Zn1180  2.002   .     S
O1174  Zn1179  2.002   .     S
O1175  Zn1179  1.971   .     S
O1176  Zn1180  1.971   .     S
O1177  Zn1180  1.923   .     S
O1178  Zn1179  1.923   .     S
C1181  N1182   1.158   .     T
C1183  N1184   1.157   .     T
C1185  N1186   1.158   .     T
C1187  N1188   1.158   .     T
