data_str_m3_o10_o17_pcu_sym.32
_audit_creation_date              2020-01-03
_audit_creation_method            'Materials Studio'
_symmetry_space_group_name_H-M    'P1'
_symmetry_Int_Tables_number       1
_symmetry_cell_setting            triclinic
loop_
_symmetry_equiv_pos_as_xyz
  x,y,z
_cell_length_a                    23.4629
_cell_length_b                    25.6131
_cell_length_c                    29.7091
_cell_angle_alpha                 91.6077
_cell_angle_beta                  86.6702
_cell_angle_gamma                 93.3448
loop_
_atom_site_label
_atom_site_type_symbol
_atom_site_fract_x
_atom_site_fract_y
_atom_site_fract_z
_atom_site_U_iso_or_equiv
_atom_site_adp_type
_atom_site_occupancy
C1     C     0.18179   0.26480   0.24955   0.00000  Uiso   1.00
C2     C     0.18705   0.21210   0.40653   0.00000  Uiso   1.00
C3     C     0.16308   0.16750   0.11626   0.00000  Uiso   1.00
C4     C     0.16904   0.16656   0.38381   0.00000  Uiso   1.00
C5     C     0.18352   0.21220   0.09393   0.00000  Uiso   1.00
C6     C     0.14721   0.12236   0.40620   0.00000  Uiso   1.00
C7     C     0.18267   0.21304   0.04746   0.00000  Uiso   1.00
C8     C     0.14447   0.12275   0.45280   0.00000  Uiso   1.00
C9     C     0.16219   0.16794   0.02361   0.00000  Uiso   1.00
C10    C     0.16389   0.16820   0.47669   0.00000  Uiso   1.00
C11    C     0.14069   0.12250   0.04679   0.00000  Uiso   1.00
C12    C     0.15159   0.06857   0.25160   0.00000  Uiso   1.00
C13    C     0.18499   0.21376   0.45350   0.00000  Uiso   1.00
C14    C     0.20238   0.25820   0.02478   0.00000  Uiso   1.00
C15    C     0.12242   0.07837   0.47554   0.00000  Uiso   1.00
C16    C     0.22333   0.30951   0.45480   0.00000  Uiso   1.00
C17    C     0.09647   0.02863   0.04567   0.00000  Uiso   1.00
C18    C     0.31760   0.09560   0.17846   0.00000  Uiso   1.00
C19    C     0.01580   0.04850   0.19231   0.00000  Uiso   1.00
C20    C     0.32703   0.33135   0.16902   0.00000  Uiso   1.00
C21    C     0.01358   0.23697   0.32131   0.00000  Uiso   1.00
C22    C     0.01566   0.23442   0.37259   0.00000  Uiso   1.00
C23    C     0.20314   0.25943   0.47784   0.00000  Uiso   1.00
C24    C     0.04449   0.28415   0.39249   0.00000  Uiso   1.00
C25    C     0.12032   0.07755   0.02252   0.00000  Uiso   1.00
C26    C     0.18975   0.31935   0.25072   0.00000  Uiso   1.00
C27    C     0.14360   0.01407   0.25266   0.00000  Uiso   1.00
C28    C     0.16761   0.16678   0.33627   0.00000  Uiso   1.00
C29    C     0.16559   0.16670   0.16373   0.00000  Uiso   1.00
C30    C     0.14086   0.12338   0.09369   0.00000  Uiso   1.00
H31    H     0.12518   0.08983   0.11312   0.00000  Uiso   1.00
H32    H     0.26224   0.30307   0.43288   0.00000  Uiso   1.00
H33    H     0.18927   0.32263   0.43405   0.00000  Uiso   1.00
H34    H     0.08321   0.33070   0.02112   0.00000  Uiso   1.00
H35    H     0.12934   0.01304   0.06624   0.00000  Uiso   1.00
H36    H     0.05838   0.03782   0.06771   0.00000  Uiso   1.00
H37    H     0.32217   0.09823   0.14114   0.00000  Uiso   1.00
H38    H     0.27160   0.08920   0.18710   0.00000  Uiso   1.00
H39    H     0.06211   0.05493   0.18283   0.00000  Uiso   1.00
H40    H     0.00991   0.04419   0.22943   0.00000  Uiso   1.00
H41    H     0.28031   0.32448   0.17624   0.00000  Uiso   1.00
H42    H     0.20191   0.24589   0.38709   0.00000  Uiso   1.00
H43    H     0.01571   0.29777   0.18142   0.00000  Uiso   1.00
H44    H     0.00238   0.00012   0.13198   0.00000  Uiso   1.00
H45    H     0.31751   0.26733   0.31291   0.00000  Uiso   1.00
H46    H     0.05677   0.24897   0.30756   0.00000  Uiso   1.00
H47    H     0.30495   0.22876   0.38792   0.00000  Uiso   1.00
H48    H     0.03979   0.20043   0.38139   0.00000  Uiso   1.00
H49    H     0.08971   0.28891   0.37924   0.00000  Uiso   1.00
H50    H     0.04388   0.28156   0.42977   0.00000  Uiso   1.00
H51    H     0.02156   0.31896   0.38392   0.00000  Uiso   1.00
H52    H     0.19996   0.24611   0.11289   0.00000  Uiso   1.00
H53    H     0.13217   0.08795   0.38718   0.00000  Uiso   1.00
H54    H     0.21729   0.29258   0.04383   0.00000  Uiso   1.00
H55    H     0.10693   0.04421   0.45650   0.00000  Uiso   1.00
H56    H     0.23338   0.00294   0.24986   0.00000  Uiso   1.00
H57    H     0.09992   0.33052   0.25421   0.00000  Uiso   1.00
H58    H     0.23393   0.00821   0.47944   0.00000  Uiso   1.00
N59    N     0.31678   0.15265   0.23783   0.00000  Uiso   1.00
N60    N     0.01656   0.18068   0.26217   0.00000  Uiso   1.00
O61    O     0.12975   0.24619   0.25298   0.00000  Uiso   1.00
O62    O     0.32617   0.18813   0.30410   0.00000  Uiso   1.00
O63    O     0.20358   0.08714   0.24701   0.00000  Uiso   1.00
O64    O     0.22613   0.23721   0.24518   0.00000  Uiso   1.00
O65    O     0.10720   0.09613   0.25481   0.00000  Uiso   1.00
O66    O     0.11847   0.17117   0.31997   0.00000  Uiso   1.00
O67    O     0.21486   0.16216   0.18002   0.00000  Uiso   1.00
O68    O     0.21485   0.16219   0.31217   0.00000  Uiso   1.00
O69    O     0.11848   0.17115   0.18782   0.00000  Uiso   1.00
O70    O     0.00875   0.14253   0.19680   0.00000  Uiso   1.00
Zn71   Zn    0.10231   0.17266   0.25521   0.00000  Uiso   1.00
Zn72   Zn    0.23102   0.16067   0.24479   0.00000  Uiso   1.00
C73    C     0.51512   0.26480   0.24955   0.00000  Uiso   1.00
C74    C     0.52039   0.21210   0.40653   0.00000  Uiso   1.00
C75    C     0.49642   0.16750   0.11626   0.00000  Uiso   1.00
C76    C     0.50238   0.16656   0.38381   0.00000  Uiso   1.00
C77    C     0.51685   0.21220   0.09393   0.00000  Uiso   1.00
C78    C     0.48054   0.12236   0.40620   0.00000  Uiso   1.00
C79    C     0.51601   0.21304   0.04746   0.00000  Uiso   1.00
C80    C     0.47780   0.12275   0.45280   0.00000  Uiso   1.00
C81    C     0.49553   0.16794   0.02361   0.00000  Uiso   1.00
C82    C     0.49722   0.16820   0.47669   0.00000  Uiso   1.00
C83    C     0.47402   0.12250   0.04679   0.00000  Uiso   1.00
C84    C     0.48493   0.06857   0.25160   0.00000  Uiso   1.00
C85    C     0.51832   0.21376   0.45350   0.00000  Uiso   1.00
C86    C     0.53571   0.25820   0.02478   0.00000  Uiso   1.00
C87    C     0.45575   0.07837   0.47554   0.00000  Uiso   1.00
C88    C     0.55666   0.30951   0.45480   0.00000  Uiso   1.00
C89    C     0.42980   0.02863   0.04567   0.00000  Uiso   1.00
C90    C     0.65094   0.09560   0.17846   0.00000  Uiso   1.00
C91    C     0.34913   0.04850   0.19231   0.00000  Uiso   1.00
C92    C     0.66037   0.33135   0.16902   0.00000  Uiso   1.00
C93    C     0.34691   0.23697   0.32131   0.00000  Uiso   1.00
C94    C     0.34899   0.23442   0.37259   0.00000  Uiso   1.00
C95    C     0.53647   0.25943   0.47784   0.00000  Uiso   1.00
C96    C     0.37782   0.28415   0.39249   0.00000  Uiso   1.00
C97    C     0.45365   0.07755   0.02252   0.00000  Uiso   1.00
C98    C     0.52308   0.31935   0.25072   0.00000  Uiso   1.00
C99    C     0.47694   0.01407   0.25266   0.00000  Uiso   1.00
C100   C     0.50095   0.16678   0.33627   0.00000  Uiso   1.00
C101   C     0.49893   0.16670   0.16373   0.00000  Uiso   1.00
C102   C     0.47419   0.12338   0.09369   0.00000  Uiso   1.00
H103   H     0.45851   0.08983   0.11312   0.00000  Uiso   1.00
H104   H     0.59557   0.30307   0.43288   0.00000  Uiso   1.00
H105   H     0.52261   0.32263   0.43405   0.00000  Uiso   1.00
H106   H     0.41654   0.33070   0.02112   0.00000  Uiso   1.00
H107   H     0.46267   0.01304   0.06624   0.00000  Uiso   1.00
H108   H     0.39171   0.03782   0.06771   0.00000  Uiso   1.00
H109   H     0.65550   0.09823   0.14114   0.00000  Uiso   1.00
H110   H     0.60493   0.08920   0.18710   0.00000  Uiso   1.00
H111   H     0.39544   0.05493   0.18283   0.00000  Uiso   1.00
H112   H     0.34324   0.04419   0.22943   0.00000  Uiso   1.00
H113   H     0.61365   0.32448   0.17624   0.00000  Uiso   1.00
H114   H     0.53524   0.24589   0.38709   0.00000  Uiso   1.00
H115   H     0.34904   0.29777   0.18142   0.00000  Uiso   1.00
H116   H     0.33571   0.00012   0.13198   0.00000  Uiso   1.00
H117   H     0.65085   0.26733   0.31291   0.00000  Uiso   1.00
H118   H     0.39010   0.24897   0.30756   0.00000  Uiso   1.00
H119   H     0.63828   0.22876   0.38792   0.00000  Uiso   1.00
H120   H     0.37312   0.20043   0.38139   0.00000  Uiso   1.00
H121   H     0.42304   0.28891   0.37924   0.00000  Uiso   1.00
H122   H     0.37722   0.28156   0.42977   0.00000  Uiso   1.00
H123   H     0.35489   0.31896   0.38392   0.00000  Uiso   1.00
H124   H     0.53329   0.24611   0.11289   0.00000  Uiso   1.00
H125   H     0.46551   0.08795   0.38718   0.00000  Uiso   1.00
H126   H     0.55062   0.29258   0.04383   0.00000  Uiso   1.00
H127   H     0.44027   0.04421   0.45650   0.00000  Uiso   1.00
H128   H     0.56671   0.00294   0.24986   0.00000  Uiso   1.00
H129   H     0.43325   0.33052   0.25421   0.00000  Uiso   1.00
H130   H     0.56726   0.00821   0.47944   0.00000  Uiso   1.00
N131   N     0.65011   0.15265   0.23783   0.00000  Uiso   1.00
N132   N     0.34989   0.18068   0.26217   0.00000  Uiso   1.00
O133   O     0.46308   0.24619   0.25298   0.00000  Uiso   1.00
O134   O     0.65950   0.18813   0.30410   0.00000  Uiso   1.00
O135   O     0.53692   0.08714   0.24701   0.00000  Uiso   1.00
O136   O     0.55946   0.23721   0.24518   0.00000  Uiso   1.00
O137   O     0.44054   0.09613   0.25481   0.00000  Uiso   1.00
O138   O     0.45181   0.17117   0.31997   0.00000  Uiso   1.00
O139   O     0.54819   0.16216   0.18002   0.00000  Uiso   1.00
O140   O     0.54819   0.16219   0.31217   0.00000  Uiso   1.00
O141   O     0.45181   0.17115   0.18782   0.00000  Uiso   1.00
O142   O     0.34209   0.14253   0.19680   0.00000  Uiso   1.00
Zn143  Zn    0.43565   0.17266   0.25521   0.00000  Uiso   1.00
Zn144  Zn    0.56435   0.16067   0.24479   0.00000  Uiso   1.00
C145   C     0.84845   0.26480   0.24955   0.00000  Uiso   1.00
C146   C     0.85372   0.21210   0.40653   0.00000  Uiso   1.00
C147   C     0.82975   0.16750   0.11626   0.00000  Uiso   1.00
C148   C     0.83571   0.16656   0.38381   0.00000  Uiso   1.00
C149   C     0.85018   0.21220   0.09393   0.00000  Uiso   1.00
C150   C     0.81387   0.12236   0.40620   0.00000  Uiso   1.00
C151   C     0.84934   0.21304   0.04746   0.00000  Uiso   1.00
C152   C     0.81113   0.12275   0.45280   0.00000  Uiso   1.00
C153   C     0.82886   0.16794   0.02361   0.00000  Uiso   1.00
C154   C     0.83055   0.16820   0.47669   0.00000  Uiso   1.00
C155   C     0.80735   0.12250   0.04679   0.00000  Uiso   1.00
C156   C     0.81826   0.06857   0.25160   0.00000  Uiso   1.00
C157   C     0.85166   0.21376   0.45350   0.00000  Uiso   1.00
C158   C     0.86905   0.25820   0.02478   0.00000  Uiso   1.00
C159   C     0.78908   0.07837   0.47554   0.00000  Uiso   1.00
C160   C     0.89000   0.30951   0.45480   0.00000  Uiso   1.00
C161   C     0.76314   0.02863   0.04567   0.00000  Uiso   1.00
C162   C     0.98427   0.09560   0.17846   0.00000  Uiso   1.00
C163   C     0.68246   0.04850   0.19231   0.00000  Uiso   1.00
C164   C     0.99370   0.33135   0.16902   0.00000  Uiso   1.00
C165   C     0.68024   0.23697   0.32131   0.00000  Uiso   1.00
C166   C     0.68233   0.23442   0.37259   0.00000  Uiso   1.00
C167   C     0.86981   0.25943   0.47784   0.00000  Uiso   1.00
C168   C     0.71115   0.28415   0.39249   0.00000  Uiso   1.00
C169   C     0.78698   0.07755   0.02252   0.00000  Uiso   1.00
C170   C     0.85642   0.31935   0.25072   0.00000  Uiso   1.00
C171   C     0.81027   0.01407   0.25266   0.00000  Uiso   1.00
C172   C     0.83428   0.16678   0.33627   0.00000  Uiso   1.00
C173   C     0.83226   0.16670   0.16373   0.00000  Uiso   1.00
C174   C     0.80753   0.12338   0.09369   0.00000  Uiso   1.00
H175   H     0.79184   0.08983   0.11312   0.00000  Uiso   1.00
H176   H     0.92891   0.30307   0.43288   0.00000  Uiso   1.00
H177   H     0.85594   0.32263   0.43405   0.00000  Uiso   1.00
H178   H     0.74988   0.33070   0.02112   0.00000  Uiso   1.00
H179   H     0.79601   0.01304   0.06624   0.00000  Uiso   1.00
H180   H     0.72504   0.03782   0.06771   0.00000  Uiso   1.00
H181   H     0.98884   0.09823   0.14114   0.00000  Uiso   1.00
H182   H     0.93827   0.08920   0.18710   0.00000  Uiso   1.00
H183   H     0.72878   0.05493   0.18283   0.00000  Uiso   1.00
H184   H     0.67657   0.04419   0.22943   0.00000  Uiso   1.00
H185   H     0.94698   0.32448   0.17624   0.00000  Uiso   1.00
H186   H     0.86858   0.24589   0.38709   0.00000  Uiso   1.00
H187   H     0.68238   0.29777   0.18142   0.00000  Uiso   1.00
H188   H     0.66905   0.00012   0.13198   0.00000  Uiso   1.00
H189   H     0.98418   0.26733   0.31291   0.00000  Uiso   1.00
H190   H     0.72344   0.24897   0.30756   0.00000  Uiso   1.00
H191   H     0.97161   0.22876   0.38792   0.00000  Uiso   1.00
H192   H     0.70645   0.20043   0.38139   0.00000  Uiso   1.00
H193   H     0.75638   0.28891   0.37924   0.00000  Uiso   1.00
H194   H     0.71055   0.28156   0.42977   0.00000  Uiso   1.00
H195   H     0.68823   0.31896   0.38392   0.00000  Uiso   1.00
H196   H     0.86663   0.24611   0.11289   0.00000  Uiso   1.00
H197   H     0.79884   0.08795   0.38718   0.00000  Uiso   1.00
H198   H     0.88395   0.29258   0.04383   0.00000  Uiso   1.00
H199   H     0.77360   0.04421   0.45650   0.00000  Uiso   1.00
H200   H     0.90004   0.00294   0.24986   0.00000  Uiso   1.00
H201   H     0.76659   0.33052   0.25421   0.00000  Uiso   1.00
H202   H     0.90060   0.00821   0.47944   0.00000  Uiso   1.00
N203   N     0.98344   0.15265   0.23783   0.00000  Uiso   1.00
N204   N     0.68322   0.18068   0.26217   0.00000  Uiso   1.00
O205   O     0.79642   0.24619   0.25298   0.00000  Uiso   1.00
O206   O     0.99283   0.18813   0.30410   0.00000  Uiso   1.00
O207   O     0.87025   0.08714   0.24701   0.00000  Uiso   1.00
O208   O     0.89280   0.23721   0.24518   0.00000  Uiso   1.00
O209   O     0.77387   0.09613   0.25481   0.00000  Uiso   1.00
O210   O     0.78514   0.17117   0.31997   0.00000  Uiso   1.00
O211   O     0.88153   0.16216   0.18002   0.00000  Uiso   1.00
O212   O     0.88152   0.16219   0.31217   0.00000  Uiso   1.00
O213   O     0.78515   0.17115   0.18782   0.00000  Uiso   1.00
O214   O     0.67542   0.14253   0.19680   0.00000  Uiso   1.00
Zn215  Zn    0.76898   0.17266   0.25521   0.00000  Uiso   1.00
Zn216  Zn    0.89769   0.16067   0.24479   0.00000  Uiso   1.00
C217   C     0.18179   0.59813   0.24955   0.00000  Uiso   1.00
C218   C     0.18705   0.54544   0.40653   0.00000  Uiso   1.00
C219   C     0.16308   0.50083   0.11626   0.00000  Uiso   1.00
C220   C     0.16904   0.49990   0.38381   0.00000  Uiso   1.00
C221   C     0.18352   0.54553   0.09393   0.00000  Uiso   1.00
C222   C     0.14721   0.45570   0.40620   0.00000  Uiso   1.00
C223   C     0.18267   0.54637   0.04746   0.00000  Uiso   1.00
C224   C     0.14447   0.45608   0.45280   0.00000  Uiso   1.00
C225   C     0.16219   0.50128   0.02361   0.00000  Uiso   1.00
C226   C     0.16389   0.50153   0.47669   0.00000  Uiso   1.00
C227   C     0.14069   0.45583   0.04679   0.00000  Uiso   1.00
C228   C     0.15159   0.40190   0.25160   0.00000  Uiso   1.00
C229   C     0.18499   0.54709   0.45350   0.00000  Uiso   1.00
C230   C     0.20238   0.59153   0.02478   0.00000  Uiso   1.00
C231   C     0.12242   0.41170   0.47554   0.00000  Uiso   1.00
C232   C     0.22333   0.64284   0.45480   0.00000  Uiso   1.00
C233   C     0.09647   0.36197   0.04567   0.00000  Uiso   1.00
C234   C     0.31760   0.42893   0.17846   0.00000  Uiso   1.00
C235   C     0.01580   0.38183   0.19231   0.00000  Uiso   1.00
C236   C     0.32703   0.66468   0.16902   0.00000  Uiso   1.00
C237   C     0.01358   0.57030   0.32131   0.00000  Uiso   1.00
C238   C     0.01566   0.56775   0.37259   0.00000  Uiso   1.00
C239   C     0.20314   0.59277   0.47784   0.00000  Uiso   1.00
C240   C     0.04449   0.61749   0.39249   0.00000  Uiso   1.00
C241   C     0.12032   0.41088   0.02252   0.00000  Uiso   1.00
C242   C     0.18975   0.65268   0.25072   0.00000  Uiso   1.00
C243   C     0.14360   0.34741   0.25266   0.00000  Uiso   1.00
C244   C     0.16761   0.50011   0.33627   0.00000  Uiso   1.00
C245   C     0.16559   0.50003   0.16373   0.00000  Uiso   1.00
C246   C     0.14086   0.45671   0.09369   0.00000  Uiso   1.00
H247   H     0.12518   0.42316   0.11312   0.00000  Uiso   1.00
H248   H     0.26224   0.63640   0.43288   0.00000  Uiso   1.00
H249   H     0.18927   0.65596   0.43405   0.00000  Uiso   1.00
H250   H     0.08321   0.66403   0.02112   0.00000  Uiso   1.00
H251   H     0.12934   0.34638   0.06624   0.00000  Uiso   1.00
H252   H     0.05838   0.37115   0.06771   0.00000  Uiso   1.00
H253   H     0.32217   0.43157   0.14114   0.00000  Uiso   1.00
H254   H     0.27160   0.42254   0.18710   0.00000  Uiso   1.00
H255   H     0.06211   0.38827   0.18283   0.00000  Uiso   1.00
H256   H     0.00991   0.37752   0.22943   0.00000  Uiso   1.00
H257   H     0.28031   0.65782   0.17624   0.00000  Uiso   1.00
H258   H     0.20191   0.57923   0.38709   0.00000  Uiso   1.00
H259   H     0.01571   0.63110   0.18142   0.00000  Uiso   1.00
H260   H     0.00238   0.33346   0.13198   0.00000  Uiso   1.00
H261   H     0.31751   0.60066   0.31291   0.00000  Uiso   1.00
H262   H     0.05677   0.58230   0.30756   0.00000  Uiso   1.00
H263   H     0.30495   0.56209   0.38792   0.00000  Uiso   1.00
H264   H     0.03979   0.53376   0.38139   0.00000  Uiso   1.00
H265   H     0.08971   0.62224   0.37924   0.00000  Uiso   1.00
H266   H     0.04388   0.61490   0.42977   0.00000  Uiso   1.00
H267   H     0.02156   0.65230   0.38392   0.00000  Uiso   1.00
H268   H     0.19996   0.57945   0.11289   0.00000  Uiso   1.00
H269   H     0.13217   0.42129   0.38718   0.00000  Uiso   1.00
H270   H     0.21729   0.62591   0.04383   0.00000  Uiso   1.00
H271   H     0.10693   0.37754   0.45650   0.00000  Uiso   1.00
H272   H     0.23338   0.33628   0.24986   0.00000  Uiso   1.00
H273   H     0.09992   0.66386   0.25421   0.00000  Uiso   1.00
H274   H     0.23393   0.34154   0.47944   0.00000  Uiso   1.00
N275   N     0.31678   0.48598   0.23783   0.00000  Uiso   1.00
N276   N     0.01656   0.51402   0.26217   0.00000  Uiso   1.00
O277   O     0.12975   0.57952   0.25298   0.00000  Uiso   1.00
O278   O     0.32617   0.52147   0.30410   0.00000  Uiso   1.00
O279   O     0.20358   0.42048   0.24701   0.00000  Uiso   1.00
O280   O     0.22613   0.57054   0.24518   0.00000  Uiso   1.00
O281   O     0.10720   0.42946   0.25481   0.00000  Uiso   1.00
O282   O     0.11847   0.50450   0.31997   0.00000  Uiso   1.00
O283   O     0.21486   0.49550   0.18002   0.00000  Uiso   1.00
O284   O     0.21485   0.49552   0.31217   0.00000  Uiso   1.00
O285   O     0.11848   0.50448   0.18782   0.00000  Uiso   1.00
O286   O     0.00875   0.47587   0.19680   0.00000  Uiso   1.00
Zn287  Zn    0.10231   0.50600   0.25521   0.00000  Uiso   1.00
Zn288  Zn    0.23102   0.49400   0.24479   0.00000  Uiso   1.00
C289   C     0.51512   0.59813   0.24955   0.00000  Uiso   1.00
C290   C     0.52039   0.54544   0.40653   0.00000  Uiso   1.00
C291   C     0.49642   0.50083   0.11626   0.00000  Uiso   1.00
C292   C     0.50238   0.49990   0.38381   0.00000  Uiso   1.00
C293   C     0.51685   0.54553   0.09393   0.00000  Uiso   1.00
C294   C     0.48054   0.45570   0.40620   0.00000  Uiso   1.00
C295   C     0.51601   0.54637   0.04746   0.00000  Uiso   1.00
C296   C     0.47780   0.45608   0.45280   0.00000  Uiso   1.00
C297   C     0.49553   0.50128   0.02361   0.00000  Uiso   1.00
C298   C     0.49722   0.50153   0.47669   0.00000  Uiso   1.00
C299   C     0.47402   0.45583   0.04679   0.00000  Uiso   1.00
C300   C     0.48493   0.40190   0.25160   0.00000  Uiso   1.00
C301   C     0.51832   0.54709   0.45350   0.00000  Uiso   1.00
C302   C     0.53571   0.59153   0.02478   0.00000  Uiso   1.00
C303   C     0.45575   0.41170   0.47554   0.00000  Uiso   1.00
C304   C     0.55666   0.64284   0.45480   0.00000  Uiso   1.00
C305   C     0.42980   0.36197   0.04567   0.00000  Uiso   1.00
C306   C     0.65094   0.42893   0.17846   0.00000  Uiso   1.00
C307   C     0.34913   0.38183   0.19231   0.00000  Uiso   1.00
C308   C     0.66037   0.66468   0.16902   0.00000  Uiso   1.00
C309   C     0.34691   0.57030   0.32131   0.00000  Uiso   1.00
C310   C     0.34899   0.56775   0.37259   0.00000  Uiso   1.00
C311   C     0.53647   0.59277   0.47784   0.00000  Uiso   1.00
C312   C     0.37782   0.61749   0.39249   0.00000  Uiso   1.00
C313   C     0.45365   0.41088   0.02252   0.00000  Uiso   1.00
C314   C     0.52308   0.65268   0.25072   0.00000  Uiso   1.00
C315   C     0.47694   0.34741   0.25266   0.00000  Uiso   1.00
C316   C     0.50095   0.50011   0.33627   0.00000  Uiso   1.00
C317   C     0.49893   0.50003   0.16373   0.00000  Uiso   1.00
C318   C     0.47419   0.45671   0.09369   0.00000  Uiso   1.00
H319   H     0.45851   0.42316   0.11312   0.00000  Uiso   1.00
H320   H     0.59557   0.63640   0.43288   0.00000  Uiso   1.00
H321   H     0.52261   0.65596   0.43405   0.00000  Uiso   1.00
H322   H     0.41654   0.66403   0.02112   0.00000  Uiso   1.00
H323   H     0.46267   0.34638   0.06624   0.00000  Uiso   1.00
H324   H     0.39171   0.37115   0.06771   0.00000  Uiso   1.00
H325   H     0.65550   0.43157   0.14114   0.00000  Uiso   1.00
H326   H     0.60493   0.42254   0.18710   0.00000  Uiso   1.00
H327   H     0.39544   0.38827   0.18283   0.00000  Uiso   1.00
H328   H     0.34324   0.37752   0.22943   0.00000  Uiso   1.00
H329   H     0.61365   0.65782   0.17624   0.00000  Uiso   1.00
H330   H     0.53524   0.57923   0.38709   0.00000  Uiso   1.00
H331   H     0.34904   0.63110   0.18142   0.00000  Uiso   1.00
H332   H     0.33571   0.33346   0.13198   0.00000  Uiso   1.00
H333   H     0.65085   0.60066   0.31291   0.00000  Uiso   1.00
H334   H     0.39010   0.58230   0.30756   0.00000  Uiso   1.00
H335   H     0.63828   0.56209   0.38792   0.00000  Uiso   1.00
H336   H     0.37312   0.53376   0.38139   0.00000  Uiso   1.00
H337   H     0.42304   0.62224   0.37924   0.00000  Uiso   1.00
H338   H     0.37722   0.61490   0.42977   0.00000  Uiso   1.00
H339   H     0.35489   0.65230   0.38392   0.00000  Uiso   1.00
H340   H     0.53329   0.57945   0.11289   0.00000  Uiso   1.00
H341   H     0.46551   0.42129   0.38718   0.00000  Uiso   1.00
H342   H     0.55062   0.62591   0.04383   0.00000  Uiso   1.00
H343   H     0.44027   0.37754   0.45650   0.00000  Uiso   1.00
H344   H     0.56671   0.33628   0.24986   0.00000  Uiso   1.00
H345   H     0.43325   0.66386   0.25421   0.00000  Uiso   1.00
H346   H     0.56726   0.34154   0.47944   0.00000  Uiso   1.00
N347   N     0.65011   0.48598   0.23783   0.00000  Uiso   1.00
N348   N     0.34989   0.51402   0.26217   0.00000  Uiso   1.00
O349   O     0.46308   0.57952   0.25298   0.00000  Uiso   1.00
O350   O     0.65950   0.52147   0.30410   0.00000  Uiso   1.00
O351   O     0.53692   0.42048   0.24701   0.00000  Uiso   1.00
O352   O     0.55946   0.57054   0.24518   0.00000  Uiso   1.00
O353   O     0.44054   0.42946   0.25481   0.00000  Uiso   1.00
O354   O     0.45181   0.50450   0.31997   0.00000  Uiso   1.00
O355   O     0.54819   0.49550   0.18002   0.00000  Uiso   1.00
O356   O     0.54819   0.49552   0.31217   0.00000  Uiso   1.00
O357   O     0.45181   0.50448   0.18782   0.00000  Uiso   1.00
O358   O     0.34209   0.47587   0.19680   0.00000  Uiso   1.00
Zn359  Zn    0.43565   0.50600   0.25521   0.00000  Uiso   1.00
Zn360  Zn    0.56435   0.49400   0.24479   0.00000  Uiso   1.00
C361   C     0.84845   0.59813   0.24955   0.00000  Uiso   1.00
C362   C     0.85372   0.54544   0.40653   0.00000  Uiso   1.00
C363   C     0.82975   0.50083   0.11626   0.00000  Uiso   1.00
C364   C     0.83571   0.49990   0.38381   0.00000  Uiso   1.00
C365   C     0.85018   0.54553   0.09393   0.00000  Uiso   1.00
C366   C     0.81387   0.45570   0.40620   0.00000  Uiso   1.00
C367   C     0.84934   0.54637   0.04746   0.00000  Uiso   1.00
C368   C     0.81113   0.45608   0.45280   0.00000  Uiso   1.00
C369   C     0.82886   0.50128   0.02361   0.00000  Uiso   1.00
C370   C     0.83055   0.50153   0.47669   0.00000  Uiso   1.00
C371   C     0.80735   0.45583   0.04679   0.00000  Uiso   1.00
C372   C     0.81826   0.40190   0.25160   0.00000  Uiso   1.00
C373   C     0.85166   0.54709   0.45350   0.00000  Uiso   1.00
C374   C     0.86905   0.59153   0.02478   0.00000  Uiso   1.00
C375   C     0.78908   0.41170   0.47554   0.00000  Uiso   1.00
C376   C     0.89000   0.64284   0.45480   0.00000  Uiso   1.00
C377   C     0.76314   0.36197   0.04567   0.00000  Uiso   1.00
C378   C     0.98427   0.42893   0.17846   0.00000  Uiso   1.00
C379   C     0.68246   0.38183   0.19231   0.00000  Uiso   1.00
C380   C     0.99370   0.66468   0.16902   0.00000  Uiso   1.00
C381   C     0.68024   0.57030   0.32131   0.00000  Uiso   1.00
C382   C     0.68233   0.56775   0.37259   0.00000  Uiso   1.00
C383   C     0.86981   0.59277   0.47784   0.00000  Uiso   1.00
C384   C     0.71115   0.61749   0.39249   0.00000  Uiso   1.00
C385   C     0.78698   0.41088   0.02252   0.00000  Uiso   1.00
C386   C     0.85642   0.65268   0.25072   0.00000  Uiso   1.00
C387   C     0.81027   0.34741   0.25266   0.00000  Uiso   1.00
C388   C     0.83428   0.50011   0.33627   0.00000  Uiso   1.00
C389   C     0.83226   0.50003   0.16373   0.00000  Uiso   1.00
C390   C     0.80753   0.45671   0.09369   0.00000  Uiso   1.00
H391   H     0.79184   0.42316   0.11312   0.00000  Uiso   1.00
H392   H     0.92891   0.63640   0.43288   0.00000  Uiso   1.00
H393   H     0.85594   0.65596   0.43405   0.00000  Uiso   1.00
H394   H     0.74988   0.66403   0.02112   0.00000  Uiso   1.00
H395   H     0.79601   0.34638   0.06624   0.00000  Uiso   1.00
H396   H     0.72504   0.37115   0.06771   0.00000  Uiso   1.00
H397   H     0.98884   0.43157   0.14114   0.00000  Uiso   1.00
H398   H     0.93827   0.42254   0.18710   0.00000  Uiso   1.00
H399   H     0.72878   0.38827   0.18283   0.00000  Uiso   1.00
H400   H     0.67657   0.37752   0.22943   0.00000  Uiso   1.00
H401   H     0.94698   0.65782   0.17624   0.00000  Uiso   1.00
H402   H     0.86858   0.57923   0.38709   0.00000  Uiso   1.00
H403   H     0.68238   0.63110   0.18142   0.00000  Uiso   1.00
H404   H     0.66905   0.33346   0.13198   0.00000  Uiso   1.00
H405   H     0.98418   0.60066   0.31291   0.00000  Uiso   1.00
H406   H     0.72344   0.58230   0.30756   0.00000  Uiso   1.00
H407   H     0.97161   0.56209   0.38792   0.00000  Uiso   1.00
H408   H     0.70645   0.53376   0.38139   0.00000  Uiso   1.00
H409   H     0.75638   0.62224   0.37924   0.00000  Uiso   1.00
H410   H     0.71055   0.61490   0.42977   0.00000  Uiso   1.00
H411   H     0.68823   0.65230   0.38392   0.00000  Uiso   1.00
H412   H     0.86663   0.57945   0.11289   0.00000  Uiso   1.00
H413   H     0.79884   0.42129   0.38718   0.00000  Uiso   1.00
H414   H     0.88395   0.62591   0.04383   0.00000  Uiso   1.00
H415   H     0.77360   0.37754   0.45650   0.00000  Uiso   1.00
H416   H     0.90004   0.33628   0.24986   0.00000  Uiso   1.00
H417   H     0.76659   0.66386   0.25421   0.00000  Uiso   1.00
H418   H     0.90060   0.34154   0.47944   0.00000  Uiso   1.00
N419   N     0.98344   0.48598   0.23783   0.00000  Uiso   1.00
N420   N     0.68322   0.51402   0.26217   0.00000  Uiso   1.00
O421   O     0.79642   0.57952   0.25298   0.00000  Uiso   1.00
O422   O     0.99283   0.52147   0.30410   0.00000  Uiso   1.00
O423   O     0.87025   0.42048   0.24701   0.00000  Uiso   1.00
O424   O     0.89280   0.57054   0.24518   0.00000  Uiso   1.00
O425   O     0.77387   0.42946   0.25481   0.00000  Uiso   1.00
O426   O     0.78514   0.50450   0.31997   0.00000  Uiso   1.00
O427   O     0.88153   0.49550   0.18002   0.00000  Uiso   1.00
O428   O     0.88152   0.49552   0.31217   0.00000  Uiso   1.00
O429   O     0.78515   0.50448   0.18782   0.00000  Uiso   1.00
O430   O     0.67542   0.47587   0.19680   0.00000  Uiso   1.00
Zn431  Zn    0.76898   0.50600   0.25521   0.00000  Uiso   1.00
Zn432  Zn    0.89769   0.49400   0.24479   0.00000  Uiso   1.00
C433   C     0.18179   0.93146   0.24955   0.00000  Uiso   1.00
C434   C     0.18705   0.87877   0.40653   0.00000  Uiso   1.00
C435   C     0.16308   0.83417   0.11626   0.00000  Uiso   1.00
C436   C     0.16904   0.83323   0.38381   0.00000  Uiso   1.00
C437   C     0.18352   0.87887   0.09393   0.00000  Uiso   1.00
C438   C     0.14721   0.78903   0.40620   0.00000  Uiso   1.00
C439   C     0.18267   0.87970   0.04746   0.00000  Uiso   1.00
C440   C     0.14447   0.78942   0.45280   0.00000  Uiso   1.00
C441   C     0.16219   0.83461   0.02361   0.00000  Uiso   1.00
C442   C     0.16389   0.83486   0.47669   0.00000  Uiso   1.00
C443   C     0.14069   0.78917   0.04679   0.00000  Uiso   1.00
C444   C     0.15159   0.73523   0.25160   0.00000  Uiso   1.00
C445   C     0.18499   0.88043   0.45350   0.00000  Uiso   1.00
C446   C     0.20238   0.92487   0.02478   0.00000  Uiso   1.00
C447   C     0.12242   0.74504   0.47554   0.00000  Uiso   1.00
C448   C     0.22333   0.97617   0.45480   0.00000  Uiso   1.00
C449   C     0.09647   0.69530   0.04567   0.00000  Uiso   1.00
C450   C     0.31760   0.76227   0.17846   0.00000  Uiso   1.00
C451   C     0.01580   0.71516   0.19231   0.00000  Uiso   1.00
C452   C     0.32703   0.99801   0.16902   0.00000  Uiso   1.00
C453   C     0.01358   0.90363   0.32131   0.00000  Uiso   1.00
C454   C     0.01566   0.90109   0.37259   0.00000  Uiso   1.00
C455   C     0.20314   0.92610   0.47784   0.00000  Uiso   1.00
C456   C     0.04449   0.95082   0.39249   0.00000  Uiso   1.00
C457   C     0.12032   0.74422   0.02252   0.00000  Uiso   1.00
C458   C     0.18975   0.98602   0.25072   0.00000  Uiso   1.00
C459   C     0.14360   0.68074   0.25266   0.00000  Uiso   1.00
C460   C     0.16761   0.83344   0.33627   0.00000  Uiso   1.00
C461   C     0.16559   0.83337   0.16373   0.00000  Uiso   1.00
C462   C     0.14086   0.79005   0.09369   0.00000  Uiso   1.00
H463   H     0.12518   0.75650   0.11312   0.00000  Uiso   1.00
H464   H     0.26224   0.96973   0.43288   0.00000  Uiso   1.00
H465   H     0.18927   0.98930   0.43405   0.00000  Uiso   1.00
H466   H     0.08321   0.99737   0.02112   0.00000  Uiso   1.00
H467   H     0.12934   0.67971   0.06624   0.00000  Uiso   1.00
H468   H     0.05838   0.70449   0.06771   0.00000  Uiso   1.00
H469   H     0.32217   0.76490   0.14114   0.00000  Uiso   1.00
H470   H     0.27160   0.75587   0.18710   0.00000  Uiso   1.00
H471   H     0.06211   0.72160   0.18283   0.00000  Uiso   1.00
H472   H     0.00991   0.71086   0.22943   0.00000  Uiso   1.00
H473   H     0.28031   0.99115   0.17624   0.00000  Uiso   1.00
H474   H     0.20191   0.91256   0.38709   0.00000  Uiso   1.00
H475   H     0.01571   0.96443   0.18142   0.00000  Uiso   1.00
H476   H     0.00238   0.66679   0.13198   0.00000  Uiso   1.00
H477   H     0.31751   0.93400   0.31291   0.00000  Uiso   1.00
H478   H     0.05677   0.91563   0.30756   0.00000  Uiso   1.00
H479   H     0.30495   0.89543   0.38792   0.00000  Uiso   1.00
H480   H     0.03979   0.86710   0.38139   0.00000  Uiso   1.00
H481   H     0.08971   0.95558   0.37924   0.00000  Uiso   1.00
H482   H     0.04388   0.94823   0.42977   0.00000  Uiso   1.00
H483   H     0.02156   0.98563   0.38392   0.00000  Uiso   1.00
H484   H     0.19996   0.91278   0.11289   0.00000  Uiso   1.00
H485   H     0.13217   0.75462   0.38718   0.00000  Uiso   1.00
H486   H     0.21729   0.95924   0.04383   0.00000  Uiso   1.00
H487   H     0.10693   0.71087   0.45650   0.00000  Uiso   1.00
H488   H     0.23338   0.66961   0.24986   0.00000  Uiso   1.00
H489   H     0.09992   0.99719   0.25421   0.00000  Uiso   1.00
H490   H     0.23393   0.67487   0.47944   0.00000  Uiso   1.00
N491   N     0.31678   0.81932   0.23783   0.00000  Uiso   1.00
N492   N     0.01656   0.84735   0.26217   0.00000  Uiso   1.00
O493   O     0.12975   0.91286   0.25298   0.00000  Uiso   1.00
O494   O     0.32617   0.85480   0.30410   0.00000  Uiso   1.00
O495   O     0.20358   0.75381   0.24701   0.00000  Uiso   1.00
O496   O     0.22613   0.90387   0.24518   0.00000  Uiso   1.00
O497   O     0.10720   0.76279   0.25481   0.00000  Uiso   1.00
O498   O     0.11847   0.83784   0.31997   0.00000  Uiso   1.00
O499   O     0.21486   0.82883   0.18002   0.00000  Uiso   1.00
O500   O     0.21485   0.82885   0.31217   0.00000  Uiso   1.00
O501   O     0.11848   0.83781   0.18782   0.00000  Uiso   1.00
O502   O     0.00875   0.80920   0.19680   0.00000  Uiso   1.00
Zn503  Zn    0.10231   0.83933   0.25521   0.00000  Uiso   1.00
Zn504  Zn    0.23102   0.82734   0.24479   0.00000  Uiso   1.00
C505   C     0.51512   0.93146   0.24955   0.00000  Uiso   1.00
C506   C     0.52039   0.87877   0.40653   0.00000  Uiso   1.00
C507   C     0.49642   0.83417   0.11626   0.00000  Uiso   1.00
C508   C     0.50238   0.83323   0.38381   0.00000  Uiso   1.00
C509   C     0.51685   0.87887   0.09393   0.00000  Uiso   1.00
C510   C     0.48054   0.78903   0.40620   0.00000  Uiso   1.00
C511   C     0.51601   0.87970   0.04746   0.00000  Uiso   1.00
C512   C     0.47780   0.78942   0.45280   0.00000  Uiso   1.00
C513   C     0.49553   0.83461   0.02361   0.00000  Uiso   1.00
C514   C     0.49722   0.83486   0.47669   0.00000  Uiso   1.00
C515   C     0.47402   0.78917   0.04679   0.00000  Uiso   1.00
C516   C     0.48493   0.73523   0.25160   0.00000  Uiso   1.00
C517   C     0.51832   0.88043   0.45350   0.00000  Uiso   1.00
C518   C     0.53571   0.92487   0.02478   0.00000  Uiso   1.00
C519   C     0.45575   0.74504   0.47554   0.00000  Uiso   1.00
C520   C     0.55666   0.97617   0.45480   0.00000  Uiso   1.00
C521   C     0.42980   0.69530   0.04567   0.00000  Uiso   1.00
C522   C     0.65094   0.76227   0.17846   0.00000  Uiso   1.00
C523   C     0.34913   0.71516   0.19231   0.00000  Uiso   1.00
C524   C     0.66037   0.99801   0.16902   0.00000  Uiso   1.00
C525   C     0.34691   0.90363   0.32131   0.00000  Uiso   1.00
C526   C     0.34899   0.90109   0.37259   0.00000  Uiso   1.00
C527   C     0.53647   0.92610   0.47784   0.00000  Uiso   1.00
C528   C     0.37782   0.95082   0.39249   0.00000  Uiso   1.00
C529   C     0.45365   0.74422   0.02252   0.00000  Uiso   1.00
C530   C     0.52308   0.98602   0.25072   0.00000  Uiso   1.00
C531   C     0.47694   0.68074   0.25266   0.00000  Uiso   1.00
C532   C     0.50095   0.83344   0.33627   0.00000  Uiso   1.00
C533   C     0.49893   0.83337   0.16373   0.00000  Uiso   1.00
C534   C     0.47419   0.79005   0.09369   0.00000  Uiso   1.00
H535   H     0.45851   0.75650   0.11312   0.00000  Uiso   1.00
H536   H     0.59557   0.96973   0.43288   0.00000  Uiso   1.00
H537   H     0.52261   0.98930   0.43405   0.00000  Uiso   1.00
H538   H     0.41654   0.99737   0.02112   0.00000  Uiso   1.00
H539   H     0.46267   0.67971   0.06624   0.00000  Uiso   1.00
H540   H     0.39171   0.70449   0.06771   0.00000  Uiso   1.00
H541   H     0.65550   0.76490   0.14114   0.00000  Uiso   1.00
H542   H     0.60493   0.75587   0.18710   0.00000  Uiso   1.00
H543   H     0.39544   0.72160   0.18283   0.00000  Uiso   1.00
H544   H     0.34324   0.71086   0.22943   0.00000  Uiso   1.00
H545   H     0.61365   0.99115   0.17624   0.00000  Uiso   1.00
H546   H     0.53524   0.91256   0.38709   0.00000  Uiso   1.00
H547   H     0.34904   0.96443   0.18142   0.00000  Uiso   1.00
H548   H     0.33571   0.66679   0.13198   0.00000  Uiso   1.00
H549   H     0.65085   0.93400   0.31291   0.00000  Uiso   1.00
H550   H     0.39010   0.91563   0.30756   0.00000  Uiso   1.00
H551   H     0.63828   0.89543   0.38792   0.00000  Uiso   1.00
H552   H     0.37312   0.86710   0.38139   0.00000  Uiso   1.00
H553   H     0.42304   0.95558   0.37924   0.00000  Uiso   1.00
H554   H     0.37722   0.94823   0.42977   0.00000  Uiso   1.00
H555   H     0.35489   0.98563   0.38392   0.00000  Uiso   1.00
H556   H     0.53329   0.91278   0.11289   0.00000  Uiso   1.00
H557   H     0.46551   0.75462   0.38718   0.00000  Uiso   1.00
H558   H     0.55062   0.95924   0.04383   0.00000  Uiso   1.00
H559   H     0.44027   0.71087   0.45650   0.00000  Uiso   1.00
H560   H     0.56671   0.66961   0.24986   0.00000  Uiso   1.00
H561   H     0.43325   0.99719   0.25421   0.00000  Uiso   1.00
H562   H     0.56726   0.67487   0.47944   0.00000  Uiso   1.00
N563   N     0.65011   0.81932   0.23783   0.00000  Uiso   1.00
N564   N     0.34989   0.84735   0.26217   0.00000  Uiso   1.00
O565   O     0.46308   0.91286   0.25298   0.00000  Uiso   1.00
O566   O     0.65950   0.85480   0.30410   0.00000  Uiso   1.00
O567   O     0.53692   0.75381   0.24701   0.00000  Uiso   1.00
O568   O     0.55946   0.90387   0.24518   0.00000  Uiso   1.00
O569   O     0.44054   0.76279   0.25481   0.00000  Uiso   1.00
O570   O     0.45181   0.83784   0.31997   0.00000  Uiso   1.00
O571   O     0.54819   0.82883   0.18002   0.00000  Uiso   1.00
O572   O     0.54819   0.82885   0.31217   0.00000  Uiso   1.00
O573   O     0.45181   0.83781   0.18782   0.00000  Uiso   1.00
O574   O     0.34209   0.80920   0.19680   0.00000  Uiso   1.00
Zn575  Zn    0.43565   0.83933   0.25521   0.00000  Uiso   1.00
Zn576  Zn    0.56435   0.82734   0.24479   0.00000  Uiso   1.00
C577   C     0.84845   0.93146   0.24955   0.00000  Uiso   1.00
C578   C     0.85372   0.87877   0.40653   0.00000  Uiso   1.00
C579   C     0.82975   0.83417   0.11626   0.00000  Uiso   1.00
C580   C     0.83571   0.83323   0.38381   0.00000  Uiso   1.00
C581   C     0.85018   0.87887   0.09393   0.00000  Uiso   1.00
C582   C     0.81387   0.78903   0.40620   0.00000  Uiso   1.00
C583   C     0.84934   0.87970   0.04746   0.00000  Uiso   1.00
C584   C     0.81113   0.78942   0.45280   0.00000  Uiso   1.00
C585   C     0.82886   0.83461   0.02361   0.00000  Uiso   1.00
C586   C     0.83055   0.83486   0.47669   0.00000  Uiso   1.00
C587   C     0.80735   0.78917   0.04679   0.00000  Uiso   1.00
C588   C     0.81826   0.73523   0.25160   0.00000  Uiso   1.00
C589   C     0.85166   0.88043   0.45350   0.00000  Uiso   1.00
C590   C     0.86905   0.92487   0.02478   0.00000  Uiso   1.00
C591   C     0.78908   0.74504   0.47554   0.00000  Uiso   1.00
C592   C     0.89000   0.97617   0.45480   0.00000  Uiso   1.00
C593   C     0.76314   0.69530   0.04567   0.00000  Uiso   1.00
C594   C     0.98427   0.76227   0.17846   0.00000  Uiso   1.00
C595   C     0.68246   0.71516   0.19231   0.00000  Uiso   1.00
C596   C     0.99370   0.99801   0.16902   0.00000  Uiso   1.00
C597   C     0.68024   0.90363   0.32131   0.00000  Uiso   1.00
C598   C     0.68233   0.90109   0.37259   0.00000  Uiso   1.00
C599   C     0.86981   0.92610   0.47784   0.00000  Uiso   1.00
C600   C     0.71115   0.95082   0.39249   0.00000  Uiso   1.00
C601   C     0.78698   0.74422   0.02252   0.00000  Uiso   1.00
C602   C     0.85642   0.98602   0.25072   0.00000  Uiso   1.00
C603   C     0.81027   0.68074   0.25266   0.00000  Uiso   1.00
C604   C     0.83428   0.83344   0.33627   0.00000  Uiso   1.00
C605   C     0.83226   0.83337   0.16373   0.00000  Uiso   1.00
C606   C     0.80753   0.79005   0.09369   0.00000  Uiso   1.00
H607   H     0.79184   0.75650   0.11312   0.00000  Uiso   1.00
H608   H     0.92891   0.96973   0.43288   0.00000  Uiso   1.00
H609   H     0.85594   0.98930   0.43405   0.00000  Uiso   1.00
H610   H     0.74988   0.99737   0.02112   0.00000  Uiso   1.00
H611   H     0.79601   0.67971   0.06624   0.00000  Uiso   1.00
H612   H     0.72504   0.70449   0.06771   0.00000  Uiso   1.00
H613   H     0.98884   0.76490   0.14114   0.00000  Uiso   1.00
H614   H     0.93827   0.75587   0.18710   0.00000  Uiso   1.00
H615   H     0.72878   0.72160   0.18283   0.00000  Uiso   1.00
H616   H     0.67657   0.71086   0.22943   0.00000  Uiso   1.00
H617   H     0.94698   0.99115   0.17624   0.00000  Uiso   1.00
H618   H     0.86858   0.91256   0.38709   0.00000  Uiso   1.00
H619   H     0.68238   0.96443   0.18142   0.00000  Uiso   1.00
H620   H     0.66905   0.66679   0.13198   0.00000  Uiso   1.00
H621   H     0.98418   0.93400   0.31291   0.00000  Uiso   1.00
H622   H     0.72344   0.91563   0.30756   0.00000  Uiso   1.00
H623   H     0.97161   0.89543   0.38792   0.00000  Uiso   1.00
H624   H     0.70645   0.86710   0.38139   0.00000  Uiso   1.00
H625   H     0.75638   0.95558   0.37924   0.00000  Uiso   1.00
H626   H     0.71055   0.94823   0.42977   0.00000  Uiso   1.00
H627   H     0.68823   0.98563   0.38392   0.00000  Uiso   1.00
H628   H     0.86663   0.91278   0.11289   0.00000  Uiso   1.00
H629   H     0.79884   0.75462   0.38718   0.00000  Uiso   1.00
H630   H     0.88395   0.95924   0.04383   0.00000  Uiso   1.00
H631   H     0.77360   0.71087   0.45650   0.00000  Uiso   1.00
H632   H     0.90004   0.66961   0.24986   0.00000  Uiso   1.00
H633   H     0.76659   0.99719   0.25421   0.00000  Uiso   1.00
H634   H     0.90060   0.67487   0.47944   0.00000  Uiso   1.00
N635   N     0.98344   0.81932   0.23783   0.00000  Uiso   1.00
N636   N     0.68322   0.84735   0.26217   0.00000  Uiso   1.00
O637   O     0.79642   0.91286   0.25298   0.00000  Uiso   1.00
O638   O     0.99283   0.85480   0.30410   0.00000  Uiso   1.00
O639   O     0.87025   0.75381   0.24701   0.00000  Uiso   1.00
O640   O     0.89280   0.90387   0.24518   0.00000  Uiso   1.00
O641   O     0.77387   0.76279   0.25481   0.00000  Uiso   1.00
O642   O     0.78514   0.83784   0.31997   0.00000  Uiso   1.00
O643   O     0.88153   0.82883   0.18002   0.00000  Uiso   1.00
O644   O     0.88152   0.82885   0.31217   0.00000  Uiso   1.00
O645   O     0.78515   0.83781   0.18782   0.00000  Uiso   1.00
O646   O     0.67542   0.80920   0.19680   0.00000  Uiso   1.00
Zn647  Zn    0.76898   0.83933   0.25521   0.00000  Uiso   1.00
Zn648  Zn    0.89769   0.82734   0.24479   0.00000  Uiso   1.00
C649   C     0.18179   0.26480   0.74955   0.00000  Uiso   1.00
C650   C     0.18705   0.21210   0.90653   0.00000  Uiso   1.00
C651   C     0.16308   0.16750   0.61626   0.00000  Uiso   1.00
C652   C     0.16904   0.16656   0.88381   0.00000  Uiso   1.00
C653   C     0.18352   0.21220   0.59393   0.00000  Uiso   1.00
C654   C     0.14721   0.12236   0.90620   0.00000  Uiso   1.00
C655   C     0.18267   0.21304   0.54746   0.00000  Uiso   1.00
C656   C     0.14447   0.12275   0.95280   0.00000  Uiso   1.00
C657   C     0.16219   0.16794   0.52361   0.00000  Uiso   1.00
C658   C     0.16389   0.16820   0.97669   0.00000  Uiso   1.00
C659   C     0.14069   0.12250   0.54679   0.00000  Uiso   1.00
C660   C     0.15159   0.06857   0.75160   0.00000  Uiso   1.00
C661   C     0.18499   0.21376   0.95350   0.00000  Uiso   1.00
C662   C     0.20238   0.25820   0.52478   0.00000  Uiso   1.00
C663   C     0.12242   0.07837   0.97554   0.00000  Uiso   1.00
C664   C     0.22333   0.30951   0.95480   0.00000  Uiso   1.00
C665   C     0.09647   0.02863   0.54567   0.00000  Uiso   1.00
C666   C     0.31760   0.09560   0.67846   0.00000  Uiso   1.00
C667   C     0.01580   0.04850   0.69231   0.00000  Uiso   1.00
C668   C     0.32703   0.33135   0.66902   0.00000  Uiso   1.00
C669   C     0.01358   0.23697   0.82131   0.00000  Uiso   1.00
C670   C     0.01566   0.23442   0.87259   0.00000  Uiso   1.00
C671   C     0.20314   0.25943   0.97784   0.00000  Uiso   1.00
C672   C     0.04449   0.28415   0.89249   0.00000  Uiso   1.00
C673   C     0.12032   0.07755   0.52252   0.00000  Uiso   1.00
C674   C     0.18975   0.31935   0.75072   0.00000  Uiso   1.00
C675   C     0.14360   0.01407   0.75266   0.00000  Uiso   1.00
C676   C     0.16761   0.16678   0.83627   0.00000  Uiso   1.00
C677   C     0.16559   0.16670   0.66373   0.00000  Uiso   1.00
C678   C     0.14086   0.12338   0.59369   0.00000  Uiso   1.00
H679   H     0.12518   0.08983   0.61312   0.00000  Uiso   1.00
H680   H     0.26224   0.30307   0.93288   0.00000  Uiso   1.00
H681   H     0.18927   0.32263   0.93405   0.00000  Uiso   1.00
H682   H     0.08321   0.33070   0.52112   0.00000  Uiso   1.00
H683   H     0.12934   0.01304   0.56624   0.00000  Uiso   1.00
H684   H     0.05838   0.03782   0.56771   0.00000  Uiso   1.00
H685   H     0.32217   0.09823   0.64114   0.00000  Uiso   1.00
H686   H     0.27160   0.08920   0.68710   0.00000  Uiso   1.00
H687   H     0.06211   0.05493   0.68283   0.00000  Uiso   1.00
H688   H     0.00991   0.04419   0.72943   0.00000  Uiso   1.00
H689   H     0.28031   0.32448   0.67624   0.00000  Uiso   1.00
H690   H     0.20191   0.24589   0.88709   0.00000  Uiso   1.00
H691   H     0.01571   0.29777   0.68142   0.00000  Uiso   1.00
H692   H     0.00238   0.00012   0.63198   0.00000  Uiso   1.00
H693   H     0.31751   0.26733   0.81291   0.00000  Uiso   1.00
H694   H     0.05677   0.24897   0.80756   0.00000  Uiso   1.00
H695   H     0.30495   0.22876   0.88792   0.00000  Uiso   1.00
H696   H     0.03979   0.20043   0.88139   0.00000  Uiso   1.00
H697   H     0.08971   0.28891   0.87924   0.00000  Uiso   1.00
H698   H     0.04388   0.28156   0.92977   0.00000  Uiso   1.00
H699   H     0.02156   0.31896   0.88392   0.00000  Uiso   1.00
H700   H     0.19996   0.24611   0.61289   0.00000  Uiso   1.00
H701   H     0.13217   0.08795   0.88718   0.00000  Uiso   1.00
H702   H     0.21729   0.29258   0.54383   0.00000  Uiso   1.00
H703   H     0.10693   0.04421   0.95650   0.00000  Uiso   1.00
H704   H     0.23338   0.00294   0.74986   0.00000  Uiso   1.00
H705   H     0.09992   0.33052   0.75421   0.00000  Uiso   1.00
H706   H     0.23393   0.00821   0.97944   0.00000  Uiso   1.00
N707   N     0.31678   0.15265   0.73783   0.00000  Uiso   1.00
N708   N     0.01656   0.18068   0.76217   0.00000  Uiso   1.00
O709   O     0.12975   0.24619   0.75298   0.00000  Uiso   1.00
O710   O     0.32617   0.18813   0.80410   0.00000  Uiso   1.00
O711   O     0.20358   0.08714   0.74701   0.00000  Uiso   1.00
O712   O     0.22613   0.23721   0.74518   0.00000  Uiso   1.00
O713   O     0.10720   0.09613   0.75481   0.00000  Uiso   1.00
O714   O     0.11847   0.17117   0.81997   0.00000  Uiso   1.00
O715   O     0.21486   0.16216   0.68002   0.00000  Uiso   1.00
O716   O     0.21485   0.16219   0.81217   0.00000  Uiso   1.00
O717   O     0.11848   0.17115   0.68782   0.00000  Uiso   1.00
O718   O     0.00875   0.14253   0.69680   0.00000  Uiso   1.00
Zn719  Zn    0.10231   0.17266   0.75521   0.00000  Uiso   1.00
Zn720  Zn    0.23102   0.16067   0.74479   0.00000  Uiso   1.00
C721   C     0.51512   0.26480   0.74955   0.00000  Uiso   1.00
C722   C     0.52039   0.21210   0.90653   0.00000  Uiso   1.00
C723   C     0.49642   0.16750   0.61626   0.00000  Uiso   1.00
C724   C     0.50238   0.16656   0.88381   0.00000  Uiso   1.00
C725   C     0.51685   0.21220   0.59393   0.00000  Uiso   1.00
C726   C     0.48054   0.12236   0.90620   0.00000  Uiso   1.00
C727   C     0.51601   0.21304   0.54746   0.00000  Uiso   1.00
C728   C     0.47780   0.12275   0.95280   0.00000  Uiso   1.00
C729   C     0.49553   0.16794   0.52361   0.00000  Uiso   1.00
C730   C     0.49722   0.16820   0.97669   0.00000  Uiso   1.00
C731   C     0.47402   0.12250   0.54679   0.00000  Uiso   1.00
C732   C     0.48493   0.06857   0.75160   0.00000  Uiso   1.00
C733   C     0.51832   0.21376   0.95350   0.00000  Uiso   1.00
C734   C     0.53571   0.25820   0.52478   0.00000  Uiso   1.00
C735   C     0.45575   0.07837   0.97554   0.00000  Uiso   1.00
C736   C     0.55666   0.30951   0.95480   0.00000  Uiso   1.00
C737   C     0.42980   0.02863   0.54567   0.00000  Uiso   1.00
C738   C     0.65094   0.09560   0.67846   0.00000  Uiso   1.00
C739   C     0.34913   0.04850   0.69231   0.00000  Uiso   1.00
C740   C     0.66037   0.33135   0.66902   0.00000  Uiso   1.00
C741   C     0.34691   0.23697   0.82131   0.00000  Uiso   1.00
C742   C     0.34899   0.23442   0.87259   0.00000  Uiso   1.00
C743   C     0.53647   0.25943   0.97784   0.00000  Uiso   1.00
C744   C     0.37782   0.28415   0.89249   0.00000  Uiso   1.00
C745   C     0.45365   0.07755   0.52252   0.00000  Uiso   1.00
C746   C     0.52308   0.31935   0.75072   0.00000  Uiso   1.00
C747   C     0.47694   0.01407   0.75266   0.00000  Uiso   1.00
C748   C     0.50095   0.16678   0.83627   0.00000  Uiso   1.00
C749   C     0.49893   0.16670   0.66373   0.00000  Uiso   1.00
C750   C     0.47419   0.12338   0.59369   0.00000  Uiso   1.00
H751   H     0.45851   0.08983   0.61312   0.00000  Uiso   1.00
H752   H     0.59557   0.30307   0.93288   0.00000  Uiso   1.00
H753   H     0.52261   0.32263   0.93405   0.00000  Uiso   1.00
H754   H     0.41654   0.33070   0.52112   0.00000  Uiso   1.00
H755   H     0.46267   0.01304   0.56624   0.00000  Uiso   1.00
H756   H     0.39171   0.03782   0.56771   0.00000  Uiso   1.00
H757   H     0.65550   0.09823   0.64114   0.00000  Uiso   1.00
H758   H     0.60493   0.08920   0.68710   0.00000  Uiso   1.00
H759   H     0.39544   0.05493   0.68283   0.00000  Uiso   1.00
H760   H     0.34324   0.04419   0.72943   0.00000  Uiso   1.00
H761   H     0.61365   0.32448   0.67624   0.00000  Uiso   1.00
H762   H     0.53524   0.24589   0.88709   0.00000  Uiso   1.00
H763   H     0.34904   0.29777   0.68142   0.00000  Uiso   1.00
H764   H     0.33571   0.00012   0.63198   0.00000  Uiso   1.00
H765   H     0.65085   0.26733   0.81291   0.00000  Uiso   1.00
H766   H     0.39010   0.24897   0.80756   0.00000  Uiso   1.00
H767   H     0.63828   0.22876   0.88792   0.00000  Uiso   1.00
H768   H     0.37312   0.20043   0.88139   0.00000  Uiso   1.00
H769   H     0.42304   0.28891   0.87924   0.00000  Uiso   1.00
H770   H     0.37722   0.28156   0.92977   0.00000  Uiso   1.00
H771   H     0.35489   0.31896   0.88392   0.00000  Uiso   1.00
H772   H     0.53329   0.24611   0.61289   0.00000  Uiso   1.00
H773   H     0.46551   0.08795   0.88718   0.00000  Uiso   1.00
H774   H     0.55062   0.29258   0.54383   0.00000  Uiso   1.00
H775   H     0.44027   0.04421   0.95650   0.00000  Uiso   1.00
H776   H     0.56671   0.00294   0.74986   0.00000  Uiso   1.00
H777   H     0.43325   0.33052   0.75421   0.00000  Uiso   1.00
H778   H     0.56726   0.00821   0.97944   0.00000  Uiso   1.00
N779   N     0.65011   0.15265   0.73783   0.00000  Uiso   1.00
N780   N     0.34989   0.18068   0.76217   0.00000  Uiso   1.00
O781   O     0.46308   0.24619   0.75298   0.00000  Uiso   1.00
O782   O     0.65950   0.18813   0.80410   0.00000  Uiso   1.00
O783   O     0.53692   0.08714   0.74701   0.00000  Uiso   1.00
O784   O     0.55946   0.23721   0.74518   0.00000  Uiso   1.00
O785   O     0.44054   0.09613   0.75481   0.00000  Uiso   1.00
O786   O     0.45181   0.17117   0.81997   0.00000  Uiso   1.00
O787   O     0.54819   0.16216   0.68002   0.00000  Uiso   1.00
O788   O     0.54819   0.16219   0.81217   0.00000  Uiso   1.00
O789   O     0.45181   0.17115   0.68782   0.00000  Uiso   1.00
O790   O     0.34209   0.14253   0.69680   0.00000  Uiso   1.00
Zn791  Zn    0.43565   0.17266   0.75521   0.00000  Uiso   1.00
Zn792  Zn    0.56435   0.16067   0.74479   0.00000  Uiso   1.00
C793   C     0.84845   0.26480   0.74955   0.00000  Uiso   1.00
C794   C     0.85372   0.21210   0.90653   0.00000  Uiso   1.00
C795   C     0.82975   0.16750   0.61626   0.00000  Uiso   1.00
C796   C     0.83571   0.16656   0.88381   0.00000  Uiso   1.00
C797   C     0.85018   0.21220   0.59393   0.00000  Uiso   1.00
C798   C     0.81387   0.12236   0.90620   0.00000  Uiso   1.00
C799   C     0.84934   0.21304   0.54746   0.00000  Uiso   1.00
C800   C     0.81113   0.12275   0.95280   0.00000  Uiso   1.00
C801   C     0.82886   0.16794   0.52361   0.00000  Uiso   1.00
C802   C     0.83055   0.16820   0.97669   0.00000  Uiso   1.00
C803   C     0.80735   0.12250   0.54679   0.00000  Uiso   1.00
C804   C     0.81826   0.06857   0.75160   0.00000  Uiso   1.00
C805   C     0.85166   0.21376   0.95350   0.00000  Uiso   1.00
C806   C     0.86905   0.25820   0.52478   0.00000  Uiso   1.00
C807   C     0.78908   0.07837   0.97554   0.00000  Uiso   1.00
C808   C     0.89000   0.30951   0.95480   0.00000  Uiso   1.00
C809   C     0.76314   0.02863   0.54567   0.00000  Uiso   1.00
C810   C     0.98427   0.09560   0.67846   0.00000  Uiso   1.00
C811   C     0.68246   0.04850   0.69231   0.00000  Uiso   1.00
C812   C     0.99370   0.33135   0.66902   0.00000  Uiso   1.00
C813   C     0.68024   0.23697   0.82131   0.00000  Uiso   1.00
C814   C     0.68233   0.23442   0.87259   0.00000  Uiso   1.00
C815   C     0.86981   0.25943   0.97784   0.00000  Uiso   1.00
C816   C     0.71115   0.28415   0.89249   0.00000  Uiso   1.00
C817   C     0.78698   0.07755   0.52252   0.00000  Uiso   1.00
C818   C     0.85642   0.31935   0.75072   0.00000  Uiso   1.00
C819   C     0.81027   0.01407   0.75266   0.00000  Uiso   1.00
C820   C     0.83428   0.16678   0.83627   0.00000  Uiso   1.00
C821   C     0.83226   0.16670   0.66373   0.00000  Uiso   1.00
C822   C     0.80753   0.12338   0.59369   0.00000  Uiso   1.00
H823   H     0.79184   0.08983   0.61312   0.00000  Uiso   1.00
H824   H     0.92891   0.30307   0.93288   0.00000  Uiso   1.00
H825   H     0.85594   0.32263   0.93405   0.00000  Uiso   1.00
H826   H     0.74988   0.33070   0.52112   0.00000  Uiso   1.00
H827   H     0.79601   0.01304   0.56624   0.00000  Uiso   1.00
H828   H     0.72504   0.03782   0.56771   0.00000  Uiso   1.00
H829   H     0.98884   0.09823   0.64114   0.00000  Uiso   1.00
H830   H     0.93827   0.08920   0.68710   0.00000  Uiso   1.00
H831   H     0.72878   0.05493   0.68283   0.00000  Uiso   1.00
H832   H     0.67657   0.04419   0.72943   0.00000  Uiso   1.00
H833   H     0.94698   0.32448   0.67624   0.00000  Uiso   1.00
H834   H     0.86858   0.24589   0.88709   0.00000  Uiso   1.00
H835   H     0.68238   0.29777   0.68142   0.00000  Uiso   1.00
H836   H     0.66905   0.00012   0.63198   0.00000  Uiso   1.00
H837   H     0.98418   0.26733   0.81291   0.00000  Uiso   1.00
H838   H     0.72344   0.24897   0.80756   0.00000  Uiso   1.00
H839   H     0.97161   0.22876   0.88792   0.00000  Uiso   1.00
H840   H     0.70645   0.20043   0.88139   0.00000  Uiso   1.00
H841   H     0.75638   0.28891   0.87924   0.00000  Uiso   1.00
H842   H     0.71055   0.28156   0.92977   0.00000  Uiso   1.00
H843   H     0.68823   0.31896   0.88392   0.00000  Uiso   1.00
H844   H     0.86663   0.24611   0.61289   0.00000  Uiso   1.00
H845   H     0.79884   0.08795   0.88718   0.00000  Uiso   1.00
H846   H     0.88395   0.29258   0.54383   0.00000  Uiso   1.00
H847   H     0.77360   0.04421   0.95650   0.00000  Uiso   1.00
H848   H     0.90004   0.00294   0.74986   0.00000  Uiso   1.00
H849   H     0.76659   0.33052   0.75421   0.00000  Uiso   1.00
H850   H     0.90060   0.00821   0.97944   0.00000  Uiso   1.00
N851   N     0.98344   0.15265   0.73783   0.00000  Uiso   1.00
N852   N     0.68322   0.18068   0.76217   0.00000  Uiso   1.00
O853   O     0.79642   0.24619   0.75298   0.00000  Uiso   1.00
O854   O     0.99283   0.18813   0.80410   0.00000  Uiso   1.00
O855   O     0.87025   0.08714   0.74701   0.00000  Uiso   1.00
O856   O     0.89280   0.23721   0.74518   0.00000  Uiso   1.00
O857   O     0.77387   0.09613   0.75481   0.00000  Uiso   1.00
O858   O     0.78514   0.17117   0.81997   0.00000  Uiso   1.00
O859   O     0.88153   0.16216   0.68002   0.00000  Uiso   1.00
O860   O     0.88152   0.16219   0.81217   0.00000  Uiso   1.00
O861   O     0.78515   0.17115   0.68782   0.00000  Uiso   1.00
O862   O     0.67542   0.14253   0.69680   0.00000  Uiso   1.00
Zn863  Zn    0.76898   0.17266   0.75521   0.00000  Uiso   1.00
Zn864  Zn    0.89769   0.16067   0.74479   0.00000  Uiso   1.00
C865   C     0.18179   0.59813   0.74955   0.00000  Uiso   1.00
C866   C     0.18705   0.54544   0.90653   0.00000  Uiso   1.00
C867   C     0.16308   0.50083   0.61626   0.00000  Uiso   1.00
C868   C     0.16904   0.49990   0.88381   0.00000  Uiso   1.00
C869   C     0.18352   0.54553   0.59393   0.00000  Uiso   1.00
C870   C     0.14721   0.45570   0.90620   0.00000  Uiso   1.00
C871   C     0.18267   0.54637   0.54746   0.00000  Uiso   1.00
C872   C     0.14447   0.45608   0.95280   0.00000  Uiso   1.00
C873   C     0.16219   0.50128   0.52361   0.00000  Uiso   1.00
C874   C     0.16389   0.50153   0.97669   0.00000  Uiso   1.00
C875   C     0.14069   0.45583   0.54679   0.00000  Uiso   1.00
C876   C     0.15159   0.40190   0.75160   0.00000  Uiso   1.00
C877   C     0.18499   0.54709   0.95350   0.00000  Uiso   1.00
C878   C     0.20238   0.59153   0.52478   0.00000  Uiso   1.00
C879   C     0.12242   0.41170   0.97554   0.00000  Uiso   1.00
C880   C     0.22333   0.64284   0.95480   0.00000  Uiso   1.00
C881   C     0.09647   0.36197   0.54567   0.00000  Uiso   1.00
C882   C     0.31760   0.42893   0.67846   0.00000  Uiso   1.00
C883   C     0.01580   0.38183   0.69231   0.00000  Uiso   1.00
C884   C     0.32703   0.66468   0.66902   0.00000  Uiso   1.00
C885   C     0.01358   0.57030   0.82131   0.00000  Uiso   1.00
C886   C     0.01566   0.56775   0.87259   0.00000  Uiso   1.00
C887   C     0.20314   0.59277   0.97784   0.00000  Uiso   1.00
C888   C     0.04449   0.61749   0.89249   0.00000  Uiso   1.00
C889   C     0.12032   0.41088   0.52252   0.00000  Uiso   1.00
C890   C     0.18975   0.65268   0.75072   0.00000  Uiso   1.00
C891   C     0.14360   0.34741   0.75266   0.00000  Uiso   1.00
C892   C     0.16761   0.50011   0.83627   0.00000  Uiso   1.00
C893   C     0.16559   0.50003   0.66373   0.00000  Uiso   1.00
C894   C     0.14086   0.45671   0.59369   0.00000  Uiso   1.00
H895   H     0.12518   0.42316   0.61312   0.00000  Uiso   1.00
H896   H     0.26224   0.63640   0.93288   0.00000  Uiso   1.00
H897   H     0.18927   0.65596   0.93405   0.00000  Uiso   1.00
H898   H     0.08321   0.66403   0.52112   0.00000  Uiso   1.00
H899   H     0.12934   0.34638   0.56624   0.00000  Uiso   1.00
H900   H     0.05838   0.37115   0.56771   0.00000  Uiso   1.00
H901   H     0.32217   0.43157   0.64114   0.00000  Uiso   1.00
H902   H     0.27160   0.42254   0.68710   0.00000  Uiso   1.00
H903   H     0.06211   0.38827   0.68283   0.00000  Uiso   1.00
H904   H     0.00991   0.37752   0.72943   0.00000  Uiso   1.00
H905   H     0.28031   0.65782   0.67624   0.00000  Uiso   1.00
H906   H     0.20191   0.57923   0.88709   0.00000  Uiso   1.00
H907   H     0.01571   0.63110   0.68142   0.00000  Uiso   1.00
H908   H     0.00238   0.33346   0.63198   0.00000  Uiso   1.00
H909   H     0.31751   0.60066   0.81291   0.00000  Uiso   1.00
H910   H     0.05677   0.58230   0.80756   0.00000  Uiso   1.00
H911   H     0.30495   0.56209   0.88792   0.00000  Uiso   1.00
H912   H     0.03979   0.53376   0.88139   0.00000  Uiso   1.00
H913   H     0.08971   0.62224   0.87924   0.00000  Uiso   1.00
H914   H     0.04388   0.61490   0.92977   0.00000  Uiso   1.00
H915   H     0.02156   0.65230   0.88392   0.00000  Uiso   1.00
H916   H     0.19996   0.57945   0.61289   0.00000  Uiso   1.00
H917   H     0.13217   0.42129   0.88718   0.00000  Uiso   1.00
H918   H     0.21729   0.62591   0.54383   0.00000  Uiso   1.00
H919   H     0.10693   0.37754   0.95650   0.00000  Uiso   1.00
H920   H     0.23338   0.33628   0.74986   0.00000  Uiso   1.00
H921   H     0.09992   0.66386   0.75421   0.00000  Uiso   1.00
H922   H     0.23393   0.34154   0.97944   0.00000  Uiso   1.00
N923   N     0.31678   0.48598   0.73783   0.00000  Uiso   1.00
N924   N     0.01656   0.51402   0.76217   0.00000  Uiso   1.00
O925   O     0.12975   0.57952   0.75298   0.00000  Uiso   1.00
O926   O     0.32617   0.52147   0.80410   0.00000  Uiso   1.00
O927   O     0.20358   0.42048   0.74701   0.00000  Uiso   1.00
O928   O     0.22613   0.57054   0.74518   0.00000  Uiso   1.00
O929   O     0.10720   0.42946   0.75481   0.00000  Uiso   1.00
O930   O     0.11847   0.50450   0.81997   0.00000  Uiso   1.00
O931   O     0.21486   0.49550   0.68002   0.00000  Uiso   1.00
O932   O     0.21485   0.49552   0.81217   0.00000  Uiso   1.00
O933   O     0.11848   0.50448   0.68782   0.00000  Uiso   1.00
O934   O     0.00875   0.47587   0.69680   0.00000  Uiso   1.00
Zn935  Zn    0.10231   0.50600   0.75521   0.00000  Uiso   1.00
Zn936  Zn    0.23102   0.49400   0.74479   0.00000  Uiso   1.00
C937   C     0.51512   0.59813   0.74955   0.00000  Uiso   1.00
C938   C     0.52039   0.54544   0.90653   0.00000  Uiso   1.00
C939   C     0.49642   0.50083   0.61626   0.00000  Uiso   1.00
C940   C     0.50238   0.49990   0.88381   0.00000  Uiso   1.00
C941   C     0.51685   0.54553   0.59393   0.00000  Uiso   1.00
C942   C     0.48054   0.45570   0.90620   0.00000  Uiso   1.00
C943   C     0.51601   0.54637   0.54746   0.00000  Uiso   1.00
C944   C     0.47780   0.45608   0.95280   0.00000  Uiso   1.00
C945   C     0.49553   0.50128   0.52361   0.00000  Uiso   1.00
C946   C     0.49722   0.50153   0.97669   0.00000  Uiso   1.00
C947   C     0.47402   0.45583   0.54679   0.00000  Uiso   1.00
C948   C     0.48493   0.40190   0.75160   0.00000  Uiso   1.00
C949   C     0.51832   0.54709   0.95350   0.00000  Uiso   1.00
C950   C     0.53571   0.59153   0.52478   0.00000  Uiso   1.00
C951   C     0.45575   0.41170   0.97554   0.00000  Uiso   1.00
C952   C     0.55666   0.64284   0.95480   0.00000  Uiso   1.00
C953   C     0.42980   0.36197   0.54567   0.00000  Uiso   1.00
C954   C     0.65094   0.42893   0.67846   0.00000  Uiso   1.00
C955   C     0.34913   0.38183   0.69231   0.00000  Uiso   1.00
C956   C     0.66037   0.66468   0.66902   0.00000  Uiso   1.00
C957   C     0.34691   0.57030   0.82131   0.00000  Uiso   1.00
C958   C     0.34899   0.56775   0.87259   0.00000  Uiso   1.00
C959   C     0.53647   0.59277   0.97784   0.00000  Uiso   1.00
C960   C     0.37782   0.61749   0.89249   0.00000  Uiso   1.00
C961   C     0.45365   0.41088   0.52252   0.00000  Uiso   1.00
C962   C     0.52308   0.65268   0.75072   0.00000  Uiso   1.00
C963   C     0.47694   0.34741   0.75266   0.00000  Uiso   1.00
C964   C     0.50095   0.50011   0.83627   0.00000  Uiso   1.00
C965   C     0.49893   0.50003   0.66373   0.00000  Uiso   1.00
C966   C     0.47419   0.45671   0.59369   0.00000  Uiso   1.00
H967   H     0.45851   0.42316   0.61312   0.00000  Uiso   1.00
H968   H     0.59557   0.63640   0.93288   0.00000  Uiso   1.00
H969   H     0.52261   0.65596   0.93405   0.00000  Uiso   1.00
H970   H     0.41654   0.66403   0.52112   0.00000  Uiso   1.00
H971   H     0.46267   0.34638   0.56624   0.00000  Uiso   1.00
H972   H     0.39171   0.37115   0.56771   0.00000  Uiso   1.00
H973   H     0.65550   0.43157   0.64114   0.00000  Uiso   1.00
H974   H     0.60493   0.42254   0.68710   0.00000  Uiso   1.00
H975   H     0.39544   0.38827   0.68283   0.00000  Uiso   1.00
H976   H     0.34324   0.37752   0.72943   0.00000  Uiso   1.00
H977   H     0.61365   0.65782   0.67624   0.00000  Uiso   1.00
H978   H     0.53524   0.57923   0.88709   0.00000  Uiso   1.00
H979   H     0.34904   0.63110   0.68142   0.00000  Uiso   1.00
H980   H     0.33571   0.33346   0.63198   0.00000  Uiso   1.00
H981   H     0.65085   0.60066   0.81291   0.00000  Uiso   1.00
H982   H     0.39010   0.58230   0.80756   0.00000  Uiso   1.00
H983   H     0.63828   0.56209   0.88792   0.00000  Uiso   1.00
H984   H     0.37312   0.53376   0.88139   0.00000  Uiso   1.00
H985   H     0.42304   0.62224   0.87924   0.00000  Uiso   1.00
H986   H     0.37722   0.61490   0.92977   0.00000  Uiso   1.00
H987   H     0.35489   0.65230   0.88392   0.00000  Uiso   1.00
H988   H     0.53329   0.57945   0.61289   0.00000  Uiso   1.00
H989   H     0.46551   0.42129   0.88718   0.00000  Uiso   1.00
H990   H     0.55062   0.62591   0.54383   0.00000  Uiso   1.00
H991   H     0.44027   0.37754   0.95650   0.00000  Uiso   1.00
H992   H     0.56671   0.33628   0.74986   0.00000  Uiso   1.00
H993   H     0.43325   0.66386   0.75421   0.00000  Uiso   1.00
H994   H     0.56726   0.34154   0.97944   0.00000  Uiso   1.00
N995   N     0.65011   0.48598   0.73783   0.00000  Uiso   1.00
N996   N     0.34989   0.51402   0.76217   0.00000  Uiso   1.00
O997   O     0.46308   0.57952   0.75298   0.00000  Uiso   1.00
O998   O     0.65950   0.52147   0.80410   0.00000  Uiso   1.00
O999   O     0.53692   0.42048   0.74701   0.00000  Uiso   1.00
O1000  O     0.55946   0.57054   0.74518   0.00000  Uiso   1.00
O1001  O     0.44054   0.42946   0.75481   0.00000  Uiso   1.00
O1002  O     0.45181   0.50450   0.81997   0.00000  Uiso   1.00
O1003  O     0.54819   0.49550   0.68002   0.00000  Uiso   1.00
O1004  O     0.54819   0.49552   0.81217   0.00000  Uiso   1.00
O1005  O     0.45181   0.50448   0.68782   0.00000  Uiso   1.00
O1006  O     0.34209   0.47587   0.69680   0.00000  Uiso   1.00
Zn1007 Zn    0.43565   0.50600   0.75521   0.00000  Uiso   1.00
Zn1008 Zn    0.56435   0.49400   0.74479   0.00000  Uiso   1.00
C1009  C     0.84845   0.59813   0.74955   0.00000  Uiso   1.00
C1010  C     0.85372   0.54544   0.90653   0.00000  Uiso   1.00
C1011  C     0.82975   0.50083   0.61626   0.00000  Uiso   1.00
C1012  C     0.83571   0.49990   0.88381   0.00000  Uiso   1.00
C1013  C     0.85018   0.54553   0.59393   0.00000  Uiso   1.00
C1014  C     0.81387   0.45570   0.90620   0.00000  Uiso   1.00
C1015  C     0.84934   0.54637   0.54746   0.00000  Uiso   1.00
C1016  C     0.81113   0.45608   0.95280   0.00000  Uiso   1.00
C1017  C     0.82886   0.50128   0.52361   0.00000  Uiso   1.00
C1018  C     0.83055   0.50153   0.97669   0.00000  Uiso   1.00
C1019  C     0.80735   0.45583   0.54679   0.00000  Uiso   1.00
C1020  C     0.81826   0.40190   0.75160   0.00000  Uiso   1.00
C1021  C     0.85166   0.54709   0.95350   0.00000  Uiso   1.00
C1022  C     0.86905   0.59153   0.52478   0.00000  Uiso   1.00
C1023  C     0.78908   0.41170   0.97554   0.00000  Uiso   1.00
C1024  C     0.89000   0.64284   0.95480   0.00000  Uiso   1.00
C1025  C     0.76314   0.36197   0.54567   0.00000  Uiso   1.00
C1026  C     0.98427   0.42893   0.67846   0.00000  Uiso   1.00
C1027  C     0.68246   0.38183   0.69231   0.00000  Uiso   1.00
C1028  C     0.99370   0.66468   0.66902   0.00000  Uiso   1.00
C1029  C     0.68024   0.57030   0.82131   0.00000  Uiso   1.00
C1030  C     0.68233   0.56775   0.87259   0.00000  Uiso   1.00
C1031  C     0.86981   0.59277   0.97784   0.00000  Uiso   1.00
C1032  C     0.71115   0.61749   0.89249   0.00000  Uiso   1.00
C1033  C     0.78698   0.41088   0.52252   0.00000  Uiso   1.00
C1034  C     0.85642   0.65268   0.75072   0.00000  Uiso   1.00
C1035  C     0.81027   0.34741   0.75266   0.00000  Uiso   1.00
C1036  C     0.83428   0.50011   0.83627   0.00000  Uiso   1.00
C1037  C     0.83226   0.50003   0.66373   0.00000  Uiso   1.00
C1038  C     0.80753   0.45671   0.59369   0.00000  Uiso   1.00
H1039  H     0.79184   0.42316   0.61312   0.00000  Uiso   1.00
H1040  H     0.92891   0.63640   0.93288   0.00000  Uiso   1.00
H1041  H     0.85594   0.65596   0.93405   0.00000  Uiso   1.00
H1042  H     0.74988   0.66403   0.52112   0.00000  Uiso   1.00
H1043  H     0.79601   0.34638   0.56624   0.00000  Uiso   1.00
H1044  H     0.72504   0.37115   0.56771   0.00000  Uiso   1.00
H1045  H     0.98884   0.43157   0.64114   0.00000  Uiso   1.00
H1046  H     0.93827   0.42254   0.68710   0.00000  Uiso   1.00
H1047  H     0.72878   0.38827   0.68283   0.00000  Uiso   1.00
H1048  H     0.67657   0.37752   0.72943   0.00000  Uiso   1.00
H1049  H     0.94698   0.65782   0.67624   0.00000  Uiso   1.00
H1050  H     0.86858   0.57923   0.88709   0.00000  Uiso   1.00
H1051  H     0.68238   0.63110   0.68142   0.00000  Uiso   1.00
H1052  H     0.66905   0.33346   0.63198   0.00000  Uiso   1.00
H1053  H     0.98418   0.60066   0.81291   0.00000  Uiso   1.00
H1054  H     0.72344   0.58230   0.80756   0.00000  Uiso   1.00
H1055  H     0.97161   0.56209   0.88792   0.00000  Uiso   1.00
H1056  H     0.70645   0.53376   0.88139   0.00000  Uiso   1.00
H1057  H     0.75638   0.62224   0.87924   0.00000  Uiso   1.00
H1058  H     0.71055   0.61490   0.92977   0.00000  Uiso   1.00
H1059  H     0.68823   0.65230   0.88392   0.00000  Uiso   1.00
H1060  H     0.86663   0.57945   0.61289   0.00000  Uiso   1.00
H1061  H     0.79884   0.42129   0.88718   0.00000  Uiso   1.00
H1062  H     0.88395   0.62591   0.54383   0.00000  Uiso   1.00
H1063  H     0.77360   0.37754   0.95650   0.00000  Uiso   1.00
H1064  H     0.90004   0.33628   0.74986   0.00000  Uiso   1.00
H1065  H     0.76659   0.66386   0.75421   0.00000  Uiso   1.00
H1066  H     0.90060   0.34154   0.97944   0.00000  Uiso   1.00
N1067  N     0.98344   0.48598   0.73783   0.00000  Uiso   1.00
N1068  N     0.68322   0.51402   0.76217   0.00000  Uiso   1.00
O1069  O     0.79642   0.57952   0.75298   0.00000  Uiso   1.00
O1070  O     0.99283   0.52147   0.80410   0.00000  Uiso   1.00
O1071  O     0.87025   0.42048   0.74701   0.00000  Uiso   1.00
O1072  O     0.89280   0.57054   0.74518   0.00000  Uiso   1.00
O1073  O     0.77387   0.42946   0.75481   0.00000  Uiso   1.00
O1074  O     0.78514   0.50450   0.81997   0.00000  Uiso   1.00
O1075  O     0.88153   0.49550   0.68002   0.00000  Uiso   1.00
O1076  O     0.88152   0.49552   0.81217   0.00000  Uiso   1.00
O1077  O     0.78515   0.50448   0.68782   0.00000  Uiso   1.00
O1078  O     0.67542   0.47587   0.69680   0.00000  Uiso   1.00
Zn1079 Zn    0.76898   0.50600   0.75521   0.00000  Uiso   1.00
Zn1080 Zn    0.89769   0.49400   0.74479   0.00000  Uiso   1.00
C1081  C     0.18179   0.93146   0.74955   0.00000  Uiso   1.00
C1082  C     0.18705   0.87877   0.90653   0.00000  Uiso   1.00
C1083  C     0.16308   0.83417   0.61626   0.00000  Uiso   1.00
C1084  C     0.16904   0.83323   0.88381   0.00000  Uiso   1.00
C1085  C     0.18352   0.87887   0.59393   0.00000  Uiso   1.00
C1086  C     0.14721   0.78903   0.90620   0.00000  Uiso   1.00
C1087  C     0.18267   0.87970   0.54746   0.00000  Uiso   1.00
C1088  C     0.14447   0.78942   0.95280   0.00000  Uiso   1.00
C1089  C     0.16219   0.83461   0.52361   0.00000  Uiso   1.00
C1090  C     0.16389   0.83486   0.97669   0.00000  Uiso   1.00
C1091  C     0.14069   0.78917   0.54679   0.00000  Uiso   1.00
C1092  C     0.15159   0.73523   0.75160   0.00000  Uiso   1.00
C1093  C     0.18499   0.88043   0.95350   0.00000  Uiso   1.00
C1094  C     0.20238   0.92487   0.52478   0.00000  Uiso   1.00
C1095  C     0.12242   0.74504   0.97554   0.00000  Uiso   1.00
C1096  C     0.22333   0.97617   0.95480   0.00000  Uiso   1.00
C1097  C     0.09647   0.69530   0.54567   0.00000  Uiso   1.00
C1098  C     0.31760   0.76227   0.67846   0.00000  Uiso   1.00
C1099  C     0.01580   0.71516   0.69231   0.00000  Uiso   1.00
C1100  C     0.32703   0.99801   0.66902   0.00000  Uiso   1.00
C1101  C     0.01358   0.90363   0.82131   0.00000  Uiso   1.00
C1102  C     0.01566   0.90109   0.87259   0.00000  Uiso   1.00
C1103  C     0.20314   0.92610   0.97784   0.00000  Uiso   1.00
C1104  C     0.04449   0.95082   0.89249   0.00000  Uiso   1.00
C1105  C     0.12032   0.74422   0.52252   0.00000  Uiso   1.00
C1106  C     0.18975   0.98602   0.75072   0.00000  Uiso   1.00
C1107  C     0.14360   0.68074   0.75266   0.00000  Uiso   1.00
C1108  C     0.16761   0.83344   0.83627   0.00000  Uiso   1.00
C1109  C     0.16559   0.83337   0.66373   0.00000  Uiso   1.00
C1110  C     0.14086   0.79005   0.59369   0.00000  Uiso   1.00
H1111  H     0.12518   0.75650   0.61312   0.00000  Uiso   1.00
H1112  H     0.26224   0.96973   0.93288   0.00000  Uiso   1.00
H1113  H     0.18927   0.98930   0.93405   0.00000  Uiso   1.00
H1114  H     0.08321   0.99737   0.52112   0.00000  Uiso   1.00
H1115  H     0.12934   0.67971   0.56624   0.00000  Uiso   1.00
H1116  H     0.05838   0.70449   0.56771   0.00000  Uiso   1.00
H1117  H     0.32217   0.76490   0.64114   0.00000  Uiso   1.00
H1118  H     0.27160   0.75587   0.68710   0.00000  Uiso   1.00
H1119  H     0.06211   0.72160   0.68283   0.00000  Uiso   1.00
H1120  H     0.00991   0.71086   0.72943   0.00000  Uiso   1.00
H1121  H     0.28031   0.99115   0.67624   0.00000  Uiso   1.00
H1122  H     0.20191   0.91256   0.88709   0.00000  Uiso   1.00
H1123  H     0.01571   0.96443   0.68142   0.00000  Uiso   1.00
H1124  H     0.00238   0.66679   0.63198   0.00000  Uiso   1.00
H1125  H     0.31751   0.93400   0.81291   0.00000  Uiso   1.00
H1126  H     0.05677   0.91563   0.80756   0.00000  Uiso   1.00
H1127  H     0.30495   0.89543   0.88792   0.00000  Uiso   1.00
H1128  H     0.03979   0.86710   0.88139   0.00000  Uiso   1.00
H1129  H     0.08971   0.95558   0.87924   0.00000  Uiso   1.00
H1130  H     0.04388   0.94823   0.92977   0.00000  Uiso   1.00
H1131  H     0.02156   0.98563   0.88392   0.00000  Uiso   1.00
H1132  H     0.19996   0.91278   0.61289   0.00000  Uiso   1.00
H1133  H     0.13217   0.75462   0.88718   0.00000  Uiso   1.00
H1134  H     0.21729   0.95924   0.54383   0.00000  Uiso   1.00
H1135  H     0.10693   0.71087   0.95650   0.00000  Uiso   1.00
H1136  H     0.23338   0.66961   0.74986   0.00000  Uiso   1.00
H1137  H     0.09992   0.99719   0.75421   0.00000  Uiso   1.00
H1138  H     0.23393   0.67487   0.97944   0.00000  Uiso   1.00
N1139  N     0.31678   0.81932   0.73783   0.00000  Uiso   1.00
N1140  N     0.01656   0.84735   0.76217   0.00000  Uiso   1.00
O1141  O     0.12975   0.91286   0.75298   0.00000  Uiso   1.00
O1142  O     0.32617   0.85480   0.80410   0.00000  Uiso   1.00
O1143  O     0.20358   0.75381   0.74701   0.00000  Uiso   1.00
O1144  O     0.22613   0.90387   0.74518   0.00000  Uiso   1.00
O1145  O     0.10720   0.76279   0.75481   0.00000  Uiso   1.00
O1146  O     0.11847   0.83784   0.81997   0.00000  Uiso   1.00
O1147  O     0.21486   0.82883   0.68002   0.00000  Uiso   1.00
O1148  O     0.21485   0.82885   0.81217   0.00000  Uiso   1.00
O1149  O     0.11848   0.83781   0.68782   0.00000  Uiso   1.00
O1150  O     0.00875   0.80920   0.69680   0.00000  Uiso   1.00
Zn1151 Zn    0.10231   0.83933   0.75521   0.00000  Uiso   1.00
Zn1152 Zn    0.23102   0.82734   0.74479   0.00000  Uiso   1.00
C1153  C     0.51512   0.93146   0.74955   0.00000  Uiso   1.00
C1154  C     0.52039   0.87877   0.90653   0.00000  Uiso   1.00
C1155  C     0.49642   0.83417   0.61626   0.00000  Uiso   1.00
C1156  C     0.50238   0.83323   0.88381   0.00000  Uiso   1.00
C1157  C     0.51685   0.87887   0.59393   0.00000  Uiso   1.00
C1158  C     0.48054   0.78903   0.90620   0.00000  Uiso   1.00
C1159  C     0.51601   0.87970   0.54746   0.00000  Uiso   1.00
C1160  C     0.47780   0.78942   0.95280   0.00000  Uiso   1.00
C1161  C     0.49553   0.83461   0.52361   0.00000  Uiso   1.00
C1162  C     0.49722   0.83486   0.97669   0.00000  Uiso   1.00
C1163  C     0.47402   0.78917   0.54679   0.00000  Uiso   1.00
C1164  C     0.48493   0.73523   0.75160   0.00000  Uiso   1.00
C1165  C     0.51832   0.88043   0.95350   0.00000  Uiso   1.00
C1166  C     0.53571   0.92487   0.52478   0.00000  Uiso   1.00
C1167  C     0.45575   0.74504   0.97554   0.00000  Uiso   1.00
C1168  C     0.55666   0.97617   0.95480   0.00000  Uiso   1.00
C1169  C     0.42980   0.69530   0.54567   0.00000  Uiso   1.00
C1170  C     0.65094   0.76227   0.67846   0.00000  Uiso   1.00
C1171  C     0.34913   0.71516   0.69231   0.00000  Uiso   1.00
C1172  C     0.66037   0.99801   0.66902   0.00000  Uiso   1.00
C1173  C     0.34691   0.90363   0.82131   0.00000  Uiso   1.00
C1174  C     0.34899   0.90109   0.87259   0.00000  Uiso   1.00
C1175  C     0.53647   0.92610   0.97784   0.00000  Uiso   1.00
C1176  C     0.37782   0.95082   0.89249   0.00000  Uiso   1.00
C1177  C     0.45365   0.74422   0.52252   0.00000  Uiso   1.00
C1178  C     0.52308   0.98602   0.75072   0.00000  Uiso   1.00
C1179  C     0.47694   0.68074   0.75266   0.00000  Uiso   1.00
C1180  C     0.50095   0.83344   0.83627   0.00000  Uiso   1.00
C1181  C     0.49893   0.83337   0.66373   0.00000  Uiso   1.00
C1182  C     0.47419   0.79005   0.59369   0.00000  Uiso   1.00
H1183  H     0.45851   0.75650   0.61312   0.00000  Uiso   1.00
H1184  H     0.59557   0.96973   0.93288   0.00000  Uiso   1.00
H1185  H     0.52261   0.98930   0.93405   0.00000  Uiso   1.00
H1186  H     0.41654   0.99737   0.52112   0.00000  Uiso   1.00
H1187  H     0.46267   0.67971   0.56624   0.00000  Uiso   1.00
H1188  H     0.39171   0.70449   0.56771   0.00000  Uiso   1.00
H1189  H     0.65550   0.76490   0.64114   0.00000  Uiso   1.00
H1190  H     0.60493   0.75587   0.68710   0.00000  Uiso   1.00
H1191  H     0.39544   0.72160   0.68283   0.00000  Uiso   1.00
H1192  H     0.34324   0.71086   0.72943   0.00000  Uiso   1.00
H1193  H     0.61365   0.99115   0.67624   0.00000  Uiso   1.00
H1194  H     0.53524   0.91256   0.88709   0.00000  Uiso   1.00
H1195  H     0.34904   0.96443   0.68142   0.00000  Uiso   1.00
H1196  H     0.33571   0.66679   0.63198   0.00000  Uiso   1.00
H1197  H     0.65085   0.93400   0.81291   0.00000  Uiso   1.00
H1198  H     0.39010   0.91563   0.80756   0.00000  Uiso   1.00
H1199  H     0.63828   0.89543   0.88792   0.00000  Uiso   1.00
H1200  H     0.37312   0.86710   0.88139   0.00000  Uiso   1.00
H1201  H     0.42304   0.95558   0.87924   0.00000  Uiso   1.00
H1202  H     0.37722   0.94823   0.92977   0.00000  Uiso   1.00
H1203  H     0.35489   0.98563   0.88392   0.00000  Uiso   1.00
H1204  H     0.53329   0.91278   0.61289   0.00000  Uiso   1.00
H1205  H     0.46551   0.75462   0.88718   0.00000  Uiso   1.00
H1206  H     0.55062   0.95924   0.54383   0.00000  Uiso   1.00
H1207  H     0.44027   0.71087   0.95650   0.00000  Uiso   1.00
H1208  H     0.56671   0.66961   0.74986   0.00000  Uiso   1.00
H1209  H     0.43325   0.99719   0.75421   0.00000  Uiso   1.00
H1210  H     0.56726   0.67487   0.97944   0.00000  Uiso   1.00
N1211  N     0.65011   0.81932   0.73783   0.00000  Uiso   1.00
N1212  N     0.34989   0.84735   0.76217   0.00000  Uiso   1.00
O1213  O     0.46308   0.91286   0.75298   0.00000  Uiso   1.00
O1214  O     0.65950   0.85480   0.80410   0.00000  Uiso   1.00
O1215  O     0.53692   0.75381   0.74701   0.00000  Uiso   1.00
O1216  O     0.55946   0.90387   0.74518   0.00000  Uiso   1.00
O1217  O     0.44054   0.76279   0.75481   0.00000  Uiso   1.00
O1218  O     0.45181   0.83784   0.81997   0.00000  Uiso   1.00
O1219  O     0.54819   0.82883   0.68002   0.00000  Uiso   1.00
O1220  O     0.54819   0.82885   0.81217   0.00000  Uiso   1.00
O1221  O     0.45181   0.83781   0.68782   0.00000  Uiso   1.00
O1222  O     0.34209   0.80920   0.69680   0.00000  Uiso   1.00
Zn1223 Zn    0.43565   0.83933   0.75521   0.00000  Uiso   1.00
Zn1224 Zn    0.56435   0.82734   0.74479   0.00000  Uiso   1.00
C1225  C     0.84845   0.93146   0.74955   0.00000  Uiso   1.00
C1226  C     0.85372   0.87877   0.90653   0.00000  Uiso   1.00
C1227  C     0.82975   0.83417   0.61626   0.00000  Uiso   1.00
C1228  C     0.83571   0.83323   0.88381   0.00000  Uiso   1.00
C1229  C     0.85018   0.87887   0.59393   0.00000  Uiso   1.00
C1230  C     0.81387   0.78903   0.90620   0.00000  Uiso   1.00
C1231  C     0.84934   0.87970   0.54746   0.00000  Uiso   1.00
C1232  C     0.81113   0.78942   0.95280   0.00000  Uiso   1.00
C1233  C     0.82886   0.83461   0.52361   0.00000  Uiso   1.00
C1234  C     0.83055   0.83486   0.97669   0.00000  Uiso   1.00
C1235  C     0.80735   0.78917   0.54679   0.00000  Uiso   1.00
C1236  C     0.81826   0.73523   0.75160   0.00000  Uiso   1.00
C1237  C     0.85166   0.88043   0.95350   0.00000  Uiso   1.00
C1238  C     0.86905   0.92487   0.52478   0.00000  Uiso   1.00
C1239  C     0.78908   0.74504   0.97554   0.00000  Uiso   1.00
C1240  C     0.89000   0.97617   0.95480   0.00000  Uiso   1.00
C1241  C     0.76314   0.69530   0.54567   0.00000  Uiso   1.00
C1242  C     0.98427   0.76227   0.67846   0.00000  Uiso   1.00
C1243  C     0.68246   0.71516   0.69231   0.00000  Uiso   1.00
C1244  C     0.99370   0.99801   0.66902   0.00000  Uiso   1.00
C1245  C     0.68024   0.90363   0.82131   0.00000  Uiso   1.00
C1246  C     0.68233   0.90109   0.87259   0.00000  Uiso   1.00
C1247  C     0.86981   0.92610   0.97784   0.00000  Uiso   1.00
C1248  C     0.71115   0.95082   0.89249   0.00000  Uiso   1.00
C1249  C     0.78698   0.74422   0.52252   0.00000  Uiso   1.00
C1250  C     0.85642   0.98602   0.75072   0.00000  Uiso   1.00
C1251  C     0.81027   0.68074   0.75266   0.00000  Uiso   1.00
C1252  C     0.83428   0.83344   0.83627   0.00000  Uiso   1.00
C1253  C     0.83226   0.83337   0.66373   0.00000  Uiso   1.00
C1254  C     0.80753   0.79005   0.59369   0.00000  Uiso   1.00
H1255  H     0.79184   0.75650   0.61312   0.00000  Uiso   1.00
H1256  H     0.92891   0.96973   0.93288   0.00000  Uiso   1.00
H1257  H     0.85594   0.98930   0.93405   0.00000  Uiso   1.00
H1258  H     0.74988   0.99737   0.52112   0.00000  Uiso   1.00
H1259  H     0.79601   0.67971   0.56624   0.00000  Uiso   1.00
H1260  H     0.72504   0.70449   0.56771   0.00000  Uiso   1.00
H1261  H     0.98884   0.76490   0.64114   0.00000  Uiso   1.00
H1262  H     0.93827   0.75587   0.68710   0.00000  Uiso   1.00
H1263  H     0.72878   0.72160   0.68283   0.00000  Uiso   1.00
H1264  H     0.67657   0.71086   0.72943   0.00000  Uiso   1.00
H1265  H     0.94698   0.99115   0.67624   0.00000  Uiso   1.00
H1266  H     0.86858   0.91256   0.88709   0.00000  Uiso   1.00
H1267  H     0.68238   0.96443   0.68142   0.00000  Uiso   1.00
H1268  H     0.66905   0.66679   0.63198   0.00000  Uiso   1.00
H1269  H     0.98418   0.93400   0.81291   0.00000  Uiso   1.00
H1270  H     0.72344   0.91563   0.80756   0.00000  Uiso   1.00
H1271  H     0.97161   0.89543   0.88792   0.00000  Uiso   1.00
H1272  H     0.70645   0.86710   0.88139   0.00000  Uiso   1.00
H1273  H     0.75638   0.95558   0.87924   0.00000  Uiso   1.00
H1274  H     0.71055   0.94823   0.92977   0.00000  Uiso   1.00
H1275  H     0.68823   0.98563   0.88392   0.00000  Uiso   1.00
H1276  H     0.86663   0.91278   0.61289   0.00000  Uiso   1.00
H1277  H     0.79884   0.75462   0.88718   0.00000  Uiso   1.00
H1278  H     0.88395   0.95924   0.54383   0.00000  Uiso   1.00
H1279  H     0.77360   0.71087   0.95650   0.00000  Uiso   1.00
H1280  H     0.90004   0.66961   0.74986   0.00000  Uiso   1.00
H1281  H     0.76659   0.99719   0.75421   0.00000  Uiso   1.00
H1282  H     0.90060   0.67487   0.97944   0.00000  Uiso   1.00
N1283  N     0.98344   0.81932   0.73783   0.00000  Uiso   1.00
N1284  N     0.68322   0.84735   0.76217   0.00000  Uiso   1.00
O1285  O     0.79642   0.91286   0.75298   0.00000  Uiso   1.00
O1286  O     0.99283   0.85480   0.80410   0.00000  Uiso   1.00
O1287  O     0.87025   0.75381   0.74701   0.00000  Uiso   1.00
O1288  O     0.89280   0.90387   0.74518   0.00000  Uiso   1.00
O1289  O     0.77387   0.76279   0.75481   0.00000  Uiso   1.00
O1290  O     0.78514   0.83784   0.81997   0.00000  Uiso   1.00
O1291  O     0.88153   0.82883   0.68002   0.00000  Uiso   1.00
O1292  O     0.88152   0.82885   0.81217   0.00000  Uiso   1.00
O1293  O     0.78515   0.83781   0.68782   0.00000  Uiso   1.00
O1294  O     0.67542   0.80920   0.69680   0.00000  Uiso   1.00
Zn1295 Zn    0.76898   0.83933   0.75521   0.00000  Uiso   1.00
Zn1296 Zn    0.89769   0.82734   0.74479   0.00000  Uiso   1.00
loop_
_geom_bond_atom_site_label_1
_geom_bond_atom_site_label_2
_geom_bond_distance
_geom_bond_site_symmetry_2
_ccdc_geom_bond_type
C1     C26     1.399   .     S
C1     O64     1.290   .     A
C1     O61     1.284   .     A
C2     C4      1.388   .     A
C2     C13     1.393   .     A
C2     H42     1.083   .     S
C3     C30     1.388   .     A
C3     C29     1.416   .     S
C3     C5      1.386   .     A
C4     C6      1.386   .     A
C4     C28     1.415   .     S
C5     H52     1.086   .     S
C5     C7      1.383   .     A
C6     C8      1.382   .     A
C6     H53     1.086   .     S
C7     C9      1.413   .     A
C7     C14     1.397   .     A
C8     C15     1.396   .     A
C8     C10     1.413   .     A
C9     C11     1.421   .     A
C9     C658    1.392   1_554 S
C10    C13     1.421   .     A
C10    C657    1.392   .     S
C11    C25     1.415   .     A
C11    C30     1.393   .     A
C12    O65     1.289   .     A
C12    O63     1.284   .     A
C12    C27     1.398   .     S
C13    C23     1.415   .     A
C14    H54     1.085   .     S
C14    C671    1.395   1_554 S
C15    H55     1.085   .     S
C15    C673    1.394   .     S
C16    H33     1.110   .     S
C16    C23     1.509   .     S
C16    H32     1.108   .     S
C16    H274    1.111   .     S
C17    H36     1.109   .     S
C17    C25     1.509   .     S
C17    H35     1.110   .     S
C17    H466    1.111   1_545 S
C18    H38     1.099   .     S
C18    H37     1.111   .     S
C18    C91     1.530   .     S
C18    O142    1.411   .     S
C19    H39     1.111   .     S
C19    H40     1.111   .     S
C19    C162    1.530   1_455 S
C19    C596    1.527   1_445 S
C20    H41     1.109   .     S
C20    C307    1.527   .     S
C20    H115    1.111   .     S
C20    H332    1.110   .     S
C21    C22     1.530   .     S
C21    H46     1.100   .     S
C21    H189    1.112   1_455 S
C21    O206    1.409   1_455 S
C22    H48     1.111   .     S
C22    C24     1.528   .     S
C22    H191    1.108   1_455 S
C23    C662    1.395   .     S
C24    H51     1.111   .     S
C24    H50     1.111   .     S
C24    H49     1.111   .     S
C25    C663    1.394   1_554 S
C26    C243    1.332   .     S
C26    H272    1.087   .     S
C27    C458    1.332   1_545 S
C27    H489    1.088   1_545 S
C28    O66     1.288   .     A
C28    O68     1.293   .     A
C29    O69     1.291   .     A
C29    O67     1.291   .     A
C30    H31     1.083   .     S
H34    C233    1.111   .     S
H43    C164    1.111   1_455 S
H44    C596    1.110   1_445 S
H45    C93     1.112   .     S
H47    C94     1.108   .     S
H56    C458    1.087   1_545 S
H57    C243    1.088   .     S
H58    C448    1.111   1_545 S
N59    Zn72    2.032   .     S
N59    N132    1.270   .     S
N59    O142    1.350   .     S
N60    Zn71    2.032   .     S
N60    N203    1.270   1_455 S
N60    O206    1.348   1_455 S
O61    Zn71    1.956   .     S
O62    C93     1.409   .     S
O62    N132    1.348   .     S
O63    Zn72    1.956   .     S
O64    Zn72    1.970   .     S
O65    Zn71    1.970   .     S
O66    Zn71    1.984   .     S
O67    Zn72    1.984   .     S
O68    Zn72    2.016   .     S
O69    Zn71    2.016   .     S
O70    N203    1.350   1_455 S
O70    C162    1.411   1_455 S
C73    C98     1.399   .     S
C73    O136    1.290   .     A
C73    O133    1.284   .     A
C74    C76     1.388   .     A
C74    C85     1.393   .     A
C74    H114    1.083   .     S
C75    C102    1.388   .     A
C75    C101    1.416   .     S
C75    C77     1.386   .     A
C76    C78     1.386   .     A
C76    C100    1.415   .     S
C77    H124    1.086   .     S
C77    C79     1.383   .     A
C78    C80     1.382   .     A
C78    H125    1.086   .     S
C79    C81     1.413   .     A
C79    C86     1.397   .     A
C80    C87     1.396   .     A
C80    C82     1.413   .     A
C81    C83     1.421   .     A
C81    C730    1.392   1_554 S
C82    C85     1.421   .     A
C82    C729    1.392   .     S
C83    C97     1.415   .     A
C83    C102    1.393   .     A
C84    O137    1.289   .     A
C84    O135    1.284   .     A
C84    C99     1.398   .     S
C85    C95     1.415   .     A
C86    H126    1.085   .     S
C86    C743    1.395   1_554 S
C87    H127    1.085   .     S
C87    C745    1.394   .     S
C88    H105    1.110   .     S
C88    C95     1.509   .     S
C88    H104    1.108   .     S
C88    H346    1.111   .     S
C89    H108    1.109   .     S
C89    C97     1.509   .     S
C89    H107    1.110   .     S
C89    H538    1.111   1_545 S
C90    H110    1.099   .     S
C90    H109    1.111   .     S
C90    C163    1.530   .     S
C90    O214    1.411   .     S
C91    H111    1.111   .     S
C91    H112    1.111   .     S
C91    C452    1.527   1_545 S
C92    H113    1.109   .     S
C92    C379    1.527   .     S
C92    H187    1.111   .     S
C92    H404    1.110   .     S
C93    C94     1.530   .     S
C93    H118    1.100   .     S
C94    H120    1.111   .     S
C94    C96     1.528   .     S
C95    C734    1.395   .     S
C96    H123    1.111   .     S
C96    H122    1.111   .     S
C96    H121    1.111   .     S
C97    C735    1.394   1_554 S
C98    C315    1.332   .     S
C98    H344    1.087   .     S
C99    C530    1.332   1_545 S
C99    H561    1.088   1_545 S
C100   O138    1.288   .     A
C100   O140    1.293   .     A
C101   O141    1.291   .     A
C101   O139    1.291   .     A
C102   H103    1.083   .     S
H106   C305    1.111   .     S
H116   C452    1.110   1_545 S
H117   C165    1.112   .     S
H119   C166    1.108   .     S
H128   C530    1.087   1_545 S
H129   C315    1.088   .     S
H130   C520    1.111   1_545 S
N131   Zn144   2.032   .     S
N131   N204    1.270   .     S
N131   O214    1.350   .     S
N132   Zn143   2.032   .     S
O133   Zn143   1.956   .     S
O134   C165    1.409   .     S
O134   N204    1.348   .     S
O135   Zn144   1.956   .     S
O136   Zn144   1.970   .     S
O137   Zn143   1.970   .     S
O138   Zn143   1.984   .     S
O139   Zn144   1.984   .     S
O140   Zn144   2.016   .     S
O141   Zn143   2.016   .     S
C145   C170    1.399   .     S
C145   O208    1.290   .     A
C145   O205    1.284   .     A
C146   C148    1.388   .     A
C146   C157    1.393   .     A
C146   H186    1.083   .     S
C147   C174    1.388   .     A
C147   C173    1.416   .     S
C147   C149    1.386   .     A
C148   C150    1.386   .     A
C148   C172    1.415   .     S
C149   H196    1.086   .     S
C149   C151    1.383   .     A
C150   C152    1.382   .     A
C150   H197    1.086   .     S
C151   C153    1.413   .     A
C151   C158    1.397   .     A
C152   C159    1.396   .     A
C152   C154    1.413   .     A
C153   C155    1.421   .     A
C153   C802    1.392   1_554 S
C154   C157    1.421   .     A
C154   C801    1.392   .     S
C155   C169    1.415   .     A
C155   C174    1.393   .     A
C156   O209    1.289   .     A
C156   O207    1.284   .     A
C156   C171    1.398   .     S
C157   C167    1.415   .     A
C158   H198    1.085   .     S
C158   C815    1.395   1_554 S
C159   H199    1.085   .     S
C159   C817    1.394   .     S
C160   H177    1.110   .     S
C160   C167    1.509   .     S
C160   H176    1.108   .     S
C160   H418    1.111   .     S
C161   H180    1.109   .     S
C161   C169    1.509   .     S
C161   H179    1.110   .     S
C161   H610    1.111   1_545 S
C162   H182    1.099   .     S
C162   H181    1.111   .     S
C162   C19     1.530   1_655 S
C162   O70     1.411   1_655 S
C163   H183    1.111   .     S
C163   H184    1.111   .     S
C163   C524    1.527   1_545 S
C164   H185    1.109   .     S
C164   C235    1.527   1_655 S
C164   H43     1.111   1_655 S
C164   H260    1.110   1_655 S
C165   C166    1.530   .     S
C165   H190    1.100   .     S
C166   H192    1.111   .     S
C166   C168    1.528   .     S
C167   C806    1.395   .     S
C168   H195    1.111   .     S
C168   H194    1.111   .     S
C168   H193    1.111   .     S
C169   C807    1.394   1_554 S
C170   C387    1.332   .     S
C170   H416    1.087   .     S
C171   C602    1.332   1_545 S
C171   H633    1.088   1_545 S
C172   O210    1.288   .     A
C172   O212    1.293   .     A
C173   O213    1.291   .     A
C173   O211    1.291   .     A
C174   H175    1.083   .     S
H178   C377    1.111   .     S
H188   C524    1.110   1_545 S
H189   C21     1.112   1_655 S
H191   C22     1.108   1_655 S
H200   C602    1.087   1_545 S
H201   C387    1.088   .     S
H202   C592    1.111   1_545 S
N203   Zn216   2.032   .     S
N203   N60     1.270   1_655 S
N203   O70     1.350   1_655 S
N204   Zn215   2.032   .     S
O205   Zn215   1.956   .     S
O206   C21     1.409   1_655 S
O206   N60     1.348   1_655 S
O207   Zn216   1.956   .     S
O208   Zn216   1.970   .     S
O209   Zn215   1.970   .     S
O210   Zn215   1.984   .     S
O211   Zn216   1.984   .     S
O212   Zn216   2.016   .     S
O213   Zn215   2.016   .     S
C217   C242    1.399   .     S
C217   O280    1.290   .     A
C217   O277    1.284   .     A
C218   C220    1.388   .     A
C218   C229    1.393   .     A
C218   H258    1.083   .     S
C219   C246    1.388   .     A
C219   C245    1.416   .     S
C219   C221    1.386   .     A
C220   C222    1.386   .     A
C220   C244    1.415   .     S
C221   H268    1.086   .     S
C221   C223    1.383   .     A
C222   C224    1.382   .     A
C222   H269    1.086   .     S
C223   C225    1.413   .     A
C223   C230    1.397   .     A
C224   C231    1.396   .     A
C224   C226    1.413   .     A
C225   C227    1.421   .     A
C225   C874    1.392   1_554 S
C226   C229    1.421   .     A
C226   C873    1.392   .     S
C227   C241    1.415   .     A
C227   C246    1.393   .     A
C228   O281    1.289   .     A
C228   O279    1.284   .     A
C228   C243    1.398   .     S
C229   C239    1.415   .     A
C230   H270    1.085   .     S
C230   C887    1.395   1_554 S
C231   H271    1.085   .     S
C231   C889    1.394   .     S
C232   H249    1.110   .     S
C232   C239    1.509   .     S
C232   H248    1.108   .     S
C232   H490    1.111   .     S
C233   H252    1.109   .     S
C233   C241    1.509   .     S
C233   H251    1.110   .     S
C234   H254    1.099   .     S
C234   H253    1.111   .     S
C234   C307    1.530   .     S
C234   O358    1.411   .     S
C235   H255    1.111   .     S
C235   H256    1.111   .     S
C235   C378    1.530   1_455 S
C235   C164    1.527   1_455 S
C236   H257    1.109   .     S
C236   C523    1.527   .     S
C236   H331    1.111   .     S
C236   H548    1.110   .     S
C237   C238    1.530   .     S
C237   H262    1.100   .     S
C237   H405    1.112   1_455 S
C237   O422    1.409   1_455 S
C238   H264    1.111   .     S
C238   C240    1.528   .     S
C238   H407    1.108   1_455 S
C239   C878    1.395   .     S
C240   H267    1.111   .     S
C240   H266    1.111   .     S
C240   H265    1.111   .     S
C241   C879    1.394   1_554 S
C242   C459    1.332   .     S
C242   H488    1.087   .     S
C244   O282    1.288   .     A
C244   O284    1.293   .     A
C245   O285    1.291   .     A
C245   O283    1.291   .     A
C246   H247    1.083   .     S
H250   C449    1.111   .     S
H259   C380    1.111   1_455 S
H260   C164    1.110   1_455 S
H261   C309    1.112   .     S
H263   C310    1.108   .     S
H273   C459    1.088   .     S
N275   Zn288   2.032   .     S
N275   N348    1.270   .     S
N275   O358    1.350   .     S
N276   Zn287   2.032   .     S
N276   N419    1.270   1_455 S
N276   O422    1.348   1_455 S
O277   Zn287   1.956   .     S
O278   C309    1.409   .     S
O278   N348    1.348   .     S
O279   Zn288   1.956   .     S
O280   Zn288   1.970   .     S
O281   Zn287   1.970   .     S
O282   Zn287   1.984   .     S
O283   Zn288   1.984   .     S
O284   Zn288   2.016   .     S
O285   Zn287   2.016   .     S
O286   N419    1.350   1_455 S
O286   C378    1.411   1_455 S
C289   C314    1.399   .     S
C289   O352    1.290   .     A
C289   O349    1.284   .     A
C290   C292    1.388   .     A
C290   C301    1.393   .     A
C290   H330    1.083   .     S
C291   C318    1.388   .     A
C291   C317    1.416   .     S
C291   C293    1.386   .     A
C292   C294    1.386   .     A
C292   C316    1.415   .     S
C293   H340    1.086   .     S
C293   C295    1.383   .     A
C294   C296    1.382   .     A
C294   H341    1.086   .     S
C295   C297    1.413   .     A
C295   C302    1.397   .     A
C296   C303    1.396   .     A
C296   C298    1.413   .     A
C297   C299    1.421   .     A
C297   C946    1.392   1_554 S
C298   C301    1.421   .     A
C298   C945    1.392   .     S
C299   C313    1.415   .     A
C299   C318    1.393   .     A
C300   O353    1.289   .     A
C300   O351    1.284   .     A
C300   C315    1.398   .     S
C301   C311    1.415   .     A
C302   H342    1.085   .     S
C302   C959    1.395   1_554 S
C303   H343    1.085   .     S
C303   C961    1.394   .     S
C304   H321    1.110   .     S
C304   C311    1.509   .     S
C304   H320    1.108   .     S
C304   H562    1.111   .     S
C305   H324    1.109   .     S
C305   C313    1.509   .     S
C305   H323    1.110   .     S
C306   H326    1.099   .     S
C306   H325    1.111   .     S
C306   C379    1.530   .     S
C306   O430    1.411   .     S
C307   H327    1.111   .     S
C307   H328    1.111   .     S
C308   H329    1.109   .     S
C308   C595    1.527   .     S
C308   H403    1.111   .     S
C308   H620    1.110   .     S
C309   C310    1.530   .     S
C309   H334    1.100   .     S
C310   H336    1.111   .     S
C310   C312    1.528   .     S
C311   C950    1.395   .     S
C312   H339    1.111   .     S
C312   H338    1.111   .     S
C312   H337    1.111   .     S
C313   C951    1.394   1_554 S
C314   C531    1.332   .     S
C314   H560    1.087   .     S
C316   O354    1.288   .     A
C316   O356    1.293   .     A
C317   O357    1.291   .     A
C317   O355    1.291   .     A
C318   H319    1.083   .     S
H322   C521    1.111   .     S
H333   C381    1.112   .     S
H335   C382    1.108   .     S
H345   C531    1.088   .     S
N347   Zn360   2.032   .     S
N347   N420    1.270   .     S
N347   O430    1.350   .     S
N348   Zn359   2.032   .     S
O349   Zn359   1.956   .     S
O350   C381    1.409   .     S
O350   N420    1.348   .     S
O351   Zn360   1.956   .     S
O352   Zn360   1.970   .     S
O353   Zn359   1.970   .     S
O354   Zn359   1.984   .     S
O355   Zn360   1.984   .     S
O356   Zn360   2.016   .     S
O357   Zn359   2.016   .     S
C361   C386    1.399   .     S
C361   O424    1.290   .     A
C361   O421    1.284   .     A
C362   C364    1.388   .     A
C362   C373    1.393   .     A
C362   H402    1.083   .     S
C363   C390    1.388   .     A
C363   C389    1.416   .     S
C363   C365    1.386   .     A
C364   C366    1.386   .     A
C364   C388    1.415   .     S
C365   H412    1.086   .     S
C365   C367    1.383   .     A
C366   C368    1.382   .     A
C366   H413    1.086   .     S
C367   C369    1.413   .     A
C367   C374    1.397   .     A
C368   C375    1.396   .     A
C368   C370    1.413   .     A
C369   C371    1.421   .     A
C369   C1018   1.392   1_554 S
C370   C373    1.421   .     A
C370   C1017   1.392   .     S
C371   C385    1.415   .     A
C371   C390    1.393   .     A
C372   O425    1.289   .     A
C372   O423    1.284   .     A
C372   C387    1.398   .     S
C373   C383    1.415   .     A
C374   H414    1.085   .     S
C374   C1031   1.395   1_554 S
C375   H415    1.085   .     S
C375   C1033   1.394   .     S
C376   H393    1.110   .     S
C376   C383    1.509   .     S
C376   H392    1.108   .     S
C376   H634    1.111   .     S
C377   H396    1.109   .     S
C377   C385    1.509   .     S
C377   H395    1.110   .     S
C378   H398    1.099   .     S
C378   H397    1.111   .     S
C378   C235    1.530   1_655 S
C378   O286    1.411   1_655 S
C379   H399    1.111   .     S
C379   H400    1.111   .     S
C380   H401    1.109   .     S
C380   C451    1.527   1_655 S
C380   H259    1.111   1_655 S
C380   H476    1.110   1_655 S
C381   C382    1.530   .     S
C381   H406    1.100   .     S
C382   H408    1.111   .     S
C382   C384    1.528   .     S
C383   C1022   1.395   .     S
C384   H411    1.111   .     S
C384   H410    1.111   .     S
C384   H409    1.111   .     S
C385   C1023   1.394   1_554 S
C386   C603    1.332   .     S
C386   H632    1.087   .     S
C388   O426    1.288   .     A
C388   O428    1.293   .     A
C389   O429    1.291   .     A
C389   O427    1.291   .     A
C390   H391    1.083   .     S
H394   C593    1.111   .     S
H405   C237    1.112   1_655 S
H407   C238    1.108   1_655 S
H417   C603    1.088   .     S
N419   Zn432   2.032   .     S
N419   N276    1.270   1_655 S
N419   O286    1.350   1_655 S
N420   Zn431   2.032   .     S
O421   Zn431   1.956   .     S
O422   C237    1.409   1_655 S
O422   N276    1.348   1_655 S
O423   Zn432   1.956   .     S
O424   Zn432   1.970   .     S
O425   Zn431   1.970   .     S
O426   Zn431   1.984   .     S
O427   Zn432   1.984   .     S
O428   Zn432   2.016   .     S
O429   Zn431   2.016   .     S
C433   C458    1.399   .     S
C433   O496    1.290   .     A
C433   O493    1.284   .     A
C434   C436    1.388   .     A
C434   C445    1.393   .     A
C434   H474    1.083   .     S
C435   C462    1.388   .     A
C435   C461    1.416   .     S
C435   C437    1.386   .     A
C436   C438    1.386   .     A
C436   C460    1.415   .     S
C437   H484    1.086   .     S
C437   C439    1.383   .     A
C438   C440    1.382   .     A
C438   H485    1.086   .     S
C439   C441    1.413   .     A
C439   C446    1.397   .     A
C440   C447    1.396   .     A
C440   C442    1.413   .     A
C441   C443    1.421   .     A
C441   C1090   1.392   1_554 S
C442   C445    1.421   .     A
C442   C1089   1.392   .     S
C443   C457    1.415   .     A
C443   C462    1.393   .     A
C444   O497    1.289   .     A
C444   O495    1.284   .     A
C444   C459    1.398   .     S
C445   C455    1.415   .     A
C446   H486    1.085   .     S
C446   C1103   1.395   1_554 S
C447   H487    1.085   .     S
C447   C1105   1.394   .     S
C448   H465    1.110   .     S
C448   C455    1.509   .     S
C448   H464    1.108   .     S
C448   H58     1.111   1_565 S
C449   H468    1.109   .     S
C449   C457    1.509   .     S
C449   H467    1.110   .     S
C450   H470    1.099   .     S
C450   H469    1.111   .     S
C450   C523    1.530   .     S
C450   O574    1.411   .     S
C451   H471    1.111   .     S
C451   H472    1.111   .     S
C451   C594    1.530   1_455 S
C451   C380    1.527   1_455 S
C452   H473    1.109   .     S
C452   C91     1.527   1_565 S
C452   H547    1.111   .     S
C452   H116    1.110   1_565 S
C453   C454    1.530   .     S
C453   H478    1.100   .     S
C453   H621    1.112   1_455 S
C453   O638    1.409   1_455 S
C454   H480    1.111   .     S
C454   C456    1.528   .     S
C454   H623    1.108   1_455 S
C455   C1094   1.395   .     S
C456   H483    1.111   .     S
C456   H482    1.111   .     S
C456   H481    1.111   .     S
C457   C1095   1.394   1_554 S
C458   C27     1.332   1_565 S
C458   H56     1.087   1_565 S
C460   O498    1.288   .     A
C460   O500    1.293   .     A
C461   O501    1.291   .     A
C461   O499    1.291   .     A
C462   H463    1.083   .     S
H466   C17     1.111   1_565 S
H475   C596    1.111   1_455 S
H476   C380    1.110   1_455 S
H477   C525    1.112   .     S
H479   C526    1.108   .     S
H489   C27     1.088   1_565 S
N491   Zn504   2.032   .     S
N491   N564    1.270   .     S
N491   O574    1.350   .     S
N492   Zn503   2.032   .     S
N492   N635    1.270   1_455 S
N492   O638    1.348   1_455 S
O493   Zn503   1.956   .     S
O494   C525    1.409   .     S
O494   N564    1.348   .     S
O495   Zn504   1.956   .     S
O496   Zn504   1.970   .     S
O497   Zn503   1.970   .     S
O498   Zn503   1.984   .     S
O499   Zn504   1.984   .     S
O500   Zn504   2.016   .     S
O501   Zn503   2.016   .     S
O502   N635    1.350   1_455 S
O502   C594    1.411   1_455 S
C505   C530    1.399   .     S
C505   O568    1.290   .     A
C505   O565    1.284   .     A
C506   C508    1.388   .     A
C506   C517    1.393   .     A
C506   H546    1.083   .     S
C507   C534    1.388   .     A
C507   C533    1.416   .     S
C507   C509    1.386   .     A
C508   C510    1.386   .     A
C508   C532    1.415   .     S
C509   H556    1.086   .     S
C509   C511    1.383   .     A
C510   C512    1.382   .     A
C510   H557    1.086   .     S
C511   C513    1.413   .     A
C511   C518    1.397   .     A
C512   C519    1.396   .     A
C512   C514    1.413   .     A
C513   C515    1.421   .     A
C513   C1162   1.392   1_554 S
C514   C517    1.421   .     A
C514   C1161   1.392   .     S
C515   C529    1.415   .     A
C515   C534    1.393   .     A
C516   O569    1.289   .     A
C516   O567    1.284   .     A
C516   C531    1.398   .     S
C517   C527    1.415   .     A
C518   H558    1.085   .     S
C518   C1175   1.395   1_554 S
C519   H559    1.085   .     S
C519   C1177   1.394   .     S
C520   H537    1.110   .     S
C520   C527    1.509   .     S
C520   H536    1.108   .     S
C520   H130    1.111   1_565 S
C521   H540    1.109   .     S
C521   C529    1.509   .     S
C521   H539    1.110   .     S
C522   H542    1.099   .     S
C522   H541    1.111   .     S
C522   C595    1.530   .     S
C522   O646    1.411   .     S
C523   H543    1.111   .     S
C523   H544    1.111   .     S
C524   H545    1.109   .     S
C524   C163    1.527   1_565 S
C524   H619    1.111   .     S
C524   H188    1.110   1_565 S
C525   C526    1.530   .     S
C525   H550    1.100   .     S
C526   H552    1.111   .     S
C526   C528    1.528   .     S
C527   C1166   1.395   .     S
C528   H555    1.111   .     S
C528   H554    1.111   .     S
C528   H553    1.111   .     S
C529   C1167   1.394   1_554 S
C530   C99     1.332   1_565 S
C530   H128    1.087   1_565 S
C532   O570    1.288   .     A
C532   O572    1.293   .     A
C533   O573    1.291   .     A
C533   O571    1.291   .     A
C534   H535    1.083   .     S
H538   C89     1.111   1_565 S
H549   C597    1.112   .     S
H551   C598    1.108   .     S
H561   C99     1.088   1_565 S
N563   Zn576   2.032   .     S
N563   N636    1.270   .     S
N563   O646    1.350   .     S
N564   Zn575   2.032   .     S
O565   Zn575   1.956   .     S
O566   C597    1.409   .     S
O566   N636    1.348   .     S
O567   Zn576   1.956   .     S
O568   Zn576   1.970   .     S
O569   Zn575   1.970   .     S
O570   Zn575   1.984   .     S
O571   Zn576   1.984   .     S
O572   Zn576   2.016   .     S
O573   Zn575   2.016   .     S
C577   C602    1.399   .     S
C577   O640    1.290   .     A
C577   O637    1.284   .     A
C578   C580    1.388   .     A
C578   C589    1.393   .     A
C578   H618    1.083   .     S
C579   C606    1.388   .     A
C579   C605    1.416   .     S
C579   C581    1.386   .     A
C580   C582    1.386   .     A
C580   C604    1.415   .     S
C581   H628    1.086   .     S
C581   C583    1.383   .     A
C582   C584    1.382   .     A
C582   H629    1.086   .     S
C583   C585    1.413   .     A
C583   C590    1.397   .     A
C584   C591    1.396   .     A
C584   C586    1.413   .     A
C585   C587    1.421   .     A
C585   C1234   1.392   1_554 S
C586   C589    1.421   .     A
C586   C1233   1.392   .     S
C587   C601    1.415   .     A
C587   C606    1.393   .     A
C588   O641    1.289   .     A
C588   O639    1.284   .     A
C588   C603    1.398   .     S
C589   C599    1.415   .     A
C590   H630    1.085   .     S
C590   C1247   1.395   1_554 S
C591   H631    1.085   .     S
C591   C1249   1.394   .     S
C592   H609    1.110   .     S
C592   C599    1.509   .     S
C592   H608    1.108   .     S
C592   H202    1.111   1_565 S
C593   H612    1.109   .     S
C593   C601    1.509   .     S
C593   H611    1.110   .     S
C594   H614    1.099   .     S
C594   H613    1.111   .     S
C594   C451    1.530   1_655 S
C594   O502    1.411   1_655 S
C595   H615    1.111   .     S
C595   H616    1.111   .     S
C596   H617    1.109   .     S
C596   C19     1.527   1_665 S
C596   H475    1.111   1_655 S
C596   H44     1.110   1_665 S
C597   C598    1.530   .     S
C597   H622    1.100   .     S
C598   H624    1.111   .     S
C598   C600    1.528   .     S
C599   C1238   1.395   .     S
C600   H627    1.111   .     S
C600   H626    1.111   .     S
C600   H625    1.111   .     S
C601   C1239   1.394   1_554 S
C602   C171    1.332   1_565 S
C602   H200    1.087   1_565 S
C604   O642    1.288   .     A
C604   O644    1.293   .     A
C605   O645    1.291   .     A
C605   O643    1.291   .     A
C606   H607    1.083   .     S
H610   C161    1.111   1_565 S
H621   C453    1.112   1_655 S
H623   C454    1.108   1_655 S
H633   C171    1.088   1_565 S
N635   Zn648   2.032   .     S
N635   N492    1.270   1_655 S
N635   O502    1.350   1_655 S
N636   Zn647   2.032   .     S
O637   Zn647   1.956   .     S
O638   C453    1.409   1_655 S
O638   N492    1.348   1_655 S
O639   Zn648   1.956   .     S
O640   Zn648   1.970   .     S
O641   Zn647   1.970   .     S
O642   Zn647   1.984   .     S
O643   Zn648   1.984   .     S
O644   Zn648   2.016   .     S
O645   Zn647   2.016   .     S
C649   C674    1.399   .     S
C649   O712    1.290   .     A
C649   O709    1.284   .     A
C650   C652    1.388   .     A
C650   C661    1.393   .     A
C650   H690    1.083   .     S
C651   C678    1.388   .     A
C651   C677    1.416   .     S
C651   C653    1.386   .     A
C652   C654    1.386   .     A
C652   C676    1.415   .     S
C653   H700    1.086   .     S
C653   C655    1.383   .     A
C654   C656    1.382   .     A
C654   H701    1.086   .     S
C655   C657    1.413   .     A
C655   C662    1.397   .     A
C656   C663    1.396   .     A
C656   C658    1.413   .     A
C657   C659    1.421   .     A
C658   C661    1.421   .     A
C658   C9      1.392   1_556 S
C659   C673    1.415   .     A
C659   C678    1.393   .     A
C660   O713    1.289   .     A
C660   O711    1.284   .     A
C660   C675    1.398   .     S
C661   C671    1.415   .     A
C662   H702    1.085   .     S
C663   H703    1.085   .     S
C663   C25     1.394   1_556 S
C664   H681    1.110   .     S
C664   C671    1.509   .     S
C664   H680    1.108   .     S
C664   H922    1.111   .     S
C665   H684    1.109   .     S
C665   C673    1.509   .     S
C665   H683    1.110   .     S
C665   H1114   1.111   1_545 S
C666   H686    1.099   .     S
C666   H685    1.111   .     S
C666   C739    1.530   .     S
C666   O790    1.411   .     S
C667   H687    1.111   .     S
C667   H688    1.111   .     S
C667   C810    1.530   1_455 S
C667   C1244   1.527   1_445 S
C668   H689    1.109   .     S
C668   C955    1.527   .     S
C668   H763    1.111   .     S
C668   H980    1.110   .     S
C669   C670    1.530   .     S
C669   H694    1.100   .     S
C669   H837    1.112   1_455 S
C669   O854    1.409   1_455 S
C670   H696    1.111   .     S
C670   C672    1.528   .     S
C670   H839    1.108   1_455 S
C671   C14     1.395   1_556 S
C672   H699    1.111   .     S
C672   H698    1.111   .     S
C672   H697    1.111   .     S
C674   C891    1.332   .     S
C674   H920    1.087   .     S
C675   C1106   1.332   1_545 S
C675   H1137   1.088   1_545 S
C676   O714    1.288   .     A
C676   O716    1.293   .     A
C677   O717    1.291   .     A
C677   O715    1.291   .     A
C678   H679    1.083   .     S
H682   C881    1.111   .     S
H691   C812    1.111   1_455 S
H692   C1244   1.110   1_445 S
H693   C741    1.112   .     S
H695   C742    1.108   .     S
H704   C1106   1.087   1_545 S
H705   C891    1.088   .     S
H706   C1096   1.111   1_545 S
N707   Zn720   2.032   .     S
N707   N780    1.270   .     S
N707   O790    1.350   .     S
N708   Zn719   2.032   .     S
N708   N851    1.270   1_455 S
N708   O854    1.348   1_455 S
O709   Zn719   1.956   .     S
O710   C741    1.409   .     S
O710   N780    1.348   .     S
O711   Zn720   1.956   .     S
O712   Zn720   1.970   .     S
O713   Zn719   1.970   .     S
O714   Zn719   1.984   .     S
O715   Zn720   1.984   .     S
O716   Zn720   2.016   .     S
O717   Zn719   2.016   .     S
O718   N851    1.350   1_455 S
O718   C810    1.411   1_455 S
C721   C746    1.399   .     S
C721   O784    1.290   .     A
C721   O781    1.284   .     A
C722   C724    1.388   .     A
C722   C733    1.393   .     A
C722   H762    1.083   .     S
C723   C750    1.388   .     A
C723   C749    1.416   .     S
C723   C725    1.386   .     A
C724   C726    1.386   .     A
C724   C748    1.415   .     S
C725   H772    1.086   .     S
C725   C727    1.383   .     A
C726   C728    1.382   .     A
C726   H773    1.086   .     S
C727   C729    1.413   .     A
C727   C734    1.397   .     A
C728   C735    1.396   .     A
C728   C730    1.413   .     A
C729   C731    1.421   .     A
C730   C733    1.421   .     A
C730   C81     1.392   1_556 S
C731   C745    1.415   .     A
C731   C750    1.393   .     A
C732   O785    1.289   .     A
C732   O783    1.284   .     A
C732   C747    1.398   .     S
C733   C743    1.415   .     A
C734   H774    1.085   .     S
C735   H775    1.085   .     S
C735   C97     1.394   1_556 S
C736   H753    1.110   .     S
C736   C743    1.509   .     S
C736   H752    1.108   .     S
C736   H994    1.111   .     S
C737   H756    1.109   .     S
C737   C745    1.509   .     S
C737   H755    1.110   .     S
C737   H1186   1.111   1_545 S
C738   H758    1.099   .     S
C738   H757    1.111   .     S
C738   C811    1.530   .     S
C738   O862    1.411   .     S
C739   H759    1.111   .     S
C739   H760    1.111   .     S
C739   C1100   1.527   1_545 S
C740   H761    1.109   .     S
C740   C1027   1.527   .     S
C740   H835    1.111   .     S
C740   H1052   1.110   .     S
C741   C742    1.530   .     S
C741   H766    1.100   .     S
C742   H768    1.111   .     S
C742   C744    1.528   .     S
C743   C86     1.395   1_556 S
C744   H771    1.111   .     S
C744   H770    1.111   .     S
C744   H769    1.111   .     S
C746   C963    1.332   .     S
C746   H992    1.087   .     S
C747   C1178   1.332   1_545 S
C747   H1209   1.088   1_545 S
C748   O786    1.288   .     A
C748   O788    1.293   .     A
C749   O789    1.291   .     A
C749   O787    1.291   .     A
C750   H751    1.083   .     S
H754   C953    1.111   .     S
H764   C1100   1.110   1_545 S
H765   C813    1.112   .     S
H767   C814    1.108   .     S
H776   C1178   1.087   1_545 S
H777   C963    1.088   .     S
H778   C1168   1.111   1_545 S
N779   Zn792   2.032   .     S
N779   N852    1.270   .     S
N779   O862    1.350   .     S
N780   Zn791   2.032   .     S
O781   Zn791   1.956   .     S
O782   C813    1.409   .     S
O782   N852    1.348   .     S
O783   Zn792   1.956   .     S
O784   Zn792   1.970   .     S
O785   Zn791   1.970   .     S
O786   Zn791   1.984   .     S
O787   Zn792   1.984   .     S
O788   Zn792   2.016   .     S
O789   Zn791   2.016   .     S
C793   C818    1.399   .     S
C793   O856    1.290   .     A
C793   O853    1.284   .     A
C794   C796    1.388   .     A
C794   C805    1.393   .     A
C794   H834    1.083   .     S
C795   C822    1.388   .     A
C795   C821    1.416   .     S
C795   C797    1.386   .     A
C796   C798    1.386   .     A
C796   C820    1.415   .     S
C797   H844    1.086   .     S
C797   C799    1.383   .     A
C798   C800    1.382   .     A
C798   H845    1.086   .     S
C799   C801    1.413   .     A
C799   C806    1.397   .     A
C800   C807    1.396   .     A
C800   C802    1.413   .     A
C801   C803    1.421   .     A
C802   C805    1.421   .     A
C802   C153    1.392   1_556 S
C803   C817    1.415   .     A
C803   C822    1.393   .     A
C804   O857    1.289   .     A
C804   O855    1.284   .     A
C804   C819    1.398   .     S
C805   C815    1.415   .     A
C806   H846    1.085   .     S
C807   H847    1.085   .     S
C807   C169    1.394   1_556 S
C808   H825    1.110   .     S
C808   C815    1.509   .     S
C808   H824    1.108   .     S
C808   H1066   1.111   .     S
C809   H828    1.109   .     S
C809   C817    1.509   .     S
C809   H827    1.110   .     S
C809   H1258   1.111   1_545 S
C810   H830    1.099   .     S
C810   H829    1.111   .     S
C810   C667    1.530   1_655 S
C810   O718    1.411   1_655 S
C811   H831    1.111   .     S
C811   H832    1.111   .     S
C811   C1172   1.527   1_545 S
C812   H833    1.109   .     S
C812   C883    1.527   1_655 S
C812   H691    1.111   1_655 S
C812   H908    1.110   1_655 S
C813   C814    1.530   .     S
C813   H838    1.100   .     S
C814   H840    1.111   .     S
C814   C816    1.528   .     S
C815   C158    1.395   1_556 S
C816   H843    1.111   .     S
C816   H842    1.111   .     S
C816   H841    1.111   .     S
C818   C1035   1.332   .     S
C818   H1064   1.087   .     S
C819   C1250   1.332   1_545 S
C819   H1281   1.088   1_545 S
C820   O858    1.288   .     A
C820   O860    1.293   .     A
C821   O861    1.291   .     A
C821   O859    1.291   .     A
C822   H823    1.083   .     S
H826   C1025   1.111   .     S
H836   C1172   1.110   1_545 S
H837   C669    1.112   1_655 S
H839   C670    1.108   1_655 S
H848   C1250   1.087   1_545 S
H849   C1035   1.088   .     S
H850   C1240   1.111   1_545 S
N851   Zn864   2.032   .     S
N851   N708    1.270   1_655 S
N851   O718    1.350   1_655 S
N852   Zn863   2.032   .     S
O853   Zn863   1.956   .     S
O854   C669    1.409   1_655 S
O854   N708    1.348   1_655 S
O855   Zn864   1.956   .     S
O856   Zn864   1.970   .     S
O857   Zn863   1.970   .     S
O858   Zn863   1.984   .     S
O859   Zn864   1.984   .     S
O860   Zn864   2.016   .     S
O861   Zn863   2.016   .     S
C865   C890    1.399   .     S
C865   O928    1.290   .     A
C865   O925    1.284   .     A
C866   C868    1.388   .     A
C866   C877    1.393   .     A
C866   H906    1.083   .     S
C867   C894    1.388   .     A
C867   C893    1.416   .     S
C867   C869    1.386   .     A
C868   C870    1.386   .     A
C868   C892    1.415   .     S
C869   H916    1.086   .     S
C869   C871    1.383   .     A
C870   C872    1.382   .     A
C870   H917    1.086   .     S
C871   C873    1.413   .     A
C871   C878    1.397   .     A
C872   C879    1.396   .     A
C872   C874    1.413   .     A
C873   C875    1.421   .     A
C874   C877    1.421   .     A
C874   C225    1.392   1_556 S
C875   C889    1.415   .     A
C875   C894    1.393   .     A
C876   O929    1.289   .     A
C876   O927    1.284   .     A
C876   C891    1.398   .     S
C877   C887    1.415   .     A
C878   H918    1.085   .     S
C879   H919    1.085   .     S
C879   C241    1.394   1_556 S
C880   H897    1.110   .     S
C880   C887    1.509   .     S
C880   H896    1.108   .     S
C880   H1138   1.111   .     S
C881   H900    1.109   .     S
C881   C889    1.509   .     S
C881   H899    1.110   .     S
C882   H902    1.099   .     S
C882   H901    1.111   .     S
C882   C955    1.530   .     S
C882   O1006   1.411   .     S
C883   H903    1.111   .     S
C883   H904    1.111   .     S
C883   C1026   1.530   1_455 S
C883   C812    1.527   1_455 S
C884   H905    1.109   .     S
C884   C1171   1.527   .     S
C884   H979    1.111   .     S
C884   H1196   1.110   .     S
C885   C886    1.530   .     S
C885   H910    1.100   .     S
C885   H1053   1.112   1_455 S
C885   O1070   1.409   1_455 S
C886   H912    1.111   .     S
C886   C888    1.528   .     S
C886   H1055   1.108   1_455 S
C887   C230    1.395   1_556 S
C888   H915    1.111   .     S
C888   H914    1.111   .     S
C888   H913    1.111   .     S
C890   C1107   1.332   .     S
C890   H1136   1.087   .     S
C892   O930    1.288   .     A
C892   O932    1.293   .     A
C893   O933    1.291   .     A
C893   O931    1.291   .     A
C894   H895    1.083   .     S
H898   C1097   1.111   .     S
H907   C1028   1.111   1_455 S
H908   C812    1.110   1_455 S
H909   C957    1.112   .     S
H911   C958    1.108   .     S
H921   C1107   1.088   .     S
N923   Zn936   2.032   .     S
N923   N996    1.270   .     S
N923   O1006   1.350   .     S
N924   Zn935   2.032   .     S
N924   N1067   1.270   1_455 S
N924   O1070   1.348   1_455 S
O925   Zn935   1.956   .     S
O926   C957    1.409   .     S
O926   N996    1.348   .     S
O927   Zn936   1.956   .     S
O928   Zn936   1.970   .     S
O929   Zn935   1.970   .     S
O930   Zn935   1.984   .     S
O931   Zn936   1.984   .     S
O932   Zn936   2.016   .     S
O933   Zn935   2.016   .     S
O934   N1067   1.350   1_455 S
O934   C1026   1.411   1_455 S
C937   C962    1.399   .     S
C937   O1000   1.290   .     A
C937   O997    1.284   .     A
C938   C940    1.388   .     A
C938   C949    1.393   .     A
C938   H978    1.083   .     S
C939   C966    1.388   .     A
C939   C965    1.416   .     S
C939   C941    1.386   .     A
C940   C942    1.386   .     A
C940   C964    1.415   .     S
C941   H988    1.086   .     S
C941   C943    1.383   .     A
C942   C944    1.382   .     A
C942   H989    1.086   .     S
C943   C945    1.413   .     A
C943   C950    1.397   .     A
C944   C951    1.396   .     A
C944   C946    1.413   .     A
C945   C947    1.421   .     A
C946   C949    1.421   .     A
C946   C297    1.392   1_556 S
C947   C961    1.415   .     A
C947   C966    1.393   .     A
C948   O1001   1.289   .     A
C948   O999    1.284   .     A
C948   C963    1.398   .     S
C949   C959    1.415   .     A
C950   H990    1.085   .     S
C951   H991    1.085   .     S
C951   C313    1.394   1_556 S
C952   H969    1.110   .     S
C952   C959    1.509   .     S
C952   H968    1.108   .     S
C952   H1210   1.111   .     S
C953   H972    1.109   .     S
C953   C961    1.509   .     S
C953   H971    1.110   .     S
C954   H974    1.099   .     S
C954   H973    1.111   .     S
C954   C1027   1.530   .     S
C954   O1078   1.411   .     S
C955   H975    1.111   .     S
C955   H976    1.111   .     S
C956   H977    1.109   .     S
C956   C1243   1.527   .     S
C956   H1051   1.111   .     S
C956   H1268   1.110   .     S
C957   C958    1.530   .     S
C957   H982    1.100   .     S
C958   H984    1.111   .     S
C958   C960    1.528   .     S
C959   C302    1.395   1_556 S
C960   H987    1.111   .     S
C960   H986    1.111   .     S
C960   H985    1.111   .     S
C962   C1179   1.332   .     S
C962   H1208   1.087   .     S
C964   O1002   1.288   .     A
C964   O1004   1.293   .     A
C965   O1005   1.291   .     A
C965   O1003   1.291   .     A
C966   H967    1.083   .     S
H970   C1169   1.111   .     S
H981   C1029   1.112   .     S
H983   C1030   1.108   .     S
H993   C1179   1.088   .     S
N995   Zn1008  2.032   .     S
N995   N1068   1.270   .     S
N995   O1078   1.350   .     S
N996   Zn1007  2.032   .     S
O997   Zn1007  1.956   .     S
O998   C1029   1.409   .     S
O998   N1068   1.348   .     S
O999   Zn1008  1.956   .     S
O1000  Zn1008  1.970   .     S
O1001  Zn1007  1.970   .     S
O1002  Zn1007  1.984   .     S
O1003  Zn1008  1.984   .     S
O1004  Zn1008  2.016   .     S
O1005  Zn1007  2.016   .     S
C1009  C1034   1.399   .     S
C1009  O1072   1.290   .     A
C1009  O1069   1.284   .     A
C1010  C1012   1.388   .     A
C1010  C1021   1.393   .     A
C1010  H1050   1.083   .     S
C1011  C1038   1.388   .     A
C1011  C1037   1.416   .     S
C1011  C1013   1.386   .     A
C1012  C1014   1.386   .     A
C1012  C1036   1.415   .     S
C1013  H1060   1.086   .     S
C1013  C1015   1.383   .     A
C1014  C1016   1.382   .     A
C1014  H1061   1.086   .     S
C1015  C1017   1.413   .     A
C1015  C1022   1.397   .     A
C1016  C1023   1.396   .     A
C1016  C1018   1.413   .     A
C1017  C1019   1.421   .     A
C1018  C1021   1.421   .     A
C1018  C369    1.392   1_556 S
C1019  C1033   1.415   .     A
C1019  C1038   1.393   .     A
C1020  O1073   1.289   .     A
C1020  O1071   1.284   .     A
C1020  C1035   1.398   .     S
C1021  C1031   1.415   .     A
C1022  H1062   1.085   .     S
C1023  H1063   1.085   .     S
C1023  C385    1.394   1_556 S
C1024  H1041   1.110   .     S
C1024  C1031   1.509   .     S
C1024  H1040   1.108   .     S
C1024  H1282   1.111   .     S
C1025  H1044   1.109   .     S
C1025  C1033   1.509   .     S
C1025  H1043   1.110   .     S
C1026  H1046   1.099   .     S
C1026  H1045   1.111   .     S
C1026  C883    1.530   1_655 S
C1026  O934    1.411   1_655 S
C1027  H1047   1.111   .     S
C1027  H1048   1.111   .     S
C1028  H1049   1.109   .     S
C1028  C1099   1.527   1_655 S
C1028  H907    1.111   1_655 S
C1028  H1124   1.110   1_655 S
C1029  C1030   1.530   .     S
C1029  H1054   1.100   .     S
C1030  H1056   1.111   .     S
C1030  C1032   1.528   .     S
C1031  C374    1.395   1_556 S
C1032  H1059   1.111   .     S
C1032  H1058   1.111   .     S
C1032  H1057   1.111   .     S
C1034  C1251   1.332   .     S
C1034  H1280   1.087   .     S
C1036  O1074   1.288   .     A
C1036  O1076   1.293   .     A
C1037  O1077   1.291   .     A
C1037  O1075   1.291   .     A
C1038  H1039   1.083   .     S
H1042  C1241   1.111   .     S
H1053  C885    1.112   1_655 S
H1055  C886    1.108   1_655 S
H1065  C1251   1.088   .     S
N1067  Zn1080  2.032   .     S
N1067  N924    1.270   1_655 S
N1067  O934    1.350   1_655 S
N1068  Zn1079  2.032   .     S
O1069  Zn1079  1.956   .     S
O1070  C885    1.409   1_655 S
O1070  N924    1.348   1_655 S
O1071  Zn1080  1.956   .     S
O1072  Zn1080  1.970   .     S
O1073  Zn1079  1.970   .     S
O1074  Zn1079  1.984   .     S
O1075  Zn1080  1.984   .     S
O1076  Zn1080  2.016   .     S
O1077  Zn1079  2.016   .     S
C1081  C1106   1.399   .     S
C1081  O1144   1.290   .     A
C1081  O1141   1.284   .     A
C1082  C1084   1.388   .     A
C1082  C1093   1.393   .     A
C1082  H1122   1.083   .     S
C1083  C1110   1.388   .     A
C1083  C1109   1.416   .     S
C1083  C1085   1.386   .     A
C1084  C1086   1.386   .     A
C1084  C1108   1.415   .     S
C1085  H1132   1.086   .     S
C1085  C1087   1.383   .     A
C1086  C1088   1.382   .     A
C1086  H1133   1.086   .     S
C1087  C1089   1.413   .     A
C1087  C1094   1.397   .     A
C1088  C1095   1.396   .     A
C1088  C1090   1.413   .     A
C1089  C1091   1.421   .     A
C1090  C1093   1.421   .     A
C1090  C441    1.392   1_556 S
C1091  C1105   1.415   .     A
C1091  C1110   1.393   .     A
C1092  O1145   1.289   .     A
C1092  O1143   1.284   .     A
C1092  C1107   1.398   .     S
C1093  C1103   1.415   .     A
C1094  H1134   1.085   .     S
C1095  H1135   1.085   .     S
C1095  C457    1.394   1_556 S
C1096  H1113   1.110   .     S
C1096  C1103   1.509   .     S
C1096  H1112   1.108   .     S
C1096  H706    1.111   1_565 S
C1097  H1116   1.109   .     S
C1097  C1105   1.509   .     S
C1097  H1115   1.110   .     S
C1098  H1118   1.099   .     S
C1098  H1117   1.111   .     S
C1098  C1171   1.530   .     S
C1098  O1222   1.411   .     S
C1099  H1119   1.111   .     S
C1099  H1120   1.111   .     S
C1099  C1242   1.530   1_455 S
C1099  C1028   1.527   1_455 S
C1100  H1121   1.109   .     S
C1100  C739    1.527   1_565 S
C1100  H1195   1.111   .     S
C1100  H764    1.110   1_565 S
C1101  C1102   1.530   .     S
C1101  H1126   1.100   .     S
C1101  H1269   1.112   1_455 S
C1101  O1286   1.409   1_455 S
C1102  H1128   1.111   .     S
C1102  C1104   1.528   .     S
C1102  H1271   1.108   1_455 S
C1103  C446    1.395   1_556 S
C1104  H1131   1.111   .     S
C1104  H1130   1.111   .     S
C1104  H1129   1.111   .     S
C1106  C675    1.332   1_565 S
C1106  H704    1.087   1_565 S
C1108  O1146   1.288   .     A
C1108  O1148   1.293   .     A
C1109  O1149   1.291   .     A
C1109  O1147   1.291   .     A
C1110  H1111   1.083   .     S
H1114  C665    1.111   1_565 S
H1123  C1244   1.111   1_455 S
H1124  C1028   1.110   1_455 S
H1125  C1173   1.112   .     S
H1127  C1174   1.108   .     S
H1137  C675    1.088   1_565 S
N1139  Zn1152  2.032   .     S
N1139  N1212   1.270   .     S
N1139  O1222   1.350   .     S
N1140  Zn1151  2.032   .     S
N1140  N1283   1.270   1_455 S
N1140  O1286   1.348   1_455 S
O1141  Zn1151  1.956   .     S
O1142  C1173   1.409   .     S
O1142  N1212   1.348   .     S
O1143  Zn1152  1.956   .     S
O1144  Zn1152  1.970   .     S
O1145  Zn1151  1.970   .     S
O1146  Zn1151  1.984   .     S
O1147  Zn1152  1.984   .     S
O1148  Zn1152  2.016   .     S
O1149  Zn1151  2.016   .     S
O1150  N1283   1.350   1_455 S
O1150  C1242   1.411   1_455 S
C1153  C1178   1.399   .     S
C1153  O1216   1.290   .     A
C1153  O1213   1.284   .     A
C1154  C1156   1.388   .     A
C1154  C1165   1.393   .     A
C1154  H1194   1.083   .     S
C1155  C1182   1.388   .     A
C1155  C1181   1.416   .     S
C1155  C1157   1.386   .     A
C1156  C1158   1.386   .     A
C1156  C1180   1.415   .     S
C1157  H1204   1.086   .     S
C1157  C1159   1.383   .     A
C1158  C1160   1.382   .     A
C1158  H1205   1.086   .     S
C1159  C1161   1.413   .     A
C1159  C1166   1.397   .     A
C1160  C1167   1.396   .     A
C1160  C1162   1.413   .     A
C1161  C1163   1.421   .     A
C1162  C1165   1.421   .     A
C1162  C513    1.392   1_556 S
C1163  C1177   1.415   .     A
C1163  C1182   1.393   .     A
C1164  O1217   1.289   .     A
C1164  O1215   1.284   .     A
C1164  C1179   1.398   .     S
C1165  C1175   1.415   .     A
C1166  H1206   1.085   .     S
C1167  H1207   1.085   .     S
C1167  C529    1.394   1_556 S
C1168  H1185   1.110   .     S
C1168  C1175   1.509   .     S
C1168  H1184   1.108   .     S
C1168  H778    1.111   1_565 S
C1169  H1188   1.109   .     S
C1169  C1177   1.509   .     S
C1169  H1187   1.110   .     S
C1170  H1190   1.099   .     S
C1170  H1189   1.111   .     S
C1170  C1243   1.530   .     S
C1170  O1294   1.411   .     S
C1171  H1191   1.111   .     S
C1171  H1192   1.111   .     S
C1172  H1193   1.109   .     S
C1172  C811    1.527   1_565 S
C1172  H1267   1.111   .     S
C1172  H836    1.110   1_565 S
C1173  C1174   1.530   .     S
C1173  H1198   1.100   .     S
C1174  H1200   1.111   .     S
C1174  C1176   1.528   .     S
C1175  C518    1.395   1_556 S
C1176  H1203   1.111   .     S
C1176  H1202   1.111   .     S
C1176  H1201   1.111   .     S
C1178  C747    1.332   1_565 S
C1178  H776    1.087   1_565 S
C1180  O1218   1.288   .     A
C1180  O1220   1.293   .     A
C1181  O1221   1.291   .     A
C1181  O1219   1.291   .     A
C1182  H1183   1.083   .     S
H1186  C737    1.111   1_565 S
H1197  C1245   1.112   .     S
H1199  C1246   1.108   .     S
H1209  C747    1.088   1_565 S
N1211  Zn1224  2.032   .     S
N1211  N1284   1.270   .     S
N1211  O1294   1.350   .     S
N1212  Zn1223  2.032   .     S
O1213  Zn1223  1.956   .     S
O1214  C1245   1.409   .     S
O1214  N1284   1.348   .     S
O1215  Zn1224  1.956   .     S
O1216  Zn1224  1.970   .     S
O1217  Zn1223  1.970   .     S
O1218  Zn1223  1.984   .     S
O1219  Zn1224  1.984   .     S
O1220  Zn1224  2.016   .     S
O1221  Zn1223  2.016   .     S
C1225  C1250   1.399   .     S
C1225  O1288   1.290   .     A
C1225  O1285   1.284   .     A
C1226  C1228   1.388   .     A
C1226  C1237   1.393   .     A
C1226  H1266   1.083   .     S
C1227  C1254   1.388   .     A
C1227  C1253   1.416   .     S
C1227  C1229   1.386   .     A
C1228  C1230   1.386   .     A
C1228  C1252   1.415   .     S
C1229  H1276   1.086   .     S
C1229  C1231   1.383   .     A
C1230  C1232   1.382   .     A
C1230  H1277   1.086   .     S
C1231  C1233   1.413   .     A
C1231  C1238   1.397   .     A
C1232  C1239   1.396   .     A
C1232  C1234   1.413   .     A
C1233  C1235   1.421   .     A
C1234  C1237   1.421   .     A
C1234  C585    1.392   1_556 S
C1235  C1249   1.415   .     A
C1235  C1254   1.393   .     A
C1236  O1289   1.289   .     A
C1236  O1287   1.284   .     A
C1236  C1251   1.398   .     S
C1237  C1247   1.415   .     A
C1238  H1278   1.085   .     S
C1239  H1279   1.085   .     S
C1239  C601    1.394   1_556 S
C1240  H1257   1.110   .     S
C1240  C1247   1.509   .     S
C1240  H1256   1.108   .     S
C1240  H850    1.111   1_565 S
C1241  H1260   1.109   .     S
C1241  C1249   1.509   .     S
C1241  H1259   1.110   .     S
C1242  H1262   1.099   .     S
C1242  H1261   1.111   .     S
C1242  C1099   1.530   1_655 S
C1242  O1150   1.411   1_655 S
C1243  H1263   1.111   .     S
C1243  H1264   1.111   .     S
C1244  H1265   1.109   .     S
C1244  C667    1.527   1_665 S
C1244  H1123   1.111   1_655 S
C1244  H692    1.110   1_665 S
C1245  C1246   1.530   .     S
C1245  H1270   1.100   .     S
C1246  H1272   1.111   .     S
C1246  C1248   1.528   .     S
C1247  C590    1.395   1_556 S
C1248  H1275   1.111   .     S
C1248  H1274   1.111   .     S
C1248  H1273   1.111   .     S
C1250  C819    1.332   1_565 S
C1250  H848    1.087   1_565 S
C1252  O1290   1.288   .     A
C1252  O1292   1.293   .     A
C1253  O1293   1.291   .     A
C1253  O1291   1.291   .     A
C1254  H1255   1.083   .     S
H1258  C809    1.111   1_565 S
H1269  C1101   1.112   1_655 S
H1271  C1102   1.108   1_655 S
H1281  C819    1.088   1_565 S
N1283  Zn1296  2.032   .     S
N1283  N1140   1.270   1_655 S
N1283  O1150   1.350   1_655 S
N1284  Zn1295  2.032   .     S
O1285  Zn1295  1.956   .     S
O1286  C1101   1.409   1_655 S
O1286  N1140   1.348   1_655 S
O1287  Zn1296  1.956   .     S
O1288  Zn1296  1.970   .     S
O1289  Zn1295  1.970   .     S
O1290  Zn1295  1.984   .     S
O1291  Zn1296  1.984   .     S
O1292  Zn1296  2.016   .     S
O1293  Zn1295  2.016   .     S
