data_str_m3_o2_o5_pcu_sym.95
_audit_creation_date              2020-01-03
_audit_creation_method            'Materials Studio'
_symmetry_space_group_name_H-M    'P1'
_symmetry_Int_Tables_number       1
_symmetry_cell_setting            triclinic
loop_
_symmetry_equiv_pos_as_xyz
  x,y,z
_cell_length_a                    29.9176
_cell_length_b                    28.3518
_cell_length_c                    26.7315
_cell_angle_alpha                 90.0722
_cell_angle_beta                  89.9965
_cell_angle_gamma                 90.0000
loop_
_atom_site_label
_atom_site_type_symbol
_atom_site_fract_x
_atom_site_fract_y
_atom_site_fract_z
_atom_site_U_iso_or_equiv
_atom_site_adp_type
_atom_site_occupancy
C1     C     0.16383   0.25000   0.16667   0.00000  Uiso   1.00
C2     C     0.21206   0.44750   0.15161   0.00000  Uiso   1.00
C3     C     0.25014   0.24998   0.07285   0.00000  Uiso   1.00
C4     C     0.25014   0.25002   0.26049   0.00000  Uiso   1.00
C5     C     0.24994   0.02663   0.16665   0.00000  Uiso   1.00
C6     C     0.24994   0.47337   0.16668   0.00000  Uiso   1.00
C7     C     0.25028   0.24997   0.02178   0.00000  Uiso   1.00
C8     C     0.25028   0.25003   0.31155   0.00000  Uiso   1.00
C9     C     0.04619   0.28305   0.19567   0.00000  Uiso   1.00
C10    C     0.45330   0.21906   0.19819   0.00000  Uiso   1.00
C11    C     0.45330   0.28095   0.13515   0.00000  Uiso   1.00
C12    C     0.33604   0.25000   0.16666   0.00000  Uiso   1.00
C13    C     0.04619   0.21695   0.13767   0.00000  Uiso   1.00
C14    C     0.09269   0.28420   0.19503   0.00000  Uiso   1.00
C15    C     0.40699   0.21953   0.19919   0.00000  Uiso   1.00
C16    C     0.40700   0.28047   0.13414   0.00000  Uiso   1.00
C17    C     0.09269   0.21580   0.13832   0.00000  Uiso   1.00
C18    C     0.11567   0.25000   0.16667   0.00000  Uiso   1.00
C19    C     0.38395   0.25000   0.16666   0.00000  Uiso   1.00
C20    C     0.02364   0.25000   0.16667   0.00000  Uiso   1.00
C21    C     0.47591   0.25000   0.16667   0.00000  Uiso   1.00
C22    C     0.10513   0.36210   0.21432   0.00000  Uiso   1.00
C23    C     0.21292   0.10216   0.18183   0.00000  Uiso   1.00
C24    C     0.37936   0.21141   0.27760   0.00000  Uiso   1.00
C25    C     0.37938   0.28859   0.05572   0.00000  Uiso   1.00
C26    C     0.10514   0.13790   0.11904   0.00000  Uiso   1.00
C27    C     0.28710   0.39791   0.18172   0.00000  Uiso   1.00
C28    C     0.28709   0.10209   0.15160   0.00000  Uiso   1.00
C29    C     0.21292   0.39784   0.15152   0.00000  Uiso   1.00
C30    C     0.21207   0.05250   0.18174   0.00000  Uiso   1.00
C31    C     0.28786   0.44757   0.18172   0.00000  Uiso   1.00
C32    C     0.28785   0.05243   0.15160   0.00000  Uiso   1.00
H33    H     0.18379   0.12141   0.19428   0.00000  Uiso   1.00
H34    H     0.13146   0.38544   0.22988   0.00000  Uiso   1.00
H35    H     0.10374   0.36863   0.17323   0.00000  Uiso   1.00
H36    H     0.36013   0.18768   0.30259   0.00000  Uiso   1.00
H37    H     0.41238   0.21798   0.29548   0.00000  Uiso   1.00
H38    H     0.36022   0.24496   0.27436   0.00000  Uiso   1.00
H39    H     0.36023   0.25504   0.05897   0.00000  Uiso   1.00
H40    H     0.41240   0.28202   0.03784   0.00000  Uiso   1.00
H41    H     0.36016   0.31231   0.03073   0.00000  Uiso   1.00
H42    H     0.07306   0.12779   0.10110   0.00000  Uiso   1.00
H43    H     0.13146   0.11456   0.10347   0.00000  Uiso   1.00
H44    H     0.31636   0.37873   0.19391   0.00000  Uiso   1.00
H45    H     0.10376   0.13137   0.16013   0.00000  Uiso   1.00
H46    H     0.18218   0.03452   0.19427   0.00000  Uiso   1.00
H47    H     0.31774   0.46561   0.19421   0.00000  Uiso   1.00
H48    H     0.31773   0.03439   0.13909   0.00000  Uiso   1.00
H49    H     0.18217   0.46548   0.13910   0.00000  Uiso   1.00
H50    H     0.31635   0.12127   0.13939   0.00000  Uiso   1.00
H51    H     0.18378   0.37859   0.13908   0.00000  Uiso   1.00
H52    H     0.02751   0.30738   0.21893   0.00000  Uiso   1.00
H53    H     0.47156   0.19521   0.22238   0.00000  Uiso   1.00
H54    H     0.47157   0.30480   0.11095   0.00000  Uiso   1.00
H55    H     0.02752   0.19263   0.11441   0.00000  Uiso   1.00
H56    H     0.07305   0.37220   0.23227   0.00000  Uiso   1.00
N57    N     0.25000   0.12624   0.16667   0.00000  Uiso   1.00
N58    N     0.25000   0.37377   0.16667   0.00000  Uiso   1.00
O59    O     0.18453   0.28974   0.16667   0.00000  Uiso   1.00
O60    O     0.38436   0.18916   0.23073   0.00000  Uiso   1.00
O61    O     0.38437   0.31084   0.10260   0.00000  Uiso   1.00
O62    O     0.11628   0.18507   0.10763   0.00000  Uiso   1.00
O63    O     0.31547   0.21026   0.16666   0.00000  Uiso   1.00
O64    O     0.31547   0.28974   0.16666   0.00000  Uiso   1.00
O65    O     0.18453   0.21026   0.16667   0.00000  Uiso   1.00
O66    O     0.25000   0.28973   0.09511   0.00000  Uiso   1.00
O67    O     0.25000   0.21027   0.23822   0.00000  Uiso   1.00
O68    O     0.25000   0.28973   0.23822   0.00000  Uiso   1.00
O69    O     0.25000   0.21027   0.09511   0.00000  Uiso   1.00
O70    O     0.11628   0.31493   0.22572   0.00000  Uiso   1.00
Zn71   Zn    0.25000   0.30307   0.16667   0.00000  Uiso   1.00
Zn72   Zn    0.25000   0.19693   0.16667   0.00000  Uiso   1.00
C73    C     0.66383   0.25000   0.16667   0.00000  Uiso   1.00
C74    C     0.71206   0.44750   0.15161   0.00000  Uiso   1.00
C75    C     0.75014   0.24998   0.07285   0.00000  Uiso   1.00
C76    C     0.75014   0.25002   0.26049   0.00000  Uiso   1.00
C77    C     0.74994   0.02663   0.16665   0.00000  Uiso   1.00
C78    C     0.74994   0.47337   0.16668   0.00000  Uiso   1.00
C79    C     0.75028   0.24997   0.02178   0.00000  Uiso   1.00
C80    C     0.75028   0.25003   0.31155   0.00000  Uiso   1.00
C81    C     0.54619   0.28305   0.19567   0.00000  Uiso   1.00
C82    C     0.95330   0.21906   0.19819   0.00000  Uiso   1.00
C83    C     0.95330   0.28095   0.13515   0.00000  Uiso   1.00
C84    C     0.83604   0.25000   0.16666   0.00000  Uiso   1.00
C85    C     0.54619   0.21695   0.13767   0.00000  Uiso   1.00
C86    C     0.59269   0.28420   0.19503   0.00000  Uiso   1.00
C87    C     0.90699   0.21953   0.19919   0.00000  Uiso   1.00
C88    C     0.90700   0.28047   0.13414   0.00000  Uiso   1.00
C89    C     0.59269   0.21580   0.13832   0.00000  Uiso   1.00
C90    C     0.61567   0.25000   0.16667   0.00000  Uiso   1.00
C91    C     0.88395   0.25000   0.16666   0.00000  Uiso   1.00
C92    C     0.52364   0.25000   0.16667   0.00000  Uiso   1.00
C93    C     0.97591   0.25000   0.16667   0.00000  Uiso   1.00
C94    C     0.60513   0.36210   0.21432   0.00000  Uiso   1.00
C95    C     0.71292   0.10216   0.18183   0.00000  Uiso   1.00
C96    C     0.87936   0.21141   0.27760   0.00000  Uiso   1.00
C97    C     0.87938   0.28859   0.05572   0.00000  Uiso   1.00
C98    C     0.60514   0.13790   0.11904   0.00000  Uiso   1.00
C99    C     0.78710   0.39791   0.18172   0.00000  Uiso   1.00
C100   C     0.78709   0.10209   0.15160   0.00000  Uiso   1.00
C101   C     0.71292   0.39784   0.15152   0.00000  Uiso   1.00
C102   C     0.71207   0.05250   0.18174   0.00000  Uiso   1.00
C103   C     0.78786   0.44757   0.18172   0.00000  Uiso   1.00
C104   C     0.78785   0.05243   0.15160   0.00000  Uiso   1.00
H105   H     0.68379   0.12141   0.19428   0.00000  Uiso   1.00
H106   H     0.63146   0.38544   0.22988   0.00000  Uiso   1.00
H107   H     0.60374   0.36863   0.17323   0.00000  Uiso   1.00
H108   H     0.86013   0.18768   0.30259   0.00000  Uiso   1.00
H109   H     0.91238   0.21798   0.29548   0.00000  Uiso   1.00
H110   H     0.86022   0.24496   0.27436   0.00000  Uiso   1.00
H111   H     0.86023   0.25504   0.05897   0.00000  Uiso   1.00
H112   H     0.91240   0.28202   0.03784   0.00000  Uiso   1.00
H113   H     0.86016   0.31231   0.03073   0.00000  Uiso   1.00
H114   H     0.57306   0.12779   0.10110   0.00000  Uiso   1.00
H115   H     0.63146   0.11456   0.10347   0.00000  Uiso   1.00
H116   H     0.81636   0.37873   0.19391   0.00000  Uiso   1.00
H117   H     0.60376   0.13137   0.16013   0.00000  Uiso   1.00
H118   H     0.68218   0.03452   0.19427   0.00000  Uiso   1.00
H119   H     0.81774   0.46561   0.19421   0.00000  Uiso   1.00
H120   H     0.81773   0.03439   0.13909   0.00000  Uiso   1.00
H121   H     0.68217   0.46548   0.13910   0.00000  Uiso   1.00
H122   H     0.81635   0.12127   0.13939   0.00000  Uiso   1.00
H123   H     0.68378   0.37859   0.13908   0.00000  Uiso   1.00
H124   H     0.52751   0.30738   0.21893   0.00000  Uiso   1.00
H125   H     0.97156   0.19521   0.22238   0.00000  Uiso   1.00
H126   H     0.97157   0.30480   0.11095   0.00000  Uiso   1.00
H127   H     0.52752   0.19263   0.11441   0.00000  Uiso   1.00
H128   H     0.57305   0.37220   0.23227   0.00000  Uiso   1.00
N129   N     0.75000   0.12624   0.16667   0.00000  Uiso   1.00
N130   N     0.75000   0.37377   0.16667   0.00000  Uiso   1.00
O131   O     0.68453   0.28974   0.16667   0.00000  Uiso   1.00
O132   O     0.88436   0.18916   0.23073   0.00000  Uiso   1.00
O133   O     0.88437   0.31084   0.10260   0.00000  Uiso   1.00
O134   O     0.61628   0.18507   0.10763   0.00000  Uiso   1.00
O135   O     0.81547   0.21026   0.16666   0.00000  Uiso   1.00
O136   O     0.81547   0.28974   0.16666   0.00000  Uiso   1.00
O137   O     0.68453   0.21026   0.16667   0.00000  Uiso   1.00
O138   O     0.75000   0.28973   0.09511   0.00000  Uiso   1.00
O139   O     0.75000   0.21027   0.23822   0.00000  Uiso   1.00
O140   O     0.75000   0.28973   0.23822   0.00000  Uiso   1.00
O141   O     0.75000   0.21027   0.09511   0.00000  Uiso   1.00
O142   O     0.61628   0.31493   0.22572   0.00000  Uiso   1.00
Zn143  Zn    0.75000   0.30307   0.16667   0.00000  Uiso   1.00
Zn144  Zn    0.75000   0.19693   0.16667   0.00000  Uiso   1.00
C145   C     0.16383   0.75000   0.16667   0.00000  Uiso   1.00
C146   C     0.21206   0.94750   0.15161   0.00000  Uiso   1.00
C147   C     0.25014   0.74998   0.07285   0.00000  Uiso   1.00
C148   C     0.25014   0.75002   0.26049   0.00000  Uiso   1.00
C149   C     0.24994   0.52663   0.16665   0.00000  Uiso   1.00
C150   C     0.24994   0.97337   0.16668   0.00000  Uiso   1.00
C151   C     0.25028   0.74997   0.02178   0.00000  Uiso   1.00
C152   C     0.25028   0.75003   0.31155   0.00000  Uiso   1.00
C153   C     0.04619   0.78305   0.19567   0.00000  Uiso   1.00
C154   C     0.45330   0.71906   0.19819   0.00000  Uiso   1.00
C155   C     0.45330   0.78095   0.13515   0.00000  Uiso   1.00
C156   C     0.33604   0.75000   0.16666   0.00000  Uiso   1.00
C157   C     0.04619   0.71695   0.13767   0.00000  Uiso   1.00
C158   C     0.09269   0.78420   0.19503   0.00000  Uiso   1.00
C159   C     0.40699   0.71953   0.19919   0.00000  Uiso   1.00
C160   C     0.40700   0.78047   0.13414   0.00000  Uiso   1.00
C161   C     0.09269   0.71580   0.13832   0.00000  Uiso   1.00
C162   C     0.11567   0.75000   0.16667   0.00000  Uiso   1.00
C163   C     0.38395   0.75000   0.16666   0.00000  Uiso   1.00
C164   C     0.02364   0.75000   0.16667   0.00000  Uiso   1.00
C165   C     0.47591   0.75000   0.16667   0.00000  Uiso   1.00
C166   C     0.10513   0.86210   0.21432   0.00000  Uiso   1.00
C167   C     0.21292   0.60216   0.18183   0.00000  Uiso   1.00
C168   C     0.37936   0.71141   0.27760   0.00000  Uiso   1.00
C169   C     0.37938   0.78859   0.05572   0.00000  Uiso   1.00
C170   C     0.10514   0.63790   0.11904   0.00000  Uiso   1.00
C171   C     0.28710   0.89791   0.18172   0.00000  Uiso   1.00
C172   C     0.28709   0.60209   0.15160   0.00000  Uiso   1.00
C173   C     0.21292   0.89784   0.15152   0.00000  Uiso   1.00
C174   C     0.21207   0.55250   0.18174   0.00000  Uiso   1.00
C175   C     0.28786   0.94757   0.18172   0.00000  Uiso   1.00
C176   C     0.28785   0.55243   0.15160   0.00000  Uiso   1.00
H177   H     0.18379   0.62141   0.19428   0.00000  Uiso   1.00
H178   H     0.13146   0.88544   0.22988   0.00000  Uiso   1.00
H179   H     0.10374   0.86863   0.17323   0.00000  Uiso   1.00
H180   H     0.36013   0.68768   0.30259   0.00000  Uiso   1.00
H181   H     0.41238   0.71798   0.29548   0.00000  Uiso   1.00
H182   H     0.36022   0.74496   0.27436   0.00000  Uiso   1.00
H183   H     0.36023   0.75504   0.05897   0.00000  Uiso   1.00
H184   H     0.41240   0.78202   0.03784   0.00000  Uiso   1.00
H185   H     0.36016   0.81231   0.03073   0.00000  Uiso   1.00
H186   H     0.07306   0.62779   0.10110   0.00000  Uiso   1.00
H187   H     0.13146   0.61456   0.10347   0.00000  Uiso   1.00
H188   H     0.31636   0.87873   0.19391   0.00000  Uiso   1.00
H189   H     0.10376   0.63137   0.16013   0.00000  Uiso   1.00
H190   H     0.18218   0.53452   0.19427   0.00000  Uiso   1.00
H191   H     0.31774   0.96561   0.19421   0.00000  Uiso   1.00
H192   H     0.31773   0.53439   0.13909   0.00000  Uiso   1.00
H193   H     0.18217   0.96548   0.13910   0.00000  Uiso   1.00
H194   H     0.31635   0.62127   0.13939   0.00000  Uiso   1.00
H195   H     0.18378   0.87859   0.13908   0.00000  Uiso   1.00
H196   H     0.02751   0.80738   0.21893   0.00000  Uiso   1.00
H197   H     0.47156   0.69521   0.22238   0.00000  Uiso   1.00
H198   H     0.47157   0.80480   0.11095   0.00000  Uiso   1.00
H199   H     0.02752   0.69263   0.11441   0.00000  Uiso   1.00
H200   H     0.07305   0.87220   0.23227   0.00000  Uiso   1.00
N201   N     0.25000   0.62624   0.16667   0.00000  Uiso   1.00
N202   N     0.25000   0.87377   0.16667   0.00000  Uiso   1.00
O203   O     0.18453   0.78974   0.16667   0.00000  Uiso   1.00
O204   O     0.38436   0.68916   0.23073   0.00000  Uiso   1.00
O205   O     0.38437   0.81084   0.10260   0.00000  Uiso   1.00
O206   O     0.11628   0.68507   0.10763   0.00000  Uiso   1.00
O207   O     0.31547   0.71026   0.16666   0.00000  Uiso   1.00
O208   O     0.31547   0.78974   0.16666   0.00000  Uiso   1.00
O209   O     0.18453   0.71026   0.16667   0.00000  Uiso   1.00
O210   O     0.25000   0.78973   0.09511   0.00000  Uiso   1.00
O211   O     0.25000   0.71027   0.23822   0.00000  Uiso   1.00
O212   O     0.25000   0.78973   0.23822   0.00000  Uiso   1.00
O213   O     0.25000   0.71027   0.09511   0.00000  Uiso   1.00
O214   O     0.11628   0.81493   0.22572   0.00000  Uiso   1.00
Zn215  Zn    0.25000   0.80307   0.16667   0.00000  Uiso   1.00
Zn216  Zn    0.25000   0.69693   0.16667   0.00000  Uiso   1.00
C217   C     0.66383   0.75000   0.16667   0.00000  Uiso   1.00
C218   C     0.71206   0.94750   0.15161   0.00000  Uiso   1.00
C219   C     0.75014   0.74998   0.07285   0.00000  Uiso   1.00
C220   C     0.75014   0.75002   0.26049   0.00000  Uiso   1.00
C221   C     0.74994   0.52663   0.16665   0.00000  Uiso   1.00
C222   C     0.74994   0.97337   0.16668   0.00000  Uiso   1.00
C223   C     0.75028   0.74997   0.02178   0.00000  Uiso   1.00
C224   C     0.75028   0.75003   0.31155   0.00000  Uiso   1.00
C225   C     0.54619   0.78305   0.19567   0.00000  Uiso   1.00
C226   C     0.95330   0.71906   0.19819   0.00000  Uiso   1.00
C227   C     0.95330   0.78095   0.13515   0.00000  Uiso   1.00
C228   C     0.83604   0.75000   0.16666   0.00000  Uiso   1.00
C229   C     0.54619   0.71695   0.13767   0.00000  Uiso   1.00
C230   C     0.59269   0.78420   0.19503   0.00000  Uiso   1.00
C231   C     0.90699   0.71953   0.19919   0.00000  Uiso   1.00
C232   C     0.90700   0.78047   0.13414   0.00000  Uiso   1.00
C233   C     0.59269   0.71580   0.13832   0.00000  Uiso   1.00
C234   C     0.61567   0.75000   0.16667   0.00000  Uiso   1.00
C235   C     0.88395   0.75000   0.16666   0.00000  Uiso   1.00
C236   C     0.52364   0.75000   0.16667   0.00000  Uiso   1.00
C237   C     0.97591   0.75000   0.16667   0.00000  Uiso   1.00
C238   C     0.60513   0.86210   0.21432   0.00000  Uiso   1.00
C239   C     0.71292   0.60216   0.18183   0.00000  Uiso   1.00
C240   C     0.87936   0.71141   0.27760   0.00000  Uiso   1.00
C241   C     0.87938   0.78859   0.05572   0.00000  Uiso   1.00
C242   C     0.60514   0.63790   0.11904   0.00000  Uiso   1.00
C243   C     0.78710   0.89791   0.18172   0.00000  Uiso   1.00
C244   C     0.78709   0.60209   0.15160   0.00000  Uiso   1.00
C245   C     0.71292   0.89784   0.15152   0.00000  Uiso   1.00
C246   C     0.71207   0.55250   0.18174   0.00000  Uiso   1.00
C247   C     0.78786   0.94757   0.18172   0.00000  Uiso   1.00
C248   C     0.78785   0.55243   0.15160   0.00000  Uiso   1.00
H249   H     0.68379   0.62141   0.19428   0.00000  Uiso   1.00
H250   H     0.63146   0.88544   0.22988   0.00000  Uiso   1.00
H251   H     0.60374   0.86863   0.17323   0.00000  Uiso   1.00
H252   H     0.86013   0.68768   0.30259   0.00000  Uiso   1.00
H253   H     0.91238   0.71798   0.29548   0.00000  Uiso   1.00
H254   H     0.86022   0.74496   0.27436   0.00000  Uiso   1.00
H255   H     0.86023   0.75504   0.05897   0.00000  Uiso   1.00
H256   H     0.91240   0.78202   0.03784   0.00000  Uiso   1.00
H257   H     0.86016   0.81231   0.03073   0.00000  Uiso   1.00
H258   H     0.57306   0.62779   0.10110   0.00000  Uiso   1.00
H259   H     0.63146   0.61456   0.10347   0.00000  Uiso   1.00
H260   H     0.81636   0.87873   0.19391   0.00000  Uiso   1.00
H261   H     0.60376   0.63137   0.16013   0.00000  Uiso   1.00
H262   H     0.68218   0.53452   0.19427   0.00000  Uiso   1.00
H263   H     0.81774   0.96561   0.19421   0.00000  Uiso   1.00
H264   H     0.81773   0.53439   0.13909   0.00000  Uiso   1.00
H265   H     0.68217   0.96548   0.13910   0.00000  Uiso   1.00
H266   H     0.81635   0.62127   0.13939   0.00000  Uiso   1.00
H267   H     0.68378   0.87859   0.13908   0.00000  Uiso   1.00
H268   H     0.52751   0.80738   0.21893   0.00000  Uiso   1.00
H269   H     0.97156   0.69521   0.22238   0.00000  Uiso   1.00
H270   H     0.97157   0.80480   0.11095   0.00000  Uiso   1.00
H271   H     0.52752   0.69263   0.11441   0.00000  Uiso   1.00
H272   H     0.57305   0.87220   0.23227   0.00000  Uiso   1.00
N273   N     0.75000   0.62624   0.16667   0.00000  Uiso   1.00
N274   N     0.75000   0.87377   0.16667   0.00000  Uiso   1.00
O275   O     0.68453   0.78974   0.16667   0.00000  Uiso   1.00
O276   O     0.88436   0.68916   0.23073   0.00000  Uiso   1.00
O277   O     0.88437   0.81084   0.10260   0.00000  Uiso   1.00
O278   O     0.61628   0.68507   0.10763   0.00000  Uiso   1.00
O279   O     0.81547   0.71026   0.16666   0.00000  Uiso   1.00
O280   O     0.81547   0.78974   0.16666   0.00000  Uiso   1.00
O281   O     0.68453   0.71026   0.16667   0.00000  Uiso   1.00
O282   O     0.75000   0.78973   0.09511   0.00000  Uiso   1.00
O283   O     0.75000   0.71027   0.23822   0.00000  Uiso   1.00
O284   O     0.75000   0.78973   0.23822   0.00000  Uiso   1.00
O285   O     0.75000   0.71027   0.09511   0.00000  Uiso   1.00
O286   O     0.61628   0.81493   0.22572   0.00000  Uiso   1.00
Zn287  Zn    0.75000   0.80307   0.16667   0.00000  Uiso   1.00
Zn288  Zn    0.75000   0.69693   0.16667   0.00000  Uiso   1.00
C289   C     0.16383   0.25000   0.50000   0.00000  Uiso   1.00
C290   C     0.21206   0.44750   0.48494   0.00000  Uiso   1.00
C291   C     0.25014   0.24998   0.40618   0.00000  Uiso   1.00
C292   C     0.25014   0.25002   0.59382   0.00000  Uiso   1.00
C293   C     0.24994   0.02663   0.49998   0.00000  Uiso   1.00
C294   C     0.24994   0.47337   0.50002   0.00000  Uiso   1.00
C295   C     0.25028   0.24997   0.35512   0.00000  Uiso   1.00
C296   C     0.25028   0.25003   0.64488   0.00000  Uiso   1.00
C297   C     0.04619   0.28305   0.52900   0.00000  Uiso   1.00
C298   C     0.45330   0.21906   0.53152   0.00000  Uiso   1.00
C299   C     0.45330   0.28095   0.46848   0.00000  Uiso   1.00
C300   C     0.33604   0.25000   0.50000   0.00000  Uiso   1.00
C301   C     0.04619   0.21695   0.47101   0.00000  Uiso   1.00
C302   C     0.09269   0.28420   0.52836   0.00000  Uiso   1.00
C303   C     0.40699   0.21953   0.53252   0.00000  Uiso   1.00
C304   C     0.40700   0.28047   0.46747   0.00000  Uiso   1.00
C305   C     0.09269   0.21580   0.47165   0.00000  Uiso   1.00
C306   C     0.11567   0.25000   0.50001   0.00000  Uiso   1.00
C307   C     0.38395   0.25000   0.50000   0.00000  Uiso   1.00
C308   C     0.02364   0.25000   0.50000   0.00000  Uiso   1.00
C309   C     0.47591   0.25000   0.50000   0.00000  Uiso   1.00
C310   C     0.10513   0.36210   0.54765   0.00000  Uiso   1.00
C311   C     0.21292   0.10216   0.51517   0.00000  Uiso   1.00
C312   C     0.37936   0.21141   0.61094   0.00000  Uiso   1.00
C313   C     0.37938   0.28859   0.38906   0.00000  Uiso   1.00
C314   C     0.10514   0.13790   0.45237   0.00000  Uiso   1.00
C315   C     0.28710   0.39791   0.51505   0.00000  Uiso   1.00
C316   C     0.28709   0.10209   0.48493   0.00000  Uiso   1.00
C317   C     0.21292   0.39784   0.48485   0.00000  Uiso   1.00
C318   C     0.21207   0.05250   0.51508   0.00000  Uiso   1.00
C319   C     0.28786   0.44757   0.51505   0.00000  Uiso   1.00
C320   C     0.28785   0.05243   0.48493   0.00000  Uiso   1.00
H321   H     0.18379   0.12141   0.52762   0.00000  Uiso   1.00
H322   H     0.13146   0.38544   0.56322   0.00000  Uiso   1.00
H323   H     0.10374   0.36863   0.50657   0.00000  Uiso   1.00
H324   H     0.36013   0.18768   0.63592   0.00000  Uiso   1.00
H325   H     0.41238   0.21798   0.62882   0.00000  Uiso   1.00
H326   H     0.36022   0.24496   0.60770   0.00000  Uiso   1.00
H327   H     0.36023   0.25504   0.39230   0.00000  Uiso   1.00
H328   H     0.41240   0.28202   0.37118   0.00000  Uiso   1.00
H329   H     0.36016   0.31231   0.36406   0.00000  Uiso   1.00
H330   H     0.07306   0.12779   0.43444   0.00000  Uiso   1.00
H331   H     0.13146   0.11456   0.43680   0.00000  Uiso   1.00
H332   H     0.31636   0.37873   0.52725   0.00000  Uiso   1.00
H333   H     0.10376   0.13137   0.49346   0.00000  Uiso   1.00
H334   H     0.18218   0.03452   0.52760   0.00000  Uiso   1.00
H335   H     0.31774   0.46561   0.52754   0.00000  Uiso   1.00
H336   H     0.31773   0.03439   0.47243   0.00000  Uiso   1.00
H337   H     0.18217   0.46548   0.47243   0.00000  Uiso   1.00
H338   H     0.31635   0.12127   0.47272   0.00000  Uiso   1.00
H339   H     0.18378   0.37859   0.47242   0.00000  Uiso   1.00
H340   H     0.02751   0.30738   0.55227   0.00000  Uiso   1.00
H341   H     0.47156   0.19521   0.55572   0.00000  Uiso   1.00
H342   H     0.47157   0.30480   0.44429   0.00000  Uiso   1.00
H343   H     0.02752   0.19263   0.44774   0.00000  Uiso   1.00
H344   H     0.07305   0.37220   0.56560   0.00000  Uiso   1.00
N345   N     0.25000   0.12624   0.50000   0.00000  Uiso   1.00
N346   N     0.25000   0.37377   0.50000   0.00000  Uiso   1.00
O347   O     0.18453   0.28974   0.50000   0.00000  Uiso   1.00
O348   O     0.38436   0.18916   0.56406   0.00000  Uiso   1.00
O349   O     0.38437   0.31084   0.43593   0.00000  Uiso   1.00
O350   O     0.11628   0.18507   0.44096   0.00000  Uiso   1.00
O351   O     0.31547   0.21026   0.50000   0.00000  Uiso   1.00
O352   O     0.31547   0.28974   0.50000   0.00000  Uiso   1.00
O353   O     0.18453   0.21026   0.50000   0.00000  Uiso   1.00
O354   O     0.25000   0.28973   0.42845   0.00000  Uiso   1.00
O355   O     0.25000   0.21027   0.57155   0.00000  Uiso   1.00
O356   O     0.25000   0.28973   0.57155   0.00000  Uiso   1.00
O357   O     0.25000   0.21027   0.42845   0.00000  Uiso   1.00
O358   O     0.11628   0.31493   0.55905   0.00000  Uiso   1.00
Zn359  Zn    0.25000   0.30307   0.50000   0.00000  Uiso   1.00
Zn360  Zn    0.25000   0.19693   0.50000   0.00000  Uiso   1.00
C361   C     0.66383   0.25000   0.50000   0.00000  Uiso   1.00
C362   C     0.71206   0.44750   0.48494   0.00000  Uiso   1.00
C363   C     0.75014   0.24998   0.40618   0.00000  Uiso   1.00
C364   C     0.75014   0.25002   0.59382   0.00000  Uiso   1.00
C365   C     0.74994   0.02663   0.49998   0.00000  Uiso   1.00
C366   C     0.74994   0.47337   0.50002   0.00000  Uiso   1.00
C367   C     0.75028   0.24997   0.35512   0.00000  Uiso   1.00
C368   C     0.75028   0.25003   0.64488   0.00000  Uiso   1.00
C369   C     0.54619   0.28305   0.52900   0.00000  Uiso   1.00
C370   C     0.95330   0.21906   0.53152   0.00000  Uiso   1.00
C371   C     0.95330   0.28095   0.46848   0.00000  Uiso   1.00
C372   C     0.83604   0.25000   0.50000   0.00000  Uiso   1.00
C373   C     0.54619   0.21695   0.47101   0.00000  Uiso   1.00
C374   C     0.59269   0.28420   0.52836   0.00000  Uiso   1.00
C375   C     0.90699   0.21953   0.53252   0.00000  Uiso   1.00
C376   C     0.90700   0.28047   0.46747   0.00000  Uiso   1.00
C377   C     0.59269   0.21580   0.47165   0.00000  Uiso   1.00
C378   C     0.61567   0.25000   0.50001   0.00000  Uiso   1.00
C379   C     0.88395   0.25000   0.50000   0.00000  Uiso   1.00
C380   C     0.52364   0.25000   0.50000   0.00000  Uiso   1.00
C381   C     0.97591   0.25000   0.50000   0.00000  Uiso   1.00
C382   C     0.60513   0.36210   0.54765   0.00000  Uiso   1.00
C383   C     0.71292   0.10216   0.51517   0.00000  Uiso   1.00
C384   C     0.87936   0.21141   0.61094   0.00000  Uiso   1.00
C385   C     0.87938   0.28859   0.38906   0.00000  Uiso   1.00
C386   C     0.60514   0.13790   0.45237   0.00000  Uiso   1.00
C387   C     0.78710   0.39791   0.51505   0.00000  Uiso   1.00
C388   C     0.78709   0.10209   0.48493   0.00000  Uiso   1.00
C389   C     0.71292   0.39784   0.48485   0.00000  Uiso   1.00
C390   C     0.71207   0.05250   0.51508   0.00000  Uiso   1.00
C391   C     0.78786   0.44757   0.51505   0.00000  Uiso   1.00
C392   C     0.78785   0.05243   0.48493   0.00000  Uiso   1.00
H393   H     0.68379   0.12141   0.52762   0.00000  Uiso   1.00
H394   H     0.63146   0.38544   0.56322   0.00000  Uiso   1.00
H395   H     0.60374   0.36863   0.50657   0.00000  Uiso   1.00
H396   H     0.86013   0.18768   0.63592   0.00000  Uiso   1.00
H397   H     0.91238   0.21798   0.62882   0.00000  Uiso   1.00
H398   H     0.86022   0.24496   0.60770   0.00000  Uiso   1.00
H399   H     0.86023   0.25504   0.39230   0.00000  Uiso   1.00
H400   H     0.91240   0.28202   0.37118   0.00000  Uiso   1.00
H401   H     0.86016   0.31231   0.36406   0.00000  Uiso   1.00
H402   H     0.57306   0.12779   0.43444   0.00000  Uiso   1.00
H403   H     0.63146   0.11456   0.43680   0.00000  Uiso   1.00
H404   H     0.81636   0.37873   0.52725   0.00000  Uiso   1.00
H405   H     0.60376   0.13137   0.49346   0.00000  Uiso   1.00
H406   H     0.68218   0.03452   0.52760   0.00000  Uiso   1.00
H407   H     0.81774   0.46561   0.52754   0.00000  Uiso   1.00
H408   H     0.81773   0.03439   0.47243   0.00000  Uiso   1.00
H409   H     0.68217   0.46548   0.47243   0.00000  Uiso   1.00
H410   H     0.81635   0.12127   0.47272   0.00000  Uiso   1.00
H411   H     0.68378   0.37859   0.47242   0.00000  Uiso   1.00
H412   H     0.52751   0.30738   0.55227   0.00000  Uiso   1.00
H413   H     0.97156   0.19521   0.55572   0.00000  Uiso   1.00
H414   H     0.97157   0.30480   0.44429   0.00000  Uiso   1.00
H415   H     0.52752   0.19263   0.44774   0.00000  Uiso   1.00
H416   H     0.57305   0.37220   0.56560   0.00000  Uiso   1.00
N417   N     0.75000   0.12624   0.50000   0.00000  Uiso   1.00
N418   N     0.75000   0.37377   0.50000   0.00000  Uiso   1.00
O419   O     0.68453   0.28974   0.50000   0.00000  Uiso   1.00
O420   O     0.88436   0.18916   0.56406   0.00000  Uiso   1.00
O421   O     0.88437   0.31084   0.43593   0.00000  Uiso   1.00
O422   O     0.61628   0.18507   0.44096   0.00000  Uiso   1.00
O423   O     0.81547   0.21026   0.50000   0.00000  Uiso   1.00
O424   O     0.81547   0.28974   0.50000   0.00000  Uiso   1.00
O425   O     0.68453   0.21026   0.50000   0.00000  Uiso   1.00
O426   O     0.75000   0.28973   0.42845   0.00000  Uiso   1.00
O427   O     0.75000   0.21027   0.57155   0.00000  Uiso   1.00
O428   O     0.75000   0.28973   0.57155   0.00000  Uiso   1.00
O429   O     0.75000   0.21027   0.42845   0.00000  Uiso   1.00
O430   O     0.61628   0.31493   0.55905   0.00000  Uiso   1.00
Zn431  Zn    0.75000   0.30307   0.50000   0.00000  Uiso   1.00
Zn432  Zn    0.75000   0.19693   0.50000   0.00000  Uiso   1.00
C433   C     0.16383   0.75000   0.50000   0.00000  Uiso   1.00
C434   C     0.21206   0.94750   0.48494   0.00000  Uiso   1.00
C435   C     0.25014   0.74998   0.40618   0.00000  Uiso   1.00
C436   C     0.25014   0.75002   0.59382   0.00000  Uiso   1.00
C437   C     0.24994   0.52663   0.49998   0.00000  Uiso   1.00
C438   C     0.24994   0.97337   0.50002   0.00000  Uiso   1.00
C439   C     0.25028   0.74997   0.35512   0.00000  Uiso   1.00
C440   C     0.25028   0.75003   0.64488   0.00000  Uiso   1.00
C441   C     0.04619   0.78305   0.52900   0.00000  Uiso   1.00
C442   C     0.45330   0.71906   0.53152   0.00000  Uiso   1.00
C443   C     0.45330   0.78095   0.46848   0.00000  Uiso   1.00
C444   C     0.33604   0.75000   0.50000   0.00000  Uiso   1.00
C445   C     0.04619   0.71695   0.47101   0.00000  Uiso   1.00
C446   C     0.09269   0.78420   0.52836   0.00000  Uiso   1.00
C447   C     0.40699   0.71953   0.53252   0.00000  Uiso   1.00
C448   C     0.40700   0.78047   0.46747   0.00000  Uiso   1.00
C449   C     0.09269   0.71580   0.47165   0.00000  Uiso   1.00
C450   C     0.11567   0.75000   0.50001   0.00000  Uiso   1.00
C451   C     0.38395   0.75000   0.50000   0.00000  Uiso   1.00
C452   C     0.02364   0.75000   0.50000   0.00000  Uiso   1.00
C453   C     0.47591   0.75000   0.50000   0.00000  Uiso   1.00
C454   C     0.10513   0.86210   0.54765   0.00000  Uiso   1.00
C455   C     0.21292   0.60216   0.51517   0.00000  Uiso   1.00
C456   C     0.37936   0.71141   0.61094   0.00000  Uiso   1.00
C457   C     0.37938   0.78859   0.38906   0.00000  Uiso   1.00
C458   C     0.10514   0.63790   0.45237   0.00000  Uiso   1.00
C459   C     0.28710   0.89791   0.51505   0.00000  Uiso   1.00
C460   C     0.28709   0.60209   0.48493   0.00000  Uiso   1.00
C461   C     0.21292   0.89784   0.48485   0.00000  Uiso   1.00
C462   C     0.21207   0.55250   0.51508   0.00000  Uiso   1.00
C463   C     0.28786   0.94757   0.51505   0.00000  Uiso   1.00
C464   C     0.28785   0.55243   0.48493   0.00000  Uiso   1.00
H465   H     0.18379   0.62141   0.52762   0.00000  Uiso   1.00
H466   H     0.13146   0.88544   0.56322   0.00000  Uiso   1.00
H467   H     0.10374   0.86863   0.50657   0.00000  Uiso   1.00
H468   H     0.36013   0.68768   0.63592   0.00000  Uiso   1.00
H469   H     0.41238   0.71798   0.62882   0.00000  Uiso   1.00
H470   H     0.36022   0.74496   0.60770   0.00000  Uiso   1.00
H471   H     0.36023   0.75504   0.39230   0.00000  Uiso   1.00
H472   H     0.41240   0.78202   0.37118   0.00000  Uiso   1.00
H473   H     0.36016   0.81231   0.36406   0.00000  Uiso   1.00
H474   H     0.07306   0.62779   0.43444   0.00000  Uiso   1.00
H475   H     0.13146   0.61456   0.43680   0.00000  Uiso   1.00
H476   H     0.31636   0.87873   0.52725   0.00000  Uiso   1.00
H477   H     0.10376   0.63137   0.49346   0.00000  Uiso   1.00
H478   H     0.18218   0.53452   0.52760   0.00000  Uiso   1.00
H479   H     0.31774   0.96561   0.52754   0.00000  Uiso   1.00
H480   H     0.31773   0.53439   0.47243   0.00000  Uiso   1.00
H481   H     0.18217   0.96548   0.47243   0.00000  Uiso   1.00
H482   H     0.31635   0.62127   0.47272   0.00000  Uiso   1.00
H483   H     0.18378   0.87859   0.47242   0.00000  Uiso   1.00
H484   H     0.02751   0.80738   0.55227   0.00000  Uiso   1.00
H485   H     0.47156   0.69521   0.55572   0.00000  Uiso   1.00
H486   H     0.47157   0.80480   0.44429   0.00000  Uiso   1.00
H487   H     0.02752   0.69263   0.44774   0.00000  Uiso   1.00
H488   H     0.07305   0.87220   0.56560   0.00000  Uiso   1.00
N489   N     0.25000   0.62624   0.50000   0.00000  Uiso   1.00
N490   N     0.25000   0.87377   0.50000   0.00000  Uiso   1.00
O491   O     0.18453   0.78974   0.50000   0.00000  Uiso   1.00
O492   O     0.38436   0.68916   0.56406   0.00000  Uiso   1.00
O493   O     0.38437   0.81084   0.43593   0.00000  Uiso   1.00
O494   O     0.11628   0.68507   0.44096   0.00000  Uiso   1.00
O495   O     0.31547   0.71026   0.50000   0.00000  Uiso   1.00
O496   O     0.31547   0.78974   0.50000   0.00000  Uiso   1.00
O497   O     0.18453   0.71026   0.50000   0.00000  Uiso   1.00
O498   O     0.25000   0.78973   0.42845   0.00000  Uiso   1.00
O499   O     0.25000   0.71027   0.57155   0.00000  Uiso   1.00
O500   O     0.25000   0.78973   0.57155   0.00000  Uiso   1.00
O501   O     0.25000   0.71027   0.42845   0.00000  Uiso   1.00
O502   O     0.11628   0.81493   0.55905   0.00000  Uiso   1.00
Zn503  Zn    0.25000   0.80307   0.50000   0.00000  Uiso   1.00
Zn504  Zn    0.25000   0.69693   0.50000   0.00000  Uiso   1.00
C505   C     0.66383   0.75000   0.50000   0.00000  Uiso   1.00
C506   C     0.71206   0.94750   0.48494   0.00000  Uiso   1.00
C507   C     0.75014   0.74998   0.40618   0.00000  Uiso   1.00
C508   C     0.75014   0.75002   0.59382   0.00000  Uiso   1.00
C509   C     0.74994   0.52663   0.49998   0.00000  Uiso   1.00
C510   C     0.74994   0.97337   0.50002   0.00000  Uiso   1.00
C511   C     0.75028   0.74997   0.35512   0.00000  Uiso   1.00
C512   C     0.75028   0.75003   0.64488   0.00000  Uiso   1.00
C513   C     0.54619   0.78305   0.52900   0.00000  Uiso   1.00
C514   C     0.95330   0.71906   0.53152   0.00000  Uiso   1.00
C515   C     0.95330   0.78095   0.46848   0.00000  Uiso   1.00
C516   C     0.83604   0.75000   0.50000   0.00000  Uiso   1.00
C517   C     0.54619   0.71695   0.47101   0.00000  Uiso   1.00
C518   C     0.59269   0.78420   0.52836   0.00000  Uiso   1.00
C519   C     0.90699   0.71953   0.53252   0.00000  Uiso   1.00
C520   C     0.90700   0.78047   0.46747   0.00000  Uiso   1.00
C521   C     0.59269   0.71580   0.47165   0.00000  Uiso   1.00
C522   C     0.61567   0.75000   0.50001   0.00000  Uiso   1.00
C523   C     0.88395   0.75000   0.50000   0.00000  Uiso   1.00
C524   C     0.52364   0.75000   0.50000   0.00000  Uiso   1.00
C525   C     0.97591   0.75000   0.50000   0.00000  Uiso   1.00
C526   C     0.60513   0.86210   0.54765   0.00000  Uiso   1.00
C527   C     0.71292   0.60216   0.51517   0.00000  Uiso   1.00
C528   C     0.87936   0.71141   0.61094   0.00000  Uiso   1.00
C529   C     0.87938   0.78859   0.38906   0.00000  Uiso   1.00
C530   C     0.60514   0.63790   0.45237   0.00000  Uiso   1.00
C531   C     0.78710   0.89791   0.51505   0.00000  Uiso   1.00
C532   C     0.78709   0.60209   0.48493   0.00000  Uiso   1.00
C533   C     0.71292   0.89784   0.48485   0.00000  Uiso   1.00
C534   C     0.71207   0.55250   0.51508   0.00000  Uiso   1.00
C535   C     0.78786   0.94757   0.51505   0.00000  Uiso   1.00
C536   C     0.78785   0.55243   0.48493   0.00000  Uiso   1.00
H537   H     0.68379   0.62141   0.52762   0.00000  Uiso   1.00
H538   H     0.63146   0.88544   0.56322   0.00000  Uiso   1.00
H539   H     0.60374   0.86863   0.50657   0.00000  Uiso   1.00
H540   H     0.86013   0.68768   0.63592   0.00000  Uiso   1.00
H541   H     0.91238   0.71798   0.62882   0.00000  Uiso   1.00
H542   H     0.86022   0.74496   0.60770   0.00000  Uiso   1.00
H543   H     0.86023   0.75504   0.39230   0.00000  Uiso   1.00
H544   H     0.91240   0.78202   0.37118   0.00000  Uiso   1.00
H545   H     0.86016   0.81231   0.36406   0.00000  Uiso   1.00
H546   H     0.57306   0.62779   0.43444   0.00000  Uiso   1.00
H547   H     0.63146   0.61456   0.43680   0.00000  Uiso   1.00
H548   H     0.81636   0.87873   0.52725   0.00000  Uiso   1.00
H549   H     0.60376   0.63137   0.49346   0.00000  Uiso   1.00
H550   H     0.68218   0.53452   0.52760   0.00000  Uiso   1.00
H551   H     0.81774   0.96561   0.52754   0.00000  Uiso   1.00
H552   H     0.81773   0.53439   0.47243   0.00000  Uiso   1.00
H553   H     0.68217   0.96548   0.47243   0.00000  Uiso   1.00
H554   H     0.81635   0.62127   0.47272   0.00000  Uiso   1.00
H555   H     0.68378   0.87859   0.47242   0.00000  Uiso   1.00
H556   H     0.52751   0.80738   0.55227   0.00000  Uiso   1.00
H557   H     0.97156   0.69521   0.55572   0.00000  Uiso   1.00
H558   H     0.97157   0.80480   0.44429   0.00000  Uiso   1.00
H559   H     0.52752   0.69263   0.44774   0.00000  Uiso   1.00
H560   H     0.57305   0.87220   0.56560   0.00000  Uiso   1.00
N561   N     0.75000   0.62624   0.50000   0.00000  Uiso   1.00
N562   N     0.75000   0.87377   0.50000   0.00000  Uiso   1.00
O563   O     0.68453   0.78974   0.50000   0.00000  Uiso   1.00
O564   O     0.88436   0.68916   0.56406   0.00000  Uiso   1.00
O565   O     0.88437   0.81084   0.43593   0.00000  Uiso   1.00
O566   O     0.61628   0.68507   0.44096   0.00000  Uiso   1.00
O567   O     0.81547   0.71026   0.50000   0.00000  Uiso   1.00
O568   O     0.81547   0.78974   0.50000   0.00000  Uiso   1.00
O569   O     0.68453   0.71026   0.50000   0.00000  Uiso   1.00
O570   O     0.75000   0.78973   0.42845   0.00000  Uiso   1.00
O571   O     0.75000   0.71027   0.57155   0.00000  Uiso   1.00
O572   O     0.75000   0.78973   0.57155   0.00000  Uiso   1.00
O573   O     0.75000   0.71027   0.42845   0.00000  Uiso   1.00
O574   O     0.61628   0.81493   0.55905   0.00000  Uiso   1.00
Zn575  Zn    0.75000   0.80307   0.50000   0.00000  Uiso   1.00
Zn576  Zn    0.75000   0.69693   0.50000   0.00000  Uiso   1.00
C577   C     0.16383   0.25000   0.83334   0.00000  Uiso   1.00
C578   C     0.21206   0.44750   0.81828   0.00000  Uiso   1.00
C579   C     0.25014   0.24998   0.73951   0.00000  Uiso   1.00
C580   C     0.25014   0.25002   0.92715   0.00000  Uiso   1.00
C581   C     0.24994   0.02663   0.83332   0.00000  Uiso   1.00
C582   C     0.24994   0.47337   0.83335   0.00000  Uiso   1.00
C583   C     0.25028   0.24997   0.68845   0.00000  Uiso   1.00
C584   C     0.25028   0.25003   0.97822   0.00000  Uiso   1.00
C585   C     0.04619   0.28305   0.86234   0.00000  Uiso   1.00
C586   C     0.45330   0.21906   0.86485   0.00000  Uiso   1.00
C587   C     0.45330   0.28095   0.80182   0.00000  Uiso   1.00
C588   C     0.33604   0.25000   0.83333   0.00000  Uiso   1.00
C589   C     0.04619   0.21695   0.80434   0.00000  Uiso   1.00
C590   C     0.09269   0.28420   0.86169   0.00000  Uiso   1.00
C591   C     0.40699   0.21953   0.86586   0.00000  Uiso   1.00
C592   C     0.40700   0.28047   0.80080   0.00000  Uiso   1.00
C593   C     0.09269   0.21580   0.80498   0.00000  Uiso   1.00
C594   C     0.11567   0.25000   0.83334   0.00000  Uiso   1.00
C595   C     0.38395   0.25000   0.83333   0.00000  Uiso   1.00
C596   C     0.02364   0.25000   0.83334   0.00000  Uiso   1.00
C597   C     0.47591   0.25000   0.83334   0.00000  Uiso   1.00
C598   C     0.10513   0.36210   0.88098   0.00000  Uiso   1.00
C599   C     0.21292   0.10216   0.84850   0.00000  Uiso   1.00
C600   C     0.37936   0.21141   0.94427   0.00000  Uiso   1.00
C601   C     0.37938   0.28859   0.72239   0.00000  Uiso   1.00
C602   C     0.10514   0.13790   0.78571   0.00000  Uiso   1.00
C603   C     0.28710   0.39791   0.84839   0.00000  Uiso   1.00
C604   C     0.28709   0.10209   0.81826   0.00000  Uiso   1.00
C605   C     0.21292   0.39784   0.81819   0.00000  Uiso   1.00
C606   C     0.21207   0.05250   0.84841   0.00000  Uiso   1.00
C607   C     0.28786   0.44757   0.84838   0.00000  Uiso   1.00
C608   C     0.28785   0.05243   0.81826   0.00000  Uiso   1.00
H609   H     0.18379   0.12141   0.86095   0.00000  Uiso   1.00
H610   H     0.13146   0.38544   0.89655   0.00000  Uiso   1.00
H611   H     0.10374   0.36863   0.83990   0.00000  Uiso   1.00
H612   H     0.36013   0.18768   0.96926   0.00000  Uiso   1.00
H613   H     0.41238   0.21798   0.96215   0.00000  Uiso   1.00
H614   H     0.36022   0.24496   0.94103   0.00000  Uiso   1.00
H615   H     0.36023   0.25504   0.72563   0.00000  Uiso   1.00
H616   H     0.41240   0.28202   0.70451   0.00000  Uiso   1.00
H617   H     0.36016   0.31231   0.69740   0.00000  Uiso   1.00
H618   H     0.07306   0.12779   0.76777   0.00000  Uiso   1.00
H619   H     0.13146   0.11456   0.77013   0.00000  Uiso   1.00
H620   H     0.31636   0.37873   0.86058   0.00000  Uiso   1.00
H621   H     0.10376   0.13137   0.82679   0.00000  Uiso   1.00
H622   H     0.18218   0.03452   0.86094   0.00000  Uiso   1.00
H623   H     0.31774   0.46561   0.86087   0.00000  Uiso   1.00
H624   H     0.31773   0.03439   0.80576   0.00000  Uiso   1.00
H625   H     0.18217   0.46548   0.80576   0.00000  Uiso   1.00
H626   H     0.31635   0.12127   0.80605   0.00000  Uiso   1.00
H627   H     0.18378   0.37859   0.80575   0.00000  Uiso   1.00
H628   H     0.02751   0.30738   0.88560   0.00000  Uiso   1.00
H629   H     0.47156   0.19521   0.88905   0.00000  Uiso   1.00
H630   H     0.47157   0.30480   0.77762   0.00000  Uiso   1.00
H631   H     0.02752   0.19263   0.78108   0.00000  Uiso   1.00
H632   H     0.07305   0.37220   0.89894   0.00000  Uiso   1.00
N633   N     0.25000   0.12624   0.83333   0.00000  Uiso   1.00
N634   N     0.25000   0.37377   0.83333   0.00000  Uiso   1.00
O635   O     0.18453   0.28974   0.83334   0.00000  Uiso   1.00
O636   O     0.38436   0.18916   0.89739   0.00000  Uiso   1.00
O637   O     0.38437   0.31084   0.76926   0.00000  Uiso   1.00
O638   O     0.11628   0.18507   0.77429   0.00000  Uiso   1.00
O639   O     0.31547   0.21026   0.83333   0.00000  Uiso   1.00
O640   O     0.31547   0.28974   0.83333   0.00000  Uiso   1.00
O641   O     0.18453   0.21026   0.83334   0.00000  Uiso   1.00
O642   O     0.25000   0.28973   0.76178   0.00000  Uiso   1.00
O643   O     0.25000   0.21027   0.90489   0.00000  Uiso   1.00
O644   O     0.25000   0.28973   0.90489   0.00000  Uiso   1.00
O645   O     0.25000   0.21027   0.76178   0.00000  Uiso   1.00
O646   O     0.11628   0.31493   0.89238   0.00000  Uiso   1.00
Zn647  Zn    0.25000   0.30307   0.83333   0.00000  Uiso   1.00
Zn648  Zn    0.25000   0.19693   0.83333   0.00000  Uiso   1.00
C649   C     0.66383   0.25000   0.83334   0.00000  Uiso   1.00
C650   C     0.71206   0.44750   0.81828   0.00000  Uiso   1.00
C651   C     0.75014   0.24998   0.73951   0.00000  Uiso   1.00
C652   C     0.75014   0.25002   0.92715   0.00000  Uiso   1.00
C653   C     0.74994   0.02663   0.83332   0.00000  Uiso   1.00
C654   C     0.74994   0.47337   0.83335   0.00000  Uiso   1.00
C655   C     0.75028   0.24997   0.68845   0.00000  Uiso   1.00
C656   C     0.75028   0.25003   0.97822   0.00000  Uiso   1.00
C657   C     0.54619   0.28305   0.86234   0.00000  Uiso   1.00
C658   C     0.95330   0.21906   0.86485   0.00000  Uiso   1.00
C659   C     0.95330   0.28095   0.80182   0.00000  Uiso   1.00
C660   C     0.83604   0.25000   0.83333   0.00000  Uiso   1.00
C661   C     0.54619   0.21695   0.80434   0.00000  Uiso   1.00
C662   C     0.59269   0.28420   0.86169   0.00000  Uiso   1.00
C663   C     0.90699   0.21953   0.86586   0.00000  Uiso   1.00
C664   C     0.90700   0.28047   0.80080   0.00000  Uiso   1.00
C665   C     0.59269   0.21580   0.80498   0.00000  Uiso   1.00
C666   C     0.61567   0.25000   0.83334   0.00000  Uiso   1.00
C667   C     0.88395   0.25000   0.83333   0.00000  Uiso   1.00
C668   C     0.52364   0.25000   0.83334   0.00000  Uiso   1.00
C669   C     0.97591   0.25000   0.83334   0.00000  Uiso   1.00
C670   C     0.60513   0.36210   0.88098   0.00000  Uiso   1.00
C671   C     0.71292   0.10216   0.84850   0.00000  Uiso   1.00
C672   C     0.87936   0.21141   0.94427   0.00000  Uiso   1.00
C673   C     0.87938   0.28859   0.72239   0.00000  Uiso   1.00
C674   C     0.60514   0.13790   0.78571   0.00000  Uiso   1.00
C675   C     0.78710   0.39791   0.84839   0.00000  Uiso   1.00
C676   C     0.78709   0.10209   0.81826   0.00000  Uiso   1.00
C677   C     0.71292   0.39784   0.81819   0.00000  Uiso   1.00
C678   C     0.71207   0.05250   0.84841   0.00000  Uiso   1.00
C679   C     0.78786   0.44757   0.84838   0.00000  Uiso   1.00
C680   C     0.78785   0.05243   0.81826   0.00000  Uiso   1.00
H681   H     0.68379   0.12141   0.86095   0.00000  Uiso   1.00
H682   H     0.63146   0.38544   0.89655   0.00000  Uiso   1.00
H683   H     0.60374   0.36863   0.83990   0.00000  Uiso   1.00
H684   H     0.86013   0.18768   0.96926   0.00000  Uiso   1.00
H685   H     0.91238   0.21798   0.96215   0.00000  Uiso   1.00
H686   H     0.86022   0.24496   0.94103   0.00000  Uiso   1.00
H687   H     0.86023   0.25504   0.72563   0.00000  Uiso   1.00
H688   H     0.91240   0.28202   0.70451   0.00000  Uiso   1.00
H689   H     0.86016   0.31231   0.69740   0.00000  Uiso   1.00
H690   H     0.57306   0.12779   0.76777   0.00000  Uiso   1.00
H691   H     0.63146   0.11456   0.77013   0.00000  Uiso   1.00
H692   H     0.81636   0.37873   0.86058   0.00000  Uiso   1.00
H693   H     0.60376   0.13137   0.82679   0.00000  Uiso   1.00
H694   H     0.68218   0.03452   0.86094   0.00000  Uiso   1.00
H695   H     0.81774   0.46561   0.86087   0.00000  Uiso   1.00
H696   H     0.81773   0.03439   0.80576   0.00000  Uiso   1.00
H697   H     0.68217   0.46548   0.80576   0.00000  Uiso   1.00
H698   H     0.81635   0.12127   0.80605   0.00000  Uiso   1.00
H699   H     0.68378   0.37859   0.80575   0.00000  Uiso   1.00
H700   H     0.52751   0.30738   0.88560   0.00000  Uiso   1.00
H701   H     0.97156   0.19521   0.88905   0.00000  Uiso   1.00
H702   H     0.97157   0.30480   0.77762   0.00000  Uiso   1.00
H703   H     0.52752   0.19263   0.78108   0.00000  Uiso   1.00
H704   H     0.57305   0.37220   0.89894   0.00000  Uiso   1.00
N705   N     0.75000   0.12624   0.83333   0.00000  Uiso   1.00
N706   N     0.75000   0.37377   0.83333   0.00000  Uiso   1.00
O707   O     0.68453   0.28974   0.83334   0.00000  Uiso   1.00
O708   O     0.88436   0.18916   0.89739   0.00000  Uiso   1.00
O709   O     0.88437   0.31084   0.76926   0.00000  Uiso   1.00
O710   O     0.61628   0.18507   0.77429   0.00000  Uiso   1.00
O711   O     0.81547   0.21026   0.83333   0.00000  Uiso   1.00
O712   O     0.81547   0.28974   0.83333   0.00000  Uiso   1.00
O713   O     0.68453   0.21026   0.83334   0.00000  Uiso   1.00
O714   O     0.75000   0.28973   0.76178   0.00000  Uiso   1.00
O715   O     0.75000   0.21027   0.90489   0.00000  Uiso   1.00
O716   O     0.75000   0.28973   0.90489   0.00000  Uiso   1.00
O717   O     0.75000   0.21027   0.76178   0.00000  Uiso   1.00
O718   O     0.61628   0.31493   0.89238   0.00000  Uiso   1.00
Zn719  Zn    0.75000   0.30307   0.83333   0.00000  Uiso   1.00
Zn720  Zn    0.75000   0.19693   0.83333   0.00000  Uiso   1.00
C721   C     0.16383   0.75000   0.83334   0.00000  Uiso   1.00
C722   C     0.21206   0.94750   0.81828   0.00000  Uiso   1.00
C723   C     0.25014   0.74998   0.73951   0.00000  Uiso   1.00
C724   C     0.25014   0.75002   0.92715   0.00000  Uiso   1.00
C725   C     0.24994   0.52663   0.83332   0.00000  Uiso   1.00
C726   C     0.24994   0.97337   0.83335   0.00000  Uiso   1.00
C727   C     0.25028   0.74997   0.68845   0.00000  Uiso   1.00
C728   C     0.25028   0.75003   0.97822   0.00000  Uiso   1.00
C729   C     0.04619   0.78305   0.86234   0.00000  Uiso   1.00
C730   C     0.45330   0.71906   0.86485   0.00000  Uiso   1.00
C731   C     0.45330   0.78095   0.80182   0.00000  Uiso   1.00
C732   C     0.33604   0.75000   0.83333   0.00000  Uiso   1.00
C733   C     0.04619   0.71695   0.80434   0.00000  Uiso   1.00
C734   C     0.09269   0.78420   0.86169   0.00000  Uiso   1.00
C735   C     0.40699   0.71953   0.86586   0.00000  Uiso   1.00
C736   C     0.40700   0.78047   0.80080   0.00000  Uiso   1.00
C737   C     0.09269   0.71580   0.80498   0.00000  Uiso   1.00
C738   C     0.11567   0.75000   0.83334   0.00000  Uiso   1.00
C739   C     0.38395   0.75000   0.83333   0.00000  Uiso   1.00
C740   C     0.02364   0.75000   0.83334   0.00000  Uiso   1.00
C741   C     0.47591   0.75000   0.83334   0.00000  Uiso   1.00
C742   C     0.10513   0.86210   0.88098   0.00000  Uiso   1.00
C743   C     0.21292   0.60216   0.84850   0.00000  Uiso   1.00
C744   C     0.37936   0.71141   0.94427   0.00000  Uiso   1.00
C745   C     0.37938   0.78859   0.72239   0.00000  Uiso   1.00
C746   C     0.10514   0.63790   0.78571   0.00000  Uiso   1.00
C747   C     0.28710   0.89791   0.84839   0.00000  Uiso   1.00
C748   C     0.28709   0.60209   0.81826   0.00000  Uiso   1.00
C749   C     0.21292   0.89784   0.81819   0.00000  Uiso   1.00
C750   C     0.21207   0.55250   0.84841   0.00000  Uiso   1.00
C751   C     0.28786   0.94757   0.84838   0.00000  Uiso   1.00
C752   C     0.28785   0.55243   0.81826   0.00000  Uiso   1.00
H753   H     0.18379   0.62141   0.86095   0.00000  Uiso   1.00
H754   H     0.13146   0.88544   0.89655   0.00000  Uiso   1.00
H755   H     0.10374   0.86863   0.83990   0.00000  Uiso   1.00
H756   H     0.36013   0.68768   0.96926   0.00000  Uiso   1.00
H757   H     0.41238   0.71798   0.96215   0.00000  Uiso   1.00
H758   H     0.36022   0.74496   0.94103   0.00000  Uiso   1.00
H759   H     0.36023   0.75504   0.72563   0.00000  Uiso   1.00
H760   H     0.41240   0.78202   0.70451   0.00000  Uiso   1.00
H761   H     0.36016   0.81231   0.69740   0.00000  Uiso   1.00
H762   H     0.07306   0.62779   0.76777   0.00000  Uiso   1.00
H763   H     0.13146   0.61456   0.77013   0.00000  Uiso   1.00
H764   H     0.31636   0.87873   0.86058   0.00000  Uiso   1.00
H765   H     0.10376   0.63137   0.82679   0.00000  Uiso   1.00
H766   H     0.18218   0.53452   0.86094   0.00000  Uiso   1.00
H767   H     0.31774   0.96561   0.86087   0.00000  Uiso   1.00
H768   H     0.31773   0.53439   0.80576   0.00000  Uiso   1.00
H769   H     0.18217   0.96548   0.80576   0.00000  Uiso   1.00
H770   H     0.31635   0.62127   0.80605   0.00000  Uiso   1.00
H771   H     0.18378   0.87859   0.80575   0.00000  Uiso   1.00
H772   H     0.02751   0.80738   0.88560   0.00000  Uiso   1.00
H773   H     0.47156   0.69521   0.88905   0.00000  Uiso   1.00
H774   H     0.47157   0.80480   0.77762   0.00000  Uiso   1.00
H775   H     0.02752   0.69263   0.78108   0.00000  Uiso   1.00
H776   H     0.07305   0.87220   0.89894   0.00000  Uiso   1.00
N777   N     0.25000   0.62624   0.83333   0.00000  Uiso   1.00
N778   N     0.25000   0.87377   0.83333   0.00000  Uiso   1.00
O779   O     0.18453   0.78974   0.83334   0.00000  Uiso   1.00
O780   O     0.38436   0.68916   0.89739   0.00000  Uiso   1.00
O781   O     0.38437   0.81084   0.76926   0.00000  Uiso   1.00
O782   O     0.11628   0.68507   0.77429   0.00000  Uiso   1.00
O783   O     0.31547   0.71026   0.83333   0.00000  Uiso   1.00
O784   O     0.31547   0.78974   0.83333   0.00000  Uiso   1.00
O785   O     0.18453   0.71026   0.83334   0.00000  Uiso   1.00
O786   O     0.25000   0.78973   0.76178   0.00000  Uiso   1.00
O787   O     0.25000   0.71027   0.90489   0.00000  Uiso   1.00
O788   O     0.25000   0.78973   0.90489   0.00000  Uiso   1.00
O789   O     0.25000   0.71027   0.76178   0.00000  Uiso   1.00
O790   O     0.11628   0.81493   0.89238   0.00000  Uiso   1.00
Zn791  Zn    0.25000   0.80307   0.83333   0.00000  Uiso   1.00
Zn792  Zn    0.25000   0.69693   0.83333   0.00000  Uiso   1.00
C793   C     0.66383   0.75000   0.83334   0.00000  Uiso   1.00
C794   C     0.71206   0.94750   0.81828   0.00000  Uiso   1.00
C795   C     0.75014   0.74998   0.73951   0.00000  Uiso   1.00
C796   C     0.75014   0.75002   0.92715   0.00000  Uiso   1.00
C797   C     0.74994   0.52663   0.83332   0.00000  Uiso   1.00
C798   C     0.74994   0.97337   0.83335   0.00000  Uiso   1.00
C799   C     0.75028   0.74997   0.68845   0.00000  Uiso   1.00
C800   C     0.75028   0.75003   0.97822   0.00000  Uiso   1.00
C801   C     0.54619   0.78305   0.86234   0.00000  Uiso   1.00
C802   C     0.95330   0.71906   0.86485   0.00000  Uiso   1.00
C803   C     0.95330   0.78095   0.80182   0.00000  Uiso   1.00
C804   C     0.83604   0.75000   0.83333   0.00000  Uiso   1.00
C805   C     0.54619   0.71695   0.80434   0.00000  Uiso   1.00
C806   C     0.59269   0.78420   0.86169   0.00000  Uiso   1.00
C807   C     0.90699   0.71953   0.86586   0.00000  Uiso   1.00
C808   C     0.90700   0.78047   0.80080   0.00000  Uiso   1.00
C809   C     0.59269   0.71580   0.80498   0.00000  Uiso   1.00
C810   C     0.61567   0.75000   0.83334   0.00000  Uiso   1.00
C811   C     0.88395   0.75000   0.83333   0.00000  Uiso   1.00
C812   C     0.52364   0.75000   0.83334   0.00000  Uiso   1.00
C813   C     0.97591   0.75000   0.83334   0.00000  Uiso   1.00
C814   C     0.60513   0.86210   0.88098   0.00000  Uiso   1.00
C815   C     0.71292   0.60216   0.84850   0.00000  Uiso   1.00
C816   C     0.87936   0.71141   0.94427   0.00000  Uiso   1.00
C817   C     0.87938   0.78859   0.72239   0.00000  Uiso   1.00
C818   C     0.60514   0.63790   0.78571   0.00000  Uiso   1.00
C819   C     0.78710   0.89791   0.84839   0.00000  Uiso   1.00
C820   C     0.78709   0.60209   0.81826   0.00000  Uiso   1.00
C821   C     0.71292   0.89784   0.81819   0.00000  Uiso   1.00
C822   C     0.71207   0.55250   0.84841   0.00000  Uiso   1.00
C823   C     0.78786   0.94757   0.84838   0.00000  Uiso   1.00
C824   C     0.78785   0.55243   0.81826   0.00000  Uiso   1.00
H825   H     0.68379   0.62141   0.86095   0.00000  Uiso   1.00
H826   H     0.63146   0.88544   0.89655   0.00000  Uiso   1.00
H827   H     0.60374   0.86863   0.83990   0.00000  Uiso   1.00
H828   H     0.86013   0.68768   0.96926   0.00000  Uiso   1.00
H829   H     0.91238   0.71798   0.96215   0.00000  Uiso   1.00
H830   H     0.86022   0.74496   0.94103   0.00000  Uiso   1.00
H831   H     0.86023   0.75504   0.72563   0.00000  Uiso   1.00
H832   H     0.91240   0.78202   0.70451   0.00000  Uiso   1.00
H833   H     0.86016   0.81231   0.69740   0.00000  Uiso   1.00
H834   H     0.57306   0.62779   0.76777   0.00000  Uiso   1.00
H835   H     0.63146   0.61456   0.77013   0.00000  Uiso   1.00
H836   H     0.81636   0.87873   0.86058   0.00000  Uiso   1.00
H837   H     0.60376   0.63137   0.82679   0.00000  Uiso   1.00
H838   H     0.68218   0.53452   0.86094   0.00000  Uiso   1.00
H839   H     0.81774   0.96561   0.86087   0.00000  Uiso   1.00
H840   H     0.81773   0.53439   0.80576   0.00000  Uiso   1.00
H841   H     0.68217   0.96548   0.80576   0.00000  Uiso   1.00
H842   H     0.81635   0.62127   0.80605   0.00000  Uiso   1.00
H843   H     0.68378   0.87859   0.80575   0.00000  Uiso   1.00
H844   H     0.52751   0.80738   0.88560   0.00000  Uiso   1.00
H845   H     0.97156   0.69521   0.88905   0.00000  Uiso   1.00
H846   H     0.97157   0.80480   0.77762   0.00000  Uiso   1.00
H847   H     0.52752   0.69263   0.78108   0.00000  Uiso   1.00
H848   H     0.57305   0.87220   0.89894   0.00000  Uiso   1.00
N849   N     0.75000   0.62624   0.83333   0.00000  Uiso   1.00
N850   N     0.75000   0.87377   0.83333   0.00000  Uiso   1.00
O851   O     0.68453   0.78974   0.83334   0.00000  Uiso   1.00
O852   O     0.88436   0.68916   0.89739   0.00000  Uiso   1.00
O853   O     0.88437   0.81084   0.76926   0.00000  Uiso   1.00
O854   O     0.61628   0.68507   0.77429   0.00000  Uiso   1.00
O855   O     0.81547   0.71026   0.83333   0.00000  Uiso   1.00
O856   O     0.81547   0.78974   0.83333   0.00000  Uiso   1.00
O857   O     0.68453   0.71026   0.83334   0.00000  Uiso   1.00
O858   O     0.75000   0.78973   0.76178   0.00000  Uiso   1.00
O859   O     0.75000   0.71027   0.90489   0.00000  Uiso   1.00
O860   O     0.75000   0.78973   0.90489   0.00000  Uiso   1.00
O861   O     0.75000   0.71027   0.76178   0.00000  Uiso   1.00
O862   O     0.61628   0.81493   0.89238   0.00000  Uiso   1.00
Zn863  Zn    0.75000   0.80307   0.83333   0.00000  Uiso   1.00
Zn864  Zn    0.75000   0.69693   0.83333   0.00000  Uiso   1.00
loop_
_geom_bond_atom_site_label_1
_geom_bond_atom_site_label_2
_geom_bond_distance
_geom_bond_site_symmetry_2
_ccdc_geom_bond_type
C1     O65     1.286   .     A
C1     C18     1.441   .     S
C1     O59     1.286   .     A
C2     H49     1.083   .     S
C2     C29     1.408   .     A
C2     C6      1.409   .     A
C3     O69     1.274   .     A
C3     C7      1.365   .     S
C3     O66     1.274   .     A
C4     O67     1.274   .     A
C4     C8      1.365   .     S
C4     O68     1.274   .     A
C5     C32     1.409   .     A
C5     C30     1.409   .     A
C5     C150    1.510   1_545 S
C6     C31     1.409   .     A
C6     C149    1.510   .     S
C7     C584    1.165   1_554 S
C8     C295    1.165   .     S
C9     C14     1.392   .     A
C9     C20     1.390   .     A
C9     H52     1.083   .     S
C10    C15     1.386   .     A
C10    C21     1.392   .     A
C10    H53     1.084   .     S
C11    H54     1.084   .     S
C11    C16     1.386   .     A
C11    C21     1.393   .     A
C12    C19     1.433   .     S
C12    O64     1.284   .     A
C12    O63     1.284   .     A
C13    C17     1.392   .     A
C13    C20     1.390   .     A
C13    H55     1.083   .     S
C14    C18     1.409   .     A
C14    O70     1.389   .     S
C15    O60     1.383   .     S
C15    C19     1.407   .     A
C16    C19     1.407   .     A
C16    O61     1.383   .     S
C17    O62     1.389   .     S
C17    C18     1.409   .     A
C20    C93     1.428   1_455 S
C21    C92     1.428   .     S
C22    H35     1.115   .     S
C22    H34     1.109   .     S
C22    H56     1.110   .     S
C22    O70     1.412   .     S
C23    C30     1.408   .     A
C23    N57     1.364   .     A
C23    H33     1.081   .     S
C24    H38     1.114   .     S
C24    H37     1.113   .     S
C24    H36     1.109   .     S
C24    O60     1.410   .     S
C25    H40     1.113   .     S
C25    O61     1.410   .     S
C25    H41     1.109   .     S
C25    H39     1.114   .     S
C26    H45     1.115   .     S
C26    O62     1.412   .     S
C26    H43     1.109   .     S
C26    H42     1.110   .     S
C27    C31     1.408   .     A
C27    H44     1.081   .     S
C27    N58     1.365   .     A
C28    N57     1.364   .     A
C28    C32     1.408   .     A
C28    H50     1.081   .     S
C29    N58     1.364   .     A
C29    H51     1.081   .     S
C30    H46     1.083   .     S
C31    H47     1.083   .     S
C32    H48     1.083   .     S
N57    Zn72    2.004   .     S
N58    Zn71    2.004   .     S
O59    Zn71    1.995   .     S
O63    Zn72    1.995   .     S
O64    Zn71    1.995   .     S
O65    Zn72    1.995   .     S
O66    Zn71    1.949   .     S
O67    Zn72    1.949   .     S
O68    Zn71    1.950   .     S
O69    Zn72    1.950   .     S
C73    O137    1.286   .     A
C73    C90     1.441   .     S
C73    O131    1.286   .     A
C74    H121    1.083   .     S
C74    C101    1.408   .     A
C74    C78     1.409   .     A
C75    O141    1.274   .     A
C75    C79     1.365   .     S
C75    O138    1.274   .     A
C76    O139    1.274   .     A
C76    C80     1.365   .     S
C76    O140    1.274   .     A
C77    C104    1.409   .     A
C77    C102    1.409   .     A
C77    C222    1.510   1_545 S
C78    C103    1.409   .     A
C78    C221    1.510   .     S
C79    C656    1.165   1_554 S
C80    C367    1.165   .     S
C81    C86     1.392   .     A
C81    C92     1.390   .     A
C81    H124    1.083   .     S
C82    C87     1.386   .     A
C82    C93     1.392   .     A
C82    H125    1.084   .     S
C83    H126    1.084   .     S
C83    C88     1.386   .     A
C83    C93     1.393   .     A
C84    C91     1.433   .     S
C84    O136    1.284   .     A
C84    O135    1.284   .     A
C85    C89     1.392   .     A
C85    C92     1.390   .     A
C85    H127    1.083   .     S
C86    C90     1.409   .     A
C86    O142    1.389   .     S
C87    O132    1.383   .     S
C87    C91     1.407   .     A
C88    C91     1.407   .     A
C88    O133    1.383   .     S
C89    O134    1.389   .     S
C89    C90     1.409   .     A
C93    C20     1.428   1_655 S
C94    H107    1.115   .     S
C94    H106    1.109   .     S
C94    H128    1.110   .     S
C94    O142    1.412   .     S
C95    C102    1.408   .     A
C95    N129    1.364   .     A
C95    H105    1.081   .     S
C96    H110    1.114   .     S
C96    H109    1.113   .     S
C96    H108    1.109   .     S
C96    O132    1.410   .     S
C97    H112    1.113   .     S
C97    O133    1.410   .     S
C97    H113    1.109   .     S
C97    H111    1.114   .     S
C98    H117    1.115   .     S
C98    O134    1.412   .     S
C98    H115    1.109   .     S
C98    H114    1.110   .     S
C99    C103    1.408   .     A
C99    H116    1.081   .     S
C99    N130    1.365   .     A
C100   N129    1.364   .     A
C100   C104    1.408   .     A
C100   H122    1.081   .     S
C101   N130    1.364   .     A
C101   H123    1.081   .     S
C102   H118    1.083   .     S
C103   H119    1.083   .     S
C104   H120    1.083   .     S
N129   Zn144   2.004   .     S
N130   Zn143   2.004   .     S
O131   Zn143   1.995   .     S
O135   Zn144   1.995   .     S
O136   Zn143   1.995   .     S
O137   Zn144   1.995   .     S
O138   Zn143   1.949   .     S
O139   Zn144   1.949   .     S
O140   Zn143   1.950   .     S
O141   Zn144   1.950   .     S
C145   O209    1.286   .     A
C145   C162    1.441   .     S
C145   O203    1.286   .     A
C146   H193    1.083   .     S
C146   C173    1.408   .     A
C146   C150    1.409   .     A
C147   O213    1.274   .     A
C147   C151    1.365   .     S
C147   O210    1.274   .     A
C148   O211    1.274   .     A
C148   C152    1.365   .     S
C148   O212    1.274   .     A
C149   C176    1.409   .     A
C149   C174    1.409   .     A
C150   C175    1.409   .     A
C150   C5      1.510   1_565 S
C151   C728    1.165   1_554 S
C152   C439    1.165   .     S
C153   C158    1.392   .     A
C153   C164    1.390   .     A
C153   H196    1.083   .     S
C154   C159    1.386   .     A
C154   C165    1.392   .     A
C154   H197    1.084   .     S
C155   H198    1.084   .     S
C155   C160    1.386   .     A
C155   C165    1.393   .     A
C156   C163    1.433   .     S
C156   O208    1.284   .     A
C156   O207    1.284   .     A
C157   C161    1.392   .     A
C157   C164    1.390   .     A
C157   H199    1.083   .     S
C158   C162    1.409   .     A
C158   O214    1.389   .     S
C159   O204    1.383   .     S
C159   C163    1.407   .     A
C160   C163    1.407   .     A
C160   O205    1.383   .     S
C161   O206    1.389   .     S
C161   C162    1.409   .     A
C164   C237    1.428   1_455 S
C165   C236    1.428   .     S
C166   H179    1.115   .     S
C166   H178    1.109   .     S
C166   H200    1.110   .     S
C166   O214    1.412   .     S
C167   C174    1.408   .     A
C167   N201    1.364   .     A
C167   H177    1.081   .     S
C168   H182    1.114   .     S
C168   H181    1.113   .     S
C168   H180    1.109   .     S
C168   O204    1.410   .     S
C169   H184    1.113   .     S
C169   O205    1.410   .     S
C169   H185    1.109   .     S
C169   H183    1.114   .     S
C170   H189    1.115   .     S
C170   O206    1.412   .     S
C170   H187    1.109   .     S
C170   H186    1.110   .     S
C171   C175    1.408   .     A
C171   H188    1.081   .     S
C171   N202    1.365   .     A
C172   N201    1.364   .     A
C172   C176    1.408   .     A
C172   H194    1.081   .     S
C173   N202    1.364   .     A
C173   H195    1.081   .     S
C174   H190    1.083   .     S
C175   H191    1.083   .     S
C176   H192    1.083   .     S
N201   Zn216   2.004   .     S
N202   Zn215   2.004   .     S
O203   Zn215   1.995   .     S
O207   Zn216   1.995   .     S
O208   Zn215   1.995   .     S
O209   Zn216   1.995   .     S
O210   Zn215   1.949   .     S
O211   Zn216   1.949   .     S
O212   Zn215   1.950   .     S
O213   Zn216   1.950   .     S
C217   O281    1.286   .     A
C217   C234    1.441   .     S
C217   O275    1.286   .     A
C218   H265    1.083   .     S
C218   C245    1.408   .     A
C218   C222    1.409   .     A
C219   O285    1.274   .     A
C219   C223    1.365   .     S
C219   O282    1.274   .     A
C220   O283    1.274   .     A
C220   C224    1.365   .     S
C220   O284    1.274   .     A
C221   C248    1.409   .     A
C221   C246    1.409   .     A
C222   C247    1.409   .     A
C222   C77     1.510   1_565 S
C223   C800    1.165   1_554 S
C224   C511    1.165   .     S
C225   C230    1.392   .     A
C225   C236    1.390   .     A
C225   H268    1.083   .     S
C226   C231    1.386   .     A
C226   C237    1.392   .     A
C226   H269    1.084   .     S
C227   H270    1.084   .     S
C227   C232    1.386   .     A
C227   C237    1.393   .     A
C228   C235    1.433   .     S
C228   O280    1.284   .     A
C228   O279    1.284   .     A
C229   C233    1.392   .     A
C229   C236    1.390   .     A
C229   H271    1.083   .     S
C230   C234    1.409   .     A
C230   O286    1.389   .     S
C231   O276    1.383   .     S
C231   C235    1.407   .     A
C232   C235    1.407   .     A
C232   O277    1.383   .     S
C233   O278    1.389   .     S
C233   C234    1.409   .     A
C237   C164    1.428   1_655 S
C238   H251    1.115   .     S
C238   H250    1.109   .     S
C238   H272    1.110   .     S
C238   O286    1.412   .     S
C239   C246    1.408   .     A
C239   N273    1.364   .     A
C239   H249    1.081   .     S
C240   H254    1.114   .     S
C240   H253    1.113   .     S
C240   H252    1.109   .     S
C240   O276    1.410   .     S
C241   H256    1.113   .     S
C241   O277    1.410   .     S
C241   H257    1.109   .     S
C241   H255    1.114   .     S
C242   H261    1.115   .     S
C242   O278    1.412   .     S
C242   H259    1.109   .     S
C242   H258    1.110   .     S
C243   C247    1.408   .     A
C243   H260    1.081   .     S
C243   N274    1.365   .     A
C244   N273    1.364   .     A
C244   C248    1.408   .     A
C244   H266    1.081   .     S
C245   N274    1.364   .     A
C245   H267    1.081   .     S
C246   H262    1.083   .     S
C247   H263    1.083   .     S
C248   H264    1.083   .     S
N273   Zn288   2.004   .     S
N274   Zn287   2.004   .     S
O275   Zn287   1.995   .     S
O279   Zn288   1.995   .     S
O280   Zn287   1.995   .     S
O281   Zn288   1.995   .     S
O282   Zn287   1.949   .     S
O283   Zn288   1.949   .     S
O284   Zn287   1.950   .     S
O285   Zn288   1.950   .     S
C289   O353    1.286   .     A
C289   C306    1.441   .     S
C289   O347    1.286   .     A
C290   H337    1.083   .     S
C290   C317    1.408   .     A
C290   C294    1.409   .     A
C291   O357    1.274   .     A
C291   C295    1.365   .     S
C291   O354    1.274   .     A
C292   O355    1.274   .     A
C292   C296    1.365   .     S
C292   O356    1.274   .     A
C293   C320    1.409   .     A
C293   C318    1.409   .     A
C293   C438    1.510   1_545 S
C294   C319    1.409   .     A
C294   C437    1.510   .     S
C296   C583    1.165   .     S
C297   C302    1.392   .     A
C297   C308    1.390   .     A
C297   H340    1.083   .     S
C298   C303    1.386   .     A
C298   C309    1.392   .     A
C298   H341    1.084   .     S
C299   H342    1.084   .     S
C299   C304    1.386   .     A
C299   C309    1.393   .     A
C300   C307    1.433   .     S
C300   O352    1.284   .     A
C300   O351    1.284   .     A
C301   C305    1.392   .     A
C301   C308    1.390   .     A
C301   H343    1.083   .     S
C302   C306    1.409   .     A
C302   O358    1.389   .     S
C303   O348    1.383   .     S
C303   C307    1.407   .     A
C304   C307    1.407   .     A
C304   O349    1.383   .     S
C305   O350    1.389   .     S
C305   C306    1.409   .     A
C308   C381    1.428   1_455 S
C309   C380    1.428   .     S
C310   H323    1.115   .     S
C310   H322    1.109   .     S
C310   H344    1.110   .     S
C310   O358    1.412   .     S
C311   C318    1.408   .     A
C311   N345    1.364   .     A
C311   H321    1.081   .     S
C312   H326    1.114   .     S
C312   H325    1.113   .     S
C312   H324    1.109   .     S
C312   O348    1.410   .     S
C313   H328    1.113   .     S
C313   O349    1.410   .     S
C313   H329    1.109   .     S
C313   H327    1.114   .     S
C314   H333    1.115   .     S
C314   O350    1.412   .     S
C314   H331    1.109   .     S
C314   H330    1.110   .     S
C315   C319    1.408   .     A
C315   H332    1.081   .     S
C315   N346    1.365   .     A
C316   N345    1.364   .     A
C316   C320    1.408   .     A
C316   H338    1.081   .     S
C317   N346    1.364   .     A
C317   H339    1.081   .     S
C318   H334    1.083   .     S
C319   H335    1.083   .     S
C320   H336    1.083   .     S
N345   Zn360   2.004   .     S
N346   Zn359   2.004   .     S
O347   Zn359   1.995   .     S
O351   Zn360   1.995   .     S
O352   Zn359   1.995   .     S
O353   Zn360   1.995   .     S
O354   Zn359   1.949   .     S
O355   Zn360   1.949   .     S
O356   Zn359   1.950   .     S
O357   Zn360   1.950   .     S
C361   O425    1.286   .     A
C361   C378    1.441   .     S
C361   O419    1.286   .     A
C362   H409    1.083   .     S
C362   C389    1.408   .     A
C362   C366    1.409   .     A
C363   O429    1.274   .     A
C363   C367    1.365   .     S
C363   O426    1.274   .     A
C364   O427    1.274   .     A
C364   C368    1.365   .     S
C364   O428    1.274   .     A
C365   C392    1.409   .     A
C365   C390    1.409   .     A
C365   C510    1.510   1_545 S
C366   C391    1.409   .     A
C366   C509    1.510   .     S
C368   C655    1.165   .     S
C369   C374    1.392   .     A
C369   C380    1.390   .     A
C369   H412    1.083   .     S
C370   C375    1.386   .     A
C370   C381    1.392   .     A
C370   H413    1.084   .     S
C371   H414    1.084   .     S
C371   C376    1.386   .     A
C371   C381    1.393   .     A
C372   C379    1.433   .     S
C372   O424    1.284   .     A
C372   O423    1.284   .     A
C373   C377    1.392   .     A
C373   C380    1.390   .     A
C373   H415    1.083   .     S
C374   C378    1.409   .     A
C374   O430    1.389   .     S
C375   O420    1.383   .     S
C375   C379    1.407   .     A
C376   C379    1.407   .     A
C376   O421    1.383   .     S
C377   O422    1.389   .     S
C377   C378    1.409   .     A
C381   C308    1.428   1_655 S
C382   H395    1.115   .     S
C382   H394    1.109   .     S
C382   H416    1.110   .     S
C382   O430    1.412   .     S
C383   C390    1.408   .     A
C383   N417    1.364   .     A
C383   H393    1.081   .     S
C384   H398    1.114   .     S
C384   H397    1.113   .     S
C384   H396    1.109   .     S
C384   O420    1.410   .     S
C385   H400    1.113   .     S
C385   O421    1.410   .     S
C385   H401    1.109   .     S
C385   H399    1.114   .     S
C386   H405    1.115   .     S
C386   O422    1.412   .     S
C386   H403    1.109   .     S
C386   H402    1.110   .     S
C387   C391    1.408   .     A
C387   H404    1.081   .     S
C387   N418    1.365   .     A
C388   N417    1.364   .     A
C388   C392    1.408   .     A
C388   H410    1.081   .     S
C389   N418    1.364   .     A
C389   H411    1.081   .     S
C390   H406    1.083   .     S
C391   H407    1.083   .     S
C392   H408    1.083   .     S
N417   Zn432   2.004   .     S
N418   Zn431   2.004   .     S
O419   Zn431   1.995   .     S
O423   Zn432   1.995   .     S
O424   Zn431   1.995   .     S
O425   Zn432   1.995   .     S
O426   Zn431   1.949   .     S
O427   Zn432   1.949   .     S
O428   Zn431   1.950   .     S
O429   Zn432   1.950   .     S
C433   O497    1.286   .     A
C433   C450    1.441   .     S
C433   O491    1.286   .     A
C434   H481    1.083   .     S
C434   C461    1.408   .     A
C434   C438    1.409   .     A
C435   O501    1.274   .     A
C435   C439    1.365   .     S
C435   O498    1.274   .     A
C436   O499    1.274   .     A
C436   C440    1.365   .     S
C436   O500    1.274   .     A
C437   C464    1.409   .     A
C437   C462    1.409   .     A
C438   C463    1.409   .     A
C438   C293    1.510   1_565 S
C440   C727    1.165   .     S
C441   C446    1.392   .     A
C441   C452    1.390   .     A
C441   H484    1.083   .     S
C442   C447    1.386   .     A
C442   C453    1.392   .     A
C442   H485    1.084   .     S
C443   H486    1.084   .     S
C443   C448    1.386   .     A
C443   C453    1.393   .     A
C444   C451    1.433   .     S
C444   O496    1.284   .     A
C444   O495    1.284   .     A
C445   C449    1.392   .     A
C445   C452    1.390   .     A
C445   H487    1.083   .     S
C446   C450    1.409   .     A
C446   O502    1.389   .     S
C447   O492    1.383   .     S
C447   C451    1.407   .     A
C448   C451    1.407   .     A
C448   O493    1.383   .     S
C449   O494    1.389   .     S
C449   C450    1.409   .     A
C452   C525    1.428   1_455 S
C453   C524    1.428   .     S
C454   H467    1.115   .     S
C454   H466    1.109   .     S
C454   H488    1.110   .     S
C454   O502    1.412   .     S
C455   C462    1.408   .     A
C455   N489    1.364   .     A
C455   H465    1.081   .     S
C456   H470    1.114   .     S
C456   H469    1.113   .     S
C456   H468    1.109   .     S
C456   O492    1.410   .     S
C457   H472    1.113   .     S
C457   O493    1.410   .     S
C457   H473    1.109   .     S
C457   H471    1.114   .     S
C458   H477    1.115   .     S
C458   O494    1.412   .     S
C458   H475    1.109   .     S
C458   H474    1.110   .     S
C459   C463    1.408   .     A
C459   H476    1.081   .     S
C459   N490    1.365   .     A
C460   N489    1.364   .     A
C460   C464    1.408   .     A
C460   H482    1.081   .     S
C461   N490    1.364   .     A
C461   H483    1.081   .     S
C462   H478    1.083   .     S
C463   H479    1.083   .     S
C464   H480    1.083   .     S
N489   Zn504   2.004   .     S
N490   Zn503   2.004   .     S
O491   Zn503   1.995   .     S
O495   Zn504   1.995   .     S
O496   Zn503   1.995   .     S
O497   Zn504   1.995   .     S
O498   Zn503   1.949   .     S
O499   Zn504   1.949   .     S
O500   Zn503   1.950   .     S
O501   Zn504   1.950   .     S
C505   O569    1.286   .     A
C505   C522    1.441   .     S
C505   O563    1.286   .     A
C506   H553    1.083   .     S
C506   C533    1.408   .     A
C506   C510    1.409   .     A
C507   O573    1.274   .     A
C507   C511    1.365   .     S
C507   O570    1.274   .     A
C508   O571    1.274   .     A
C508   C512    1.365   .     S
C508   O572    1.274   .     A
C509   C536    1.409   .     A
C509   C534    1.409   .     A
C510   C535    1.409   .     A
C510   C365    1.510   1_565 S
C512   C799    1.165   .     S
C513   C518    1.392   .     A
C513   C524    1.390   .     A
C513   H556    1.083   .     S
C514   C519    1.386   .     A
C514   C525    1.392   .     A
C514   H557    1.084   .     S
C515   H558    1.084   .     S
C515   C520    1.386   .     A
C515   C525    1.393   .     A
C516   C523    1.433   .     S
C516   O568    1.284   .     A
C516   O567    1.284   .     A
C517   C521    1.392   .     A
C517   C524    1.390   .     A
C517   H559    1.083   .     S
C518   C522    1.409   .     A
C518   O574    1.389   .     S
C519   O564    1.383   .     S
C519   C523    1.407   .     A
C520   C523    1.407   .     A
C520   O565    1.383   .     S
C521   O566    1.389   .     S
C521   C522    1.409   .     A
C525   C452    1.428   1_655 S
C526   H539    1.115   .     S
C526   H538    1.109   .     S
C526   H560    1.110   .     S
C526   O574    1.412   .     S
C527   C534    1.408   .     A
C527   N561    1.364   .     A
C527   H537    1.081   .     S
C528   H542    1.114   .     S
C528   H541    1.113   .     S
C528   H540    1.109   .     S
C528   O564    1.410   .     S
C529   H544    1.113   .     S
C529   O565    1.410   .     S
C529   H545    1.109   .     S
C529   H543    1.114   .     S
C530   H549    1.115   .     S
C530   O566    1.412   .     S
C530   H547    1.109   .     S
C530   H546    1.110   .     S
C531   C535    1.408   .     A
C531   H548    1.081   .     S
C531   N562    1.365   .     A
C532   N561    1.364   .     A
C532   C536    1.408   .     A
C532   H554    1.081   .     S
C533   N562    1.364   .     A
C533   H555    1.081   .     S
C534   H550    1.083   .     S
C535   H551    1.083   .     S
C536   H552    1.083   .     S
N561   Zn576   2.004   .     S
N562   Zn575   2.004   .     S
O563   Zn575   1.995   .     S
O567   Zn576   1.995   .     S
O568   Zn575   1.995   .     S
O569   Zn576   1.995   .     S
O570   Zn575   1.949   .     S
O571   Zn576   1.949   .     S
O572   Zn575   1.950   .     S
O573   Zn576   1.950   .     S
C577   O641    1.286   .     A
C577   C594    1.441   .     S
C577   O635    1.286   .     A
C578   H625    1.083   .     S
C578   C605    1.408   .     A
C578   C582    1.409   .     A
C579   O645    1.274   .     A
C579   C583    1.365   .     S
C579   O642    1.274   .     A
C580   O643    1.274   .     A
C580   C584    1.365   .     S
C580   O644    1.274   .     A
C581   C608    1.409   .     A
C581   C606    1.409   .     A
C581   C726    1.510   1_545 S
C582   C607    1.409   .     A
C582   C725    1.510   .     S
C584   C7      1.165   1_556 S
C585   C590    1.392   .     A
C585   C596    1.390   .     A
C585   H628    1.083   .     S
C586   C591    1.386   .     A
C586   C597    1.392   .     A
C586   H629    1.084   .     S
C587   H630    1.084   .     S
C587   C592    1.386   .     A
C587   C597    1.393   .     A
C588   C595    1.433   .     S
C588   O640    1.284   .     A
C588   O639    1.284   .     A
C589   C593    1.392   .     A
C589   C596    1.390   .     A
C589   H631    1.083   .     S
C590   C594    1.409   .     A
C590   O646    1.389   .     S
C591   O636    1.383   .     S
C591   C595    1.407   .     A
C592   C595    1.407   .     A
C592   O637    1.383   .     S
C593   O638    1.389   .     S
C593   C594    1.409   .     A
C596   C669    1.428   1_455 S
C597   C668    1.428   .     S
C598   H611    1.115   .     S
C598   H610    1.109   .     S
C598   H632    1.110   .     S
C598   O646    1.412   .     S
C599   C606    1.408   .     A
C599   N633    1.364   .     A
C599   H609    1.081   .     S
C600   H614    1.114   .     S
C600   H613    1.113   .     S
C600   H612    1.109   .     S
C600   O636    1.410   .     S
C601   H616    1.113   .     S
C601   O637    1.410   .     S
C601   H617    1.109   .     S
C601   H615    1.114   .     S
C602   H621    1.115   .     S
C602   O638    1.412   .     S
C602   H619    1.109   .     S
C602   H618    1.110   .     S
C603   C607    1.408   .     A
C603   H620    1.081   .     S
C603   N634    1.365   .     A
C604   N633    1.364   .     A
C604   C608    1.408   .     A
C604   H626    1.081   .     S
C605   N634    1.364   .     A
C605   H627    1.081   .     S
C606   H622    1.083   .     S
C607   H623    1.083   .     S
C608   H624    1.083   .     S
N633   Zn648   2.004   .     S
N634   Zn647   2.004   .     S
O635   Zn647   1.995   .     S
O639   Zn648   1.995   .     S
O640   Zn647   1.995   .     S
O641   Zn648   1.995   .     S
O642   Zn647   1.949   .     S
O643   Zn648   1.949   .     S
O644   Zn647   1.950   .     S
O645   Zn648   1.950   .     S
C649   O713    1.286   .     A
C649   C666    1.441   .     S
C649   O707    1.286   .     A
C650   H697    1.083   .     S
C650   C677    1.408   .     A
C650   C654    1.409   .     A
C651   O717    1.274   .     A
C651   C655    1.365   .     S
C651   O714    1.274   .     A
C652   O715    1.274   .     A
C652   C656    1.365   .     S
C652   O716    1.274   .     A
C653   C680    1.409   .     A
C653   C678    1.409   .     A
C653   C798    1.510   1_545 S
C654   C679    1.409   .     A
C654   C797    1.510   .     S
C656   C79     1.165   1_556 S
C657   C662    1.392   .     A
C657   C668    1.390   .     A
C657   H700    1.083   .     S
C658   C663    1.386   .     A
C658   C669    1.392   .     A
C658   H701    1.084   .     S
C659   H702    1.084   .     S
C659   C664    1.386   .     A
C659   C669    1.393   .     A
C660   C667    1.433   .     S
C660   O712    1.284   .     A
C660   O711    1.284   .     A
C661   C665    1.392   .     A
C661   C668    1.390   .     A
C661   H703    1.083   .     S
C662   C666    1.409   .     A
C662   O718    1.389   .     S
C663   O708    1.383   .     S
C663   C667    1.407   .     A
C664   C667    1.407   .     A
C664   O709    1.383   .     S
C665   O710    1.389   .     S
C665   C666    1.409   .     A
C669   C596    1.428   1_655 S
C670   H683    1.115   .     S
C670   H682    1.109   .     S
C670   H704    1.110   .     S
C670   O718    1.412   .     S
C671   C678    1.408   .     A
C671   N705    1.364   .     A
C671   H681    1.081   .     S
C672   H686    1.114   .     S
C672   H685    1.113   .     S
C672   H684    1.109   .     S
C672   O708    1.410   .     S
C673   H688    1.113   .     S
C673   O709    1.410   .     S
C673   H689    1.109   .     S
C673   H687    1.114   .     S
C674   H693    1.115   .     S
C674   O710    1.412   .     S
C674   H691    1.109   .     S
C674   H690    1.110   .     S
C675   C679    1.408   .     A
C675   H692    1.081   .     S
C675   N706    1.365   .     A
C676   N705    1.364   .     A
C676   C680    1.408   .     A
C676   H698    1.081   .     S
C677   N706    1.364   .     A
C677   H699    1.081   .     S
C678   H694    1.083   .     S
C679   H695    1.083   .     S
C680   H696    1.083   .     S
N705   Zn720   2.004   .     S
N706   Zn719   2.004   .     S
O707   Zn719   1.995   .     S
O711   Zn720   1.995   .     S
O712   Zn719   1.995   .     S
O713   Zn720   1.995   .     S
O714   Zn719   1.949   .     S
O715   Zn720   1.949   .     S
O716   Zn719   1.950   .     S
O717   Zn720   1.950   .     S
C721   O785    1.286   .     A
C721   C738    1.441   .     S
C721   O779    1.286   .     A
C722   H769    1.083   .     S
C722   C749    1.408   .     A
C722   C726    1.409   .     A
C723   O789    1.274   .     A
C723   C727    1.365   .     S
C723   O786    1.274   .     A
C724   O787    1.274   .     A
C724   C728    1.365   .     S
C724   O788    1.274   .     A
C725   C752    1.409   .     A
C725   C750    1.409   .     A
C726   C751    1.409   .     A
C726   C581    1.510   1_565 S
C728   C151    1.165   1_556 S
C729   C734    1.392   .     A
C729   C740    1.390   .     A
C729   H772    1.083   .     S
C730   C735    1.386   .     A
C730   C741    1.392   .     A
C730   H773    1.084   .     S
C731   H774    1.084   .     S
C731   C736    1.386   .     A
C731   C741    1.393   .     A
C732   C739    1.433   .     S
C732   O784    1.284   .     A
C732   O783    1.284   .     A
C733   C737    1.392   .     A
C733   C740    1.390   .     A
C733   H775    1.083   .     S
C734   C738    1.409   .     A
C734   O790    1.389   .     S
C735   O780    1.383   .     S
C735   C739    1.407   .     A
C736   C739    1.407   .     A
C736   O781    1.383   .     S
C737   O782    1.389   .     S
C737   C738    1.409   .     A
C740   C813    1.428   1_455 S
C741   C812    1.428   .     S
C742   H755    1.115   .     S
C742   H754    1.109   .     S
C742   H776    1.110   .     S
C742   O790    1.412   .     S
C743   C750    1.408   .     A
C743   N777    1.364   .     A
C743   H753    1.081   .     S
C744   H758    1.114   .     S
C744   H757    1.113   .     S
C744   H756    1.109   .     S
C744   O780    1.410   .     S
C745   H760    1.113   .     S
C745   O781    1.410   .     S
C745   H761    1.109   .     S
C745   H759    1.114   .     S
C746   H765    1.115   .     S
C746   O782    1.412   .     S
C746   H763    1.109   .     S
C746   H762    1.110   .     S
C747   C751    1.408   .     A
C747   H764    1.081   .     S
C747   N778    1.365   .     A
C748   N777    1.364   .     A
C748   C752    1.408   .     A
C748   H770    1.081   .     S
C749   N778    1.364   .     A
C749   H771    1.081   .     S
C750   H766    1.083   .     S
C751   H767    1.083   .     S
C752   H768    1.083   .     S
N777   Zn792   2.004   .     S
N778   Zn791   2.004   .     S
O779   Zn791   1.995   .     S
O783   Zn792   1.995   .     S
O784   Zn791   1.995   .     S
O785   Zn792   1.995   .     S
O786   Zn791   1.949   .     S
O787   Zn792   1.949   .     S
O788   Zn791   1.950   .     S
O789   Zn792   1.950   .     S
C793   O857    1.286   .     A
C793   C810    1.441   .     S
C793   O851    1.286   .     A
C794   H841    1.083   .     S
C794   C821    1.408   .     A
C794   C798    1.409   .     A
C795   O861    1.274   .     A
C795   C799    1.365   .     S
C795   O858    1.274   .     A
C796   O859    1.274   .     A
C796   C800    1.365   .     S
C796   O860    1.274   .     A
C797   C824    1.409   .     A
C797   C822    1.409   .     A
C798   C823    1.409   .     A
C798   C653    1.510   1_565 S
C800   C223    1.165   1_556 S
C801   C806    1.392   .     A
C801   C812    1.390   .     A
C801   H844    1.083   .     S
C802   C807    1.386   .     A
C802   C813    1.392   .     A
C802   H845    1.084   .     S
C803   H846    1.084   .     S
C803   C808    1.386   .     A
C803   C813    1.393   .     A
C804   C811    1.433   .     S
C804   O856    1.284   .     A
C804   O855    1.284   .     A
C805   C809    1.392   .     A
C805   C812    1.390   .     A
C805   H847    1.083   .     S
C806   C810    1.409   .     A
C806   O862    1.389   .     S
C807   O852    1.383   .     S
C807   C811    1.407   .     A
C808   C811    1.407   .     A
C808   O853    1.383   .     S
C809   O854    1.389   .     S
C809   C810    1.409   .     A
C813   C740    1.428   1_655 S
C814   H827    1.115   .     S
C814   H826    1.109   .     S
C814   H848    1.110   .     S
C814   O862    1.412   .     S
C815   C822    1.408   .     A
C815   N849    1.364   .     A
C815   H825    1.081   .     S
C816   H830    1.114   .     S
C816   H829    1.113   .     S
C816   H828    1.109   .     S
C816   O852    1.410   .     S
C817   H832    1.113   .     S
C817   O853    1.410   .     S
C817   H833    1.109   .     S
C817   H831    1.114   .     S
C818   H837    1.115   .     S
C818   O854    1.412   .     S
C818   H835    1.109   .     S
C818   H834    1.110   .     S
C819   C823    1.408   .     A
C819   H836    1.081   .     S
C819   N850    1.365   .     A
C820   N849    1.364   .     A
C820   C824    1.408   .     A
C820   H842    1.081   .     S
C821   N850    1.364   .     A
C821   H843    1.081   .     S
C822   H838    1.083   .     S
C823   H839    1.083   .     S
C824   H840    1.083   .     S
N849   Zn864   2.004   .     S
N850   Zn863   2.004   .     S
O851   Zn863   1.995   .     S
O855   Zn864   1.995   .     S
O856   Zn863   1.995   .     S
O857   Zn864   1.995   .     S
O858   Zn863   1.949   .     S
O859   Zn864   1.949   .     S
O860   Zn863   1.950   .     S
O861   Zn864   1.950   .     S
