data_str_m3_o1_o10_pcu_sym.219
_audit_creation_date              2020-01-03
_audit_creation_method            'Materials Studio'
_symmetry_space_group_name_H-M    'P1'
_symmetry_Int_Tables_number       1
_symmetry_cell_setting            triclinic
loop_
_symmetry_equiv_pos_as_xyz
  x,y,z
_cell_length_a                    25.9330
_cell_length_b                    32.1570
_cell_length_c                    29.5276
_cell_angle_alpha                 90.3075
_cell_angle_beta                  97.0023
_cell_angle_gamma                 90.3990
loop_
_atom_site_label
_atom_site_type_symbol
_atom_site_fract_x
_atom_site_fract_y
_atom_site_fract_z
_atom_site_U_iso_or_equiv
_atom_site_adp_type
_atom_site_occupancy
C1     C     0.16936   0.08675   0.16678   0.00000  Uiso   1.00
C2     C     0.16398   0.24661   0.16660   0.00000  Uiso   1.00
C3     C     0.06738   0.16696   0.15538   0.00000  Uiso   1.00
C4     C     0.26596   0.16631   0.17792   0.00000  Uiso   1.00
C5     C     0.01414   0.17529   0.15132   0.00000  Uiso   1.00
C6     C     0.31917   0.15778   0.18178   0.00000  Uiso   1.00
C7     C     0.19781   0.01981   0.13684   0.00000  Uiso   1.00
C8     C     0.13649   0.31363   0.19739   0.00000  Uiso   1.00
C9     C     0.19237   0.31058   0.13634   0.00000  Uiso   1.00
C10    C     0.14143   0.02287   0.19742   0.00000  Uiso   1.00
C11    C     0.16310   0.29082   0.16673   0.00000  Uiso   1.00
C12    C     0.17053   0.04258   0.16693   0.00000  Uiso   1.00
C13    C     0.18807   0.19904   0.02642   0.00000  Uiso   1.00
C14    C     0.14518   0.13432   0.30691   0.00000  Uiso   1.00
C15    C     0.18861   0.19880   0.31189   0.00000  Uiso   1.00
C16    C     0.14466   0.13456   0.02144   0.00000  Uiso   1.00
H17    H     0.21233   0.29260   0.11283   0.00000  Uiso   1.00
H18    H     0.12161   0.04093   0.22096   0.00000  Uiso   1.00
H19    H     0.20492   0.22510   0.04644   0.00000  Uiso   1.00
H20    H     0.12832   0.10827   0.28688   0.00000  Uiso   1.00
H21    H     0.20659   0.22434   0.29584   0.00000  Uiso   1.00
H22    H     0.12667   0.10902   0.03749   0.00000  Uiso   1.00
N23    N     0.16665   0.16666   0.28573   0.00000  Uiso   1.00
N24    N     0.16668   0.16668   0.04760   0.00000  Uiso   1.00
O25    O     0.16666   0.10558   0.20487   0.00000  Uiso   1.00
O26    O     0.16667   0.22775   0.12846   0.00000  Uiso   1.00
O27    O     0.16666   0.10559   0.12843   0.00000  Uiso   1.00
O28    O     0.16667   0.22774   0.20490   0.00000  Uiso   1.00
O29    O     0.09058   0.16666   0.19595   0.00000  Uiso   1.00
O30    O     0.24275   0.16667   0.13739   0.00000  Uiso   1.00
O31    O     0.09058   0.16667   0.11950   0.00000  Uiso   1.00
O32    O     0.24275   0.16666   0.21383   0.00000  Uiso   1.00
Zn33   Zn    0.16667   0.16666   0.21771   0.00000  Uiso   1.00
Zn34   Zn    0.16667   0.16667   0.11563   0.00000  Uiso   1.00
S35    S     0.32654   0.21618   0.11271   0.00000  Uiso   1.00
O36    O     0.30028   0.19733   0.06921   0.00000  Uiso   1.00
O37    O     0.28924   0.24430   0.13296   0.00000  Uiso   1.00
O38    O     0.04436   0.24454   0.10011   0.00000  Uiso   1.00
H39    H     0.04661   0.26871   0.12119   0.00000  Uiso   1.00
S40    S     0.00656   0.11624   0.21955   0.00000  Uiso   1.00
O41    O     0.04433   0.08880   0.19906   0.00000  Uiso   1.00
O42    O     0.03215   0.13427   0.26378   0.00000  Uiso   1.00
O43    O     0.28870   0.08681   0.22997   0.00000  Uiso   1.00
H44    H     0.27901   0.09693   0.25951   0.00000  Uiso   1.00
S45    S     0.24124   0.04197   0.10140   0.00000  Uiso   1.00
O46    O     0.26905   0.07893   0.12433   0.00000  Uiso   1.00
O47    O     0.28099   0.01054   0.09122   0.00000  Uiso   1.00
O48    O     0.20778   0.05701   0.05200   0.00000  Uiso   1.00
H49    H     0.18979   0.03153   0.03914   0.00000  Uiso   1.00
S50    S     0.09541   0.29158   0.23497   0.00000  Uiso   1.00
O51    O     0.12812   0.27803   0.27775   0.00000  Uiso   1.00
O52    O     0.05713   0.32339   0.24729   0.00000  Uiso   1.00
O53    O     0.06236   0.25056   0.21068   0.00000  Uiso   1.00
H54    H     0.04203   0.23974   0.23443   0.00000  Uiso   1.00
C55    C     0.50269   0.08675   0.16678   0.00000  Uiso   1.00
C56    C     0.49731   0.24661   0.16660   0.00000  Uiso   1.00
C57    C     0.40072   0.16696   0.15538   0.00000  Uiso   1.00
C58    C     0.59929   0.16631   0.17792   0.00000  Uiso   1.00
C59    C     0.34747   0.17529   0.15132   0.00000  Uiso   1.00
C60    C     0.65250   0.15778   0.18178   0.00000  Uiso   1.00
C61    C     0.53114   0.01981   0.13684   0.00000  Uiso   1.00
C62    C     0.46982   0.31363   0.19739   0.00000  Uiso   1.00
C63    C     0.52570   0.31058   0.13634   0.00000  Uiso   1.00
C64    C     0.47476   0.02287   0.19742   0.00000  Uiso   1.00
C65    C     0.49644   0.29082   0.16673   0.00000  Uiso   1.00
C66    C     0.50386   0.04258   0.16693   0.00000  Uiso   1.00
C67    C     0.52141   0.19904   0.02642   0.00000  Uiso   1.00
C68    C     0.47852   0.13432   0.30691   0.00000  Uiso   1.00
C69    C     0.52194   0.19880   0.31189   0.00000  Uiso   1.00
C70    C     0.47799   0.13456   0.02144   0.00000  Uiso   1.00
H71    H     0.54567   0.29260   0.11283   0.00000  Uiso   1.00
H72    H     0.45494   0.04093   0.22096   0.00000  Uiso   1.00
H73    H     0.53825   0.22510   0.04644   0.00000  Uiso   1.00
H74    H     0.46165   0.10827   0.28688   0.00000  Uiso   1.00
H75    H     0.53992   0.22434   0.29584   0.00000  Uiso   1.00
H76    H     0.46001   0.10902   0.03749   0.00000  Uiso   1.00
N77    N     0.49999   0.16666   0.28573   0.00000  Uiso   1.00
N78    N     0.50001   0.16668   0.04760   0.00000  Uiso   1.00
O79    O     0.50000   0.10558   0.20487   0.00000  Uiso   1.00
O80    O     0.50000   0.22775   0.12846   0.00000  Uiso   1.00
O81    O     0.50000   0.10559   0.12843   0.00000  Uiso   1.00
O82    O     0.50000   0.22774   0.20490   0.00000  Uiso   1.00
O83    O     0.42392   0.16666   0.19595   0.00000  Uiso   1.00
O84    O     0.57608   0.16667   0.13739   0.00000  Uiso   1.00
O85    O     0.42392   0.16667   0.11950   0.00000  Uiso   1.00
O86    O     0.57608   0.16666   0.21383   0.00000  Uiso   1.00
Zn87   Zn    0.50000   0.16666   0.21771   0.00000  Uiso   1.00
Zn88   Zn    0.50000   0.16667   0.11563   0.00000  Uiso   1.00
S89    S     0.65987   0.21618   0.11271   0.00000  Uiso   1.00
O90    O     0.63361   0.19733   0.06921   0.00000  Uiso   1.00
O91    O     0.62257   0.24430   0.13296   0.00000  Uiso   1.00
O92    O     0.37769   0.24454   0.10011   0.00000  Uiso   1.00
H93    H     0.37994   0.26871   0.12119   0.00000  Uiso   1.00
S94    S     0.33990   0.11624   0.21955   0.00000  Uiso   1.00
O95    O     0.37767   0.08880   0.19906   0.00000  Uiso   1.00
O96    O     0.36548   0.13427   0.26378   0.00000  Uiso   1.00
O97    O     0.62203   0.08681   0.22997   0.00000  Uiso   1.00
H98    H     0.61234   0.09693   0.25951   0.00000  Uiso   1.00
S99    S     0.57457   0.04197   0.10140   0.00000  Uiso   1.00
O100   O     0.60238   0.07893   0.12433   0.00000  Uiso   1.00
O101   O     0.61433   0.01054   0.09122   0.00000  Uiso   1.00
O102   O     0.54111   0.05701   0.05200   0.00000  Uiso   1.00
H103   H     0.52312   0.03153   0.03914   0.00000  Uiso   1.00
S104   S     0.42874   0.29158   0.23497   0.00000  Uiso   1.00
O105   O     0.46146   0.27803   0.27775   0.00000  Uiso   1.00
O106   O     0.39046   0.32339   0.24729   0.00000  Uiso   1.00
O107   O     0.39569   0.25056   0.21068   0.00000  Uiso   1.00
H108   H     0.37536   0.23974   0.23443   0.00000  Uiso   1.00
C109   C     0.83603   0.08675   0.16678   0.00000  Uiso   1.00
C110   C     0.83064   0.24661   0.16660   0.00000  Uiso   1.00
C111   C     0.73405   0.16696   0.15538   0.00000  Uiso   1.00
C112   C     0.93262   0.16631   0.17792   0.00000  Uiso   1.00
C113   C     0.68081   0.17529   0.15132   0.00000  Uiso   1.00
C114   C     0.98583   0.15778   0.18178   0.00000  Uiso   1.00
C115   C     0.86448   0.01981   0.13684   0.00000  Uiso   1.00
C116   C     0.80316   0.31363   0.19739   0.00000  Uiso   1.00
C117   C     0.85904   0.31058   0.13634   0.00000  Uiso   1.00
C118   C     0.80810   0.02287   0.19742   0.00000  Uiso   1.00
C119   C     0.82977   0.29082   0.16673   0.00000  Uiso   1.00
C120   C     0.83719   0.04258   0.16693   0.00000  Uiso   1.00
C121   C     0.85474   0.19904   0.02642   0.00000  Uiso   1.00
C122   C     0.81185   0.13432   0.30691   0.00000  Uiso   1.00
C123   C     0.85527   0.19880   0.31189   0.00000  Uiso   1.00
C124   C     0.81132   0.13456   0.02144   0.00000  Uiso   1.00
H125   H     0.87900   0.29260   0.11283   0.00000  Uiso   1.00
H126   H     0.78828   0.04093   0.22096   0.00000  Uiso   1.00
H127   H     0.87159   0.22510   0.04644   0.00000  Uiso   1.00
H128   H     0.79498   0.10827   0.28688   0.00000  Uiso   1.00
H129   H     0.87326   0.22434   0.29584   0.00000  Uiso   1.00
H130   H     0.79334   0.10902   0.03749   0.00000  Uiso   1.00
N131   N     0.83332   0.16666   0.28573   0.00000  Uiso   1.00
N132   N     0.83335   0.16668   0.04760   0.00000  Uiso   1.00
O133   O     0.83333   0.10558   0.20487   0.00000  Uiso   1.00
O134   O     0.83334   0.22775   0.12846   0.00000  Uiso   1.00
O135   O     0.83333   0.10559   0.12843   0.00000  Uiso   1.00
O136   O     0.83334   0.22774   0.20490   0.00000  Uiso   1.00
O137   O     0.75725   0.16666   0.19595   0.00000  Uiso   1.00
O138   O     0.90942   0.16667   0.13739   0.00000  Uiso   1.00
O139   O     0.75725   0.16667   0.11950   0.00000  Uiso   1.00
O140   O     0.90942   0.16666   0.21383   0.00000  Uiso   1.00
Zn141  Zn    0.83333   0.16666   0.21771   0.00000  Uiso   1.00
Zn142  Zn    0.83333   0.16667   0.11563   0.00000  Uiso   1.00
S143   S     0.99320   0.21618   0.11271   0.00000  Uiso   1.00
O144   O     0.96694   0.19733   0.06921   0.00000  Uiso   1.00
O145   O     0.95591   0.24430   0.13296   0.00000  Uiso   1.00
O146   O     0.71102   0.24454   0.10011   0.00000  Uiso   1.00
H147   H     0.71327   0.26871   0.12119   0.00000  Uiso   1.00
S148   S     0.67323   0.11624   0.21955   0.00000  Uiso   1.00
O149   O     0.71100   0.08880   0.19906   0.00000  Uiso   1.00
O150   O     0.69882   0.13427   0.26378   0.00000  Uiso   1.00
O151   O     0.95536   0.08681   0.22997   0.00000  Uiso   1.00
H152   H     0.94568   0.09693   0.25951   0.00000  Uiso   1.00
S153   S     0.90790   0.04197   0.10140   0.00000  Uiso   1.00
O154   O     0.93571   0.07893   0.12433   0.00000  Uiso   1.00
O155   O     0.94766   0.01054   0.09122   0.00000  Uiso   1.00
O156   O     0.87444   0.05701   0.05200   0.00000  Uiso   1.00
H157   H     0.85645   0.03153   0.03914   0.00000  Uiso   1.00
S158   S     0.76207   0.29158   0.23497   0.00000  Uiso   1.00
O159   O     0.79479   0.27803   0.27775   0.00000  Uiso   1.00
O160   O     0.72380   0.32339   0.24729   0.00000  Uiso   1.00
O161   O     0.72902   0.25056   0.21068   0.00000  Uiso   1.00
H162   H     0.70870   0.23974   0.23443   0.00000  Uiso   1.00
C163   C     0.16936   0.42009   0.16678   0.00000  Uiso   1.00
C164   C     0.16398   0.57994   0.16660   0.00000  Uiso   1.00
C165   C     0.06738   0.50029   0.15538   0.00000  Uiso   1.00
C166   C     0.26596   0.49965   0.17792   0.00000  Uiso   1.00
C167   C     0.01414   0.50862   0.15132   0.00000  Uiso   1.00
C168   C     0.31917   0.49112   0.18178   0.00000  Uiso   1.00
C169   C     0.19781   0.35314   0.13684   0.00000  Uiso   1.00
C170   C     0.13649   0.64696   0.19739   0.00000  Uiso   1.00
C171   C     0.19237   0.64392   0.13634   0.00000  Uiso   1.00
C172   C     0.14143   0.35620   0.19742   0.00000  Uiso   1.00
C173   C     0.16310   0.62416   0.16673   0.00000  Uiso   1.00
C174   C     0.17053   0.37592   0.16693   0.00000  Uiso   1.00
C175   C     0.18807   0.53238   0.02642   0.00000  Uiso   1.00
C176   C     0.14518   0.46765   0.30691   0.00000  Uiso   1.00
C177   C     0.18861   0.53213   0.31189   0.00000  Uiso   1.00
C178   C     0.14466   0.46790   0.02144   0.00000  Uiso   1.00
H179   H     0.21233   0.62593   0.11283   0.00000  Uiso   1.00
H180   H     0.12161   0.37426   0.22096   0.00000  Uiso   1.00
H181   H     0.20492   0.55844   0.04644   0.00000  Uiso   1.00
H182   H     0.12832   0.44160   0.28688   0.00000  Uiso   1.00
H183   H     0.20659   0.55767   0.29584   0.00000  Uiso   1.00
H184   H     0.12667   0.44236   0.03749   0.00000  Uiso   1.00
N185   N     0.16665   0.49999   0.28573   0.00000  Uiso   1.00
N186   N     0.16668   0.50001   0.04760   0.00000  Uiso   1.00
O187   O     0.16666   0.43892   0.20487   0.00000  Uiso   1.00
O188   O     0.16667   0.56108   0.12846   0.00000  Uiso   1.00
O189   O     0.16666   0.43893   0.12843   0.00000  Uiso   1.00
O190   O     0.16667   0.56107   0.20490   0.00000  Uiso   1.00
O191   O     0.09058   0.50000   0.19595   0.00000  Uiso   1.00
O192   O     0.24275   0.50000   0.13739   0.00000  Uiso   1.00
O193   O     0.09058   0.50000   0.11950   0.00000  Uiso   1.00
O194   O     0.24275   0.50000   0.21383   0.00000  Uiso   1.00
Zn195  Zn    0.16667   0.49999   0.21771   0.00000  Uiso   1.00
Zn196  Zn    0.16667   0.50001   0.11563   0.00000  Uiso   1.00
S197   S     0.32654   0.54952   0.11271   0.00000  Uiso   1.00
O198   O     0.30028   0.53066   0.06921   0.00000  Uiso   1.00
O199   O     0.28924   0.57764   0.13296   0.00000  Uiso   1.00
O200   O     0.04436   0.57787   0.10011   0.00000  Uiso   1.00
H201   H     0.04661   0.60205   0.12119   0.00000  Uiso   1.00
S202   S     0.00656   0.44957   0.21955   0.00000  Uiso   1.00
O203   O     0.04433   0.42213   0.19906   0.00000  Uiso   1.00
O204   O     0.03215   0.46761   0.26378   0.00000  Uiso   1.00
O205   O     0.28870   0.42015   0.22997   0.00000  Uiso   1.00
H206   H     0.27901   0.43026   0.25951   0.00000  Uiso   1.00
S207   S     0.24124   0.37530   0.10140   0.00000  Uiso   1.00
O208   O     0.26905   0.41226   0.12433   0.00000  Uiso   1.00
O209   O     0.28099   0.34387   0.09122   0.00000  Uiso   1.00
O210   O     0.20778   0.39035   0.05200   0.00000  Uiso   1.00
H211   H     0.18979   0.36487   0.03914   0.00000  Uiso   1.00
S212   S     0.09541   0.62492   0.23497   0.00000  Uiso   1.00
O213   O     0.12812   0.61136   0.27775   0.00000  Uiso   1.00
O214   O     0.05713   0.65672   0.24729   0.00000  Uiso   1.00
O215   O     0.06236   0.58390   0.21068   0.00000  Uiso   1.00
H216   H     0.04203   0.57308   0.23443   0.00000  Uiso   1.00
C217   C     0.50269   0.42009   0.16678   0.00000  Uiso   1.00
C218   C     0.49731   0.57994   0.16660   0.00000  Uiso   1.00
C219   C     0.40072   0.50029   0.15538   0.00000  Uiso   1.00
C220   C     0.59929   0.49965   0.17792   0.00000  Uiso   1.00
C221   C     0.34747   0.50862   0.15132   0.00000  Uiso   1.00
C222   C     0.65250   0.49112   0.18178   0.00000  Uiso   1.00
C223   C     0.53114   0.35314   0.13684   0.00000  Uiso   1.00
C224   C     0.46982   0.64696   0.19739   0.00000  Uiso   1.00
C225   C     0.52570   0.64392   0.13634   0.00000  Uiso   1.00
C226   C     0.47476   0.35620   0.19742   0.00000  Uiso   1.00
C227   C     0.49644   0.62416   0.16673   0.00000  Uiso   1.00
C228   C     0.50386   0.37592   0.16693   0.00000  Uiso   1.00
C229   C     0.52141   0.53238   0.02642   0.00000  Uiso   1.00
C230   C     0.47852   0.46765   0.30691   0.00000  Uiso   1.00
C231   C     0.52194   0.53213   0.31189   0.00000  Uiso   1.00
C232   C     0.47799   0.46790   0.02144   0.00000  Uiso   1.00
H233   H     0.54567   0.62593   0.11283   0.00000  Uiso   1.00
H234   H     0.45494   0.37426   0.22096   0.00000  Uiso   1.00
H235   H     0.53825   0.55844   0.04644   0.00000  Uiso   1.00
H236   H     0.46165   0.44160   0.28688   0.00000  Uiso   1.00
H237   H     0.53992   0.55767   0.29584   0.00000  Uiso   1.00
H238   H     0.46001   0.44236   0.03749   0.00000  Uiso   1.00
N239   N     0.49999   0.49999   0.28573   0.00000  Uiso   1.00
N240   N     0.50001   0.50001   0.04760   0.00000  Uiso   1.00
O241   O     0.50000   0.43892   0.20487   0.00000  Uiso   1.00
O242   O     0.50000   0.56108   0.12846   0.00000  Uiso   1.00
O243   O     0.50000   0.43893   0.12843   0.00000  Uiso   1.00
O244   O     0.50000   0.56107   0.20490   0.00000  Uiso   1.00
O245   O     0.42392   0.50000   0.19595   0.00000  Uiso   1.00
O246   O     0.57608   0.50000   0.13739   0.00000  Uiso   1.00
O247   O     0.42392   0.50000   0.11950   0.00000  Uiso   1.00
O248   O     0.57608   0.50000   0.21383   0.00000  Uiso   1.00
Zn249  Zn    0.50000   0.49999   0.21771   0.00000  Uiso   1.00
Zn250  Zn    0.50000   0.50001   0.11563   0.00000  Uiso   1.00
S251   S     0.65987   0.54952   0.11271   0.00000  Uiso   1.00
O252   O     0.63361   0.53066   0.06921   0.00000  Uiso   1.00
O253   O     0.62257   0.57764   0.13296   0.00000  Uiso   1.00
O254   O     0.37769   0.57787   0.10011   0.00000  Uiso   1.00
H255   H     0.37994   0.60205   0.12119   0.00000  Uiso   1.00
S256   S     0.33990   0.44957   0.21955   0.00000  Uiso   1.00
O257   O     0.37767   0.42213   0.19906   0.00000  Uiso   1.00
O258   O     0.36548   0.46761   0.26378   0.00000  Uiso   1.00
O259   O     0.62203   0.42015   0.22997   0.00000  Uiso   1.00
H260   H     0.61234   0.43026   0.25951   0.00000  Uiso   1.00
S261   S     0.57457   0.37530   0.10140   0.00000  Uiso   1.00
O262   O     0.60238   0.41226   0.12433   0.00000  Uiso   1.00
O263   O     0.61433   0.34387   0.09122   0.00000  Uiso   1.00
O264   O     0.54111   0.39035   0.05200   0.00000  Uiso   1.00
H265   H     0.52312   0.36487   0.03914   0.00000  Uiso   1.00
S266   S     0.42874   0.62492   0.23497   0.00000  Uiso   1.00
O267   O     0.46146   0.61136   0.27775   0.00000  Uiso   1.00
O268   O     0.39046   0.65672   0.24729   0.00000  Uiso   1.00
O269   O     0.39569   0.58390   0.21068   0.00000  Uiso   1.00
H270   H     0.37536   0.57308   0.23443   0.00000  Uiso   1.00
C271   C     0.83603   0.42009   0.16678   0.00000  Uiso   1.00
C272   C     0.83064   0.57994   0.16660   0.00000  Uiso   1.00
C273   C     0.73405   0.50029   0.15538   0.00000  Uiso   1.00
C274   C     0.93262   0.49965   0.17792   0.00000  Uiso   1.00
C275   C     0.68081   0.50862   0.15132   0.00000  Uiso   1.00
C276   C     0.98583   0.49112   0.18178   0.00000  Uiso   1.00
C277   C     0.86448   0.35314   0.13684   0.00000  Uiso   1.00
C278   C     0.80316   0.64696   0.19739   0.00000  Uiso   1.00
C279   C     0.85904   0.64392   0.13634   0.00000  Uiso   1.00
C280   C     0.80810   0.35620   0.19742   0.00000  Uiso   1.00
C281   C     0.82977   0.62416   0.16673   0.00000  Uiso   1.00
C282   C     0.83719   0.37592   0.16693   0.00000  Uiso   1.00
C283   C     0.85474   0.53238   0.02642   0.00000  Uiso   1.00
C284   C     0.81185   0.46765   0.30691   0.00000  Uiso   1.00
C285   C     0.85527   0.53213   0.31189   0.00000  Uiso   1.00
C286   C     0.81132   0.46790   0.02144   0.00000  Uiso   1.00
H287   H     0.87900   0.62593   0.11283   0.00000  Uiso   1.00
H288   H     0.78828   0.37426   0.22096   0.00000  Uiso   1.00
H289   H     0.87159   0.55844   0.04644   0.00000  Uiso   1.00
H290   H     0.79498   0.44160   0.28688   0.00000  Uiso   1.00
H291   H     0.87326   0.55767   0.29584   0.00000  Uiso   1.00
H292   H     0.79334   0.44236   0.03749   0.00000  Uiso   1.00
N293   N     0.83332   0.49999   0.28573   0.00000  Uiso   1.00
N294   N     0.83335   0.50001   0.04760   0.00000  Uiso   1.00
O295   O     0.83333   0.43892   0.20487   0.00000  Uiso   1.00
O296   O     0.83334   0.56108   0.12846   0.00000  Uiso   1.00
O297   O     0.83333   0.43893   0.12843   0.00000  Uiso   1.00
O298   O     0.83334   0.56107   0.20490   0.00000  Uiso   1.00
O299   O     0.75725   0.50000   0.19595   0.00000  Uiso   1.00
O300   O     0.90942   0.50000   0.13739   0.00000  Uiso   1.00
O301   O     0.75725   0.50000   0.11950   0.00000  Uiso   1.00
O302   O     0.90942   0.50000   0.21383   0.00000  Uiso   1.00
Zn303  Zn    0.83333   0.49999   0.21771   0.00000  Uiso   1.00
Zn304  Zn    0.83333   0.50001   0.11563   0.00000  Uiso   1.00
S305   S     0.99320   0.54952   0.11271   0.00000  Uiso   1.00
O306   O     0.96694   0.53066   0.06921   0.00000  Uiso   1.00
O307   O     0.95591   0.57764   0.13296   0.00000  Uiso   1.00
O308   O     0.71102   0.57787   0.10011   0.00000  Uiso   1.00
H309   H     0.71327   0.60205   0.12119   0.00000  Uiso   1.00
S310   S     0.67323   0.44957   0.21955   0.00000  Uiso   1.00
O311   O     0.71100   0.42213   0.19906   0.00000  Uiso   1.00
O312   O     0.69882   0.46761   0.26378   0.00000  Uiso   1.00
O313   O     0.95536   0.42015   0.22997   0.00000  Uiso   1.00
H314   H     0.94568   0.43026   0.25951   0.00000  Uiso   1.00
S315   S     0.90790   0.37530   0.10140   0.00000  Uiso   1.00
O316   O     0.93571   0.41226   0.12433   0.00000  Uiso   1.00
O317   O     0.94766   0.34387   0.09122   0.00000  Uiso   1.00
O318   O     0.87444   0.39035   0.05200   0.00000  Uiso   1.00
H319   H     0.85645   0.36487   0.03914   0.00000  Uiso   1.00
S320   S     0.76207   0.62492   0.23497   0.00000  Uiso   1.00
O321   O     0.79479   0.61136   0.27775   0.00000  Uiso   1.00
O322   O     0.72380   0.65672   0.24729   0.00000  Uiso   1.00
O323   O     0.72902   0.58390   0.21068   0.00000  Uiso   1.00
H324   H     0.70870   0.57308   0.23443   0.00000  Uiso   1.00
C325   C     0.16936   0.75342   0.16678   0.00000  Uiso   1.00
C326   C     0.16398   0.91327   0.16660   0.00000  Uiso   1.00
C327   C     0.06738   0.83363   0.15538   0.00000  Uiso   1.00
C328   C     0.26596   0.83298   0.17792   0.00000  Uiso   1.00
C329   C     0.01414   0.84196   0.15132   0.00000  Uiso   1.00
C330   C     0.31917   0.82445   0.18178   0.00000  Uiso   1.00
C331   C     0.19781   0.68648   0.13684   0.00000  Uiso   1.00
C332   C     0.13649   0.98030   0.19739   0.00000  Uiso   1.00
C333   C     0.19237   0.97725   0.13634   0.00000  Uiso   1.00
C334   C     0.14143   0.68954   0.19742   0.00000  Uiso   1.00
C335   C     0.16310   0.95749   0.16673   0.00000  Uiso   1.00
C336   C     0.17053   0.70925   0.16693   0.00000  Uiso   1.00
C337   C     0.18807   0.86571   0.02642   0.00000  Uiso   1.00
C338   C     0.14518   0.80099   0.30691   0.00000  Uiso   1.00
C339   C     0.18861   0.86547   0.31189   0.00000  Uiso   1.00
C340   C     0.14466   0.80123   0.02144   0.00000  Uiso   1.00
H341   H     0.21233   0.95927   0.11283   0.00000  Uiso   1.00
H342   H     0.12161   0.70760   0.22096   0.00000  Uiso   1.00
H343   H     0.20492   0.89177   0.04644   0.00000  Uiso   1.00
H344   H     0.12832   0.77494   0.28688   0.00000  Uiso   1.00
H345   H     0.20659   0.89100   0.29584   0.00000  Uiso   1.00
H346   H     0.12667   0.77569   0.03749   0.00000  Uiso   1.00
N347   N     0.16665   0.83332   0.28573   0.00000  Uiso   1.00
N348   N     0.16668   0.83334   0.04760   0.00000  Uiso   1.00
O349   O     0.16666   0.77225   0.20487   0.00000  Uiso   1.00
O350   O     0.16667   0.89442   0.12846   0.00000  Uiso   1.00
O351   O     0.16666   0.77226   0.12843   0.00000  Uiso   1.00
O352   O     0.16667   0.89441   0.20490   0.00000  Uiso   1.00
O353   O     0.09058   0.83333   0.19595   0.00000  Uiso   1.00
O354   O     0.24275   0.83334   0.13739   0.00000  Uiso   1.00
O355   O     0.09058   0.83334   0.11950   0.00000  Uiso   1.00
O356   O     0.24275   0.83333   0.21383   0.00000  Uiso   1.00
Zn357  Zn    0.16667   0.83333   0.21771   0.00000  Uiso   1.00
Zn358  Zn    0.16667   0.83334   0.11563   0.00000  Uiso   1.00
S359   S     0.32654   0.88285   0.11271   0.00000  Uiso   1.00
O360   O     0.30028   0.86400   0.06921   0.00000  Uiso   1.00
O361   O     0.28924   0.91097   0.13296   0.00000  Uiso   1.00
O362   O     0.04436   0.91121   0.10011   0.00000  Uiso   1.00
H363   H     0.04661   0.93538   0.12119   0.00000  Uiso   1.00
S364   S     0.00656   0.78290   0.21955   0.00000  Uiso   1.00
O365   O     0.04433   0.75547   0.19906   0.00000  Uiso   1.00
O366   O     0.03215   0.80094   0.26378   0.00000  Uiso   1.00
O367   O     0.28870   0.75348   0.22997   0.00000  Uiso   1.00
H368   H     0.27901   0.76359   0.25951   0.00000  Uiso   1.00
S369   S     0.24124   0.70863   0.10140   0.00000  Uiso   1.00
O370   O     0.26905   0.74559   0.12433   0.00000  Uiso   1.00
O371   O     0.28099   0.67721   0.09122   0.00000  Uiso   1.00
O372   O     0.20778   0.72368   0.05200   0.00000  Uiso   1.00
H373   H     0.18979   0.69820   0.03914   0.00000  Uiso   1.00
S374   S     0.09541   0.95825   0.23497   0.00000  Uiso   1.00
O375   O     0.12812   0.94470   0.27775   0.00000  Uiso   1.00
O376   O     0.05713   0.99006   0.24729   0.00000  Uiso   1.00
O377   O     0.06236   0.91723   0.21068   0.00000  Uiso   1.00
H378   H     0.04203   0.90641   0.23443   0.00000  Uiso   1.00
C379   C     0.50269   0.75342   0.16678   0.00000  Uiso   1.00
C380   C     0.49731   0.91327   0.16660   0.00000  Uiso   1.00
C381   C     0.40072   0.83363   0.15538   0.00000  Uiso   1.00
C382   C     0.59929   0.83298   0.17792   0.00000  Uiso   1.00
C383   C     0.34747   0.84196   0.15132   0.00000  Uiso   1.00
C384   C     0.65250   0.82445   0.18178   0.00000  Uiso   1.00
C385   C     0.53114   0.68648   0.13684   0.00000  Uiso   1.00
C386   C     0.46982   0.98030   0.19739   0.00000  Uiso   1.00
C387   C     0.52570   0.97725   0.13634   0.00000  Uiso   1.00
C388   C     0.47476   0.68954   0.19742   0.00000  Uiso   1.00
C389   C     0.49644   0.95749   0.16673   0.00000  Uiso   1.00
C390   C     0.50386   0.70925   0.16693   0.00000  Uiso   1.00
C391   C     0.52141   0.86571   0.02642   0.00000  Uiso   1.00
C392   C     0.47852   0.80099   0.30691   0.00000  Uiso   1.00
C393   C     0.52194   0.86547   0.31189   0.00000  Uiso   1.00
C394   C     0.47799   0.80123   0.02144   0.00000  Uiso   1.00
H395   H     0.54567   0.95927   0.11283   0.00000  Uiso   1.00
H396   H     0.45494   0.70760   0.22096   0.00000  Uiso   1.00
H397   H     0.53825   0.89177   0.04644   0.00000  Uiso   1.00
H398   H     0.46165   0.77494   0.28688   0.00000  Uiso   1.00
H399   H     0.53992   0.89100   0.29584   0.00000  Uiso   1.00
H400   H     0.46001   0.77569   0.03749   0.00000  Uiso   1.00
N401   N     0.49999   0.83332   0.28573   0.00000  Uiso   1.00
N402   N     0.50001   0.83334   0.04760   0.00000  Uiso   1.00
O403   O     0.50000   0.77225   0.20487   0.00000  Uiso   1.00
O404   O     0.50000   0.89442   0.12846   0.00000  Uiso   1.00
O405   O     0.50000   0.77226   0.12843   0.00000  Uiso   1.00
O406   O     0.50000   0.89441   0.20490   0.00000  Uiso   1.00
O407   O     0.42392   0.83333   0.19595   0.00000  Uiso   1.00
O408   O     0.57608   0.83334   0.13739   0.00000  Uiso   1.00
O409   O     0.42392   0.83334   0.11950   0.00000  Uiso   1.00
O410   O     0.57608   0.83333   0.21383   0.00000  Uiso   1.00
Zn411  Zn    0.50000   0.83333   0.21771   0.00000  Uiso   1.00
Zn412  Zn    0.50000   0.83334   0.11563   0.00000  Uiso   1.00
S413   S     0.65987   0.88285   0.11271   0.00000  Uiso   1.00
O414   O     0.63361   0.86400   0.06921   0.00000  Uiso   1.00
O415   O     0.62257   0.91097   0.13296   0.00000  Uiso   1.00
O416   O     0.37769   0.91121   0.10011   0.00000  Uiso   1.00
H417   H     0.37994   0.93538   0.12119   0.00000  Uiso   1.00
S418   S     0.33990   0.78290   0.21955   0.00000  Uiso   1.00
O419   O     0.37767   0.75547   0.19906   0.00000  Uiso   1.00
O420   O     0.36548   0.80094   0.26378   0.00000  Uiso   1.00
O421   O     0.62203   0.75348   0.22997   0.00000  Uiso   1.00
H422   H     0.61234   0.76359   0.25951   0.00000  Uiso   1.00
S423   S     0.57457   0.70863   0.10140   0.00000  Uiso   1.00
O424   O     0.60238   0.74559   0.12433   0.00000  Uiso   1.00
O425   O     0.61433   0.67721   0.09122   0.00000  Uiso   1.00
O426   O     0.54111   0.72368   0.05200   0.00000  Uiso   1.00
H427   H     0.52312   0.69820   0.03914   0.00000  Uiso   1.00
S428   S     0.42874   0.95825   0.23497   0.00000  Uiso   1.00
O429   O     0.46146   0.94470   0.27775   0.00000  Uiso   1.00
O430   O     0.39046   0.99006   0.24729   0.00000  Uiso   1.00
O431   O     0.39569   0.91723   0.21068   0.00000  Uiso   1.00
H432   H     0.37536   0.90641   0.23443   0.00000  Uiso   1.00
C433   C     0.83603   0.75342   0.16678   0.00000  Uiso   1.00
C434   C     0.83064   0.91327   0.16660   0.00000  Uiso   1.00
C435   C     0.73405   0.83363   0.15538   0.00000  Uiso   1.00
C436   C     0.93262   0.83298   0.17792   0.00000  Uiso   1.00
C437   C     0.68081   0.84196   0.15132   0.00000  Uiso   1.00
C438   C     0.98583   0.82445   0.18178   0.00000  Uiso   1.00
C439   C     0.86448   0.68648   0.13684   0.00000  Uiso   1.00
C440   C     0.80316   0.98030   0.19739   0.00000  Uiso   1.00
C441   C     0.85904   0.97725   0.13634   0.00000  Uiso   1.00
C442   C     0.80810   0.68954   0.19742   0.00000  Uiso   1.00
C443   C     0.82977   0.95749   0.16673   0.00000  Uiso   1.00
C444   C     0.83719   0.70925   0.16693   0.00000  Uiso   1.00
C445   C     0.85474   0.86571   0.02642   0.00000  Uiso   1.00
C446   C     0.81185   0.80099   0.30691   0.00000  Uiso   1.00
C447   C     0.85527   0.86547   0.31189   0.00000  Uiso   1.00
C448   C     0.81132   0.80123   0.02144   0.00000  Uiso   1.00
H449   H     0.87900   0.95927   0.11283   0.00000  Uiso   1.00
H450   H     0.78828   0.70760   0.22096   0.00000  Uiso   1.00
H451   H     0.87159   0.89177   0.04644   0.00000  Uiso   1.00
H452   H     0.79498   0.77494   0.28688   0.00000  Uiso   1.00
H453   H     0.87326   0.89100   0.29584   0.00000  Uiso   1.00
H454   H     0.79334   0.77569   0.03749   0.00000  Uiso   1.00
N455   N     0.83332   0.83332   0.28573   0.00000  Uiso   1.00
N456   N     0.83335   0.83334   0.04760   0.00000  Uiso   1.00
O457   O     0.83333   0.77225   0.20487   0.00000  Uiso   1.00
O458   O     0.83334   0.89442   0.12846   0.00000  Uiso   1.00
O459   O     0.83333   0.77226   0.12843   0.00000  Uiso   1.00
O460   O     0.83334   0.89441   0.20490   0.00000  Uiso   1.00
O461   O     0.75725   0.83333   0.19595   0.00000  Uiso   1.00
O462   O     0.90942   0.83334   0.13739   0.00000  Uiso   1.00
O463   O     0.75725   0.83334   0.11950   0.00000  Uiso   1.00
O464   O     0.90942   0.83333   0.21383   0.00000  Uiso   1.00
Zn465  Zn    0.83333   0.83333   0.21771   0.00000  Uiso   1.00
Zn466  Zn    0.83333   0.83334   0.11563   0.00000  Uiso   1.00
S467   S     0.99320   0.88285   0.11271   0.00000  Uiso   1.00
O468   O     0.96694   0.86400   0.06921   0.00000  Uiso   1.00
O469   O     0.95591   0.91097   0.13296   0.00000  Uiso   1.00
O470   O     0.71102   0.91121   0.10011   0.00000  Uiso   1.00
H471   H     0.71327   0.93538   0.12119   0.00000  Uiso   1.00
S472   S     0.67323   0.78290   0.21955   0.00000  Uiso   1.00
O473   O     0.71100   0.75547   0.19906   0.00000  Uiso   1.00
O474   O     0.69882   0.80094   0.26378   0.00000  Uiso   1.00
O475   O     0.95536   0.75348   0.22997   0.00000  Uiso   1.00
H476   H     0.94568   0.76359   0.25951   0.00000  Uiso   1.00
S477   S     0.90790   0.70863   0.10140   0.00000  Uiso   1.00
O478   O     0.93571   0.74559   0.12433   0.00000  Uiso   1.00
O479   O     0.94766   0.67721   0.09122   0.00000  Uiso   1.00
O480   O     0.87444   0.72368   0.05200   0.00000  Uiso   1.00
H481   H     0.85645   0.69820   0.03914   0.00000  Uiso   1.00
S482   S     0.76207   0.95825   0.23497   0.00000  Uiso   1.00
O483   O     0.79479   0.94470   0.27775   0.00000  Uiso   1.00
O484   O     0.72380   0.99006   0.24729   0.00000  Uiso   1.00
O485   O     0.72902   0.91723   0.21068   0.00000  Uiso   1.00
H486   H     0.70870   0.90641   0.23443   0.00000  Uiso   1.00
C487   C     0.16936   0.08675   0.50011   0.00000  Uiso   1.00
C488   C     0.16398   0.24661   0.49994   0.00000  Uiso   1.00
C489   C     0.06738   0.16696   0.48871   0.00000  Uiso   1.00
C490   C     0.26596   0.16631   0.51125   0.00000  Uiso   1.00
C491   C     0.01414   0.17529   0.48466   0.00000  Uiso   1.00
C492   C     0.31917   0.15778   0.51511   0.00000  Uiso   1.00
C493   C     0.19781   0.01981   0.47017   0.00000  Uiso   1.00
C494   C     0.13649   0.31363   0.53073   0.00000  Uiso   1.00
C495   C     0.19237   0.31058   0.46967   0.00000  Uiso   1.00
C496   C     0.14143   0.02287   0.53076   0.00000  Uiso   1.00
C497   C     0.16310   0.29082   0.50007   0.00000  Uiso   1.00
C498   C     0.17053   0.04258   0.50026   0.00000  Uiso   1.00
C499   C     0.18807   0.19904   0.35975   0.00000  Uiso   1.00
C500   C     0.14518   0.13432   0.64024   0.00000  Uiso   1.00
C501   C     0.18861   0.19880   0.64522   0.00000  Uiso   1.00
C502   C     0.14466   0.13456   0.35477   0.00000  Uiso   1.00
H503   H     0.21233   0.29260   0.44617   0.00000  Uiso   1.00
H504   H     0.12161   0.04093   0.55429   0.00000  Uiso   1.00
H505   H     0.20492   0.22510   0.37977   0.00000  Uiso   1.00
H506   H     0.12832   0.10827   0.62022   0.00000  Uiso   1.00
H507   H     0.20659   0.22434   0.62918   0.00000  Uiso   1.00
H508   H     0.12667   0.10902   0.37082   0.00000  Uiso   1.00
N509   N     0.16665   0.16666   0.61907   0.00000  Uiso   1.00
N510   N     0.16668   0.16668   0.38093   0.00000  Uiso   1.00
O511   O     0.16666   0.10558   0.53821   0.00000  Uiso   1.00
O512   O     0.16667   0.22775   0.46179   0.00000  Uiso   1.00
O513   O     0.16666   0.10559   0.46176   0.00000  Uiso   1.00
O514   O     0.16667   0.22774   0.53824   0.00000  Uiso   1.00
O515   O     0.09058   0.16666   0.52928   0.00000  Uiso   1.00
O516   O     0.24275   0.16667   0.47072   0.00000  Uiso   1.00
O517   O     0.09058   0.16667   0.45284   0.00000  Uiso   1.00
O518   O     0.24275   0.16666   0.54716   0.00000  Uiso   1.00
Zn519  Zn    0.16667   0.16666   0.55104   0.00000  Uiso   1.00
Zn520  Zn    0.16667   0.16667   0.44896   0.00000  Uiso   1.00
S521   S     0.32654   0.21618   0.44604   0.00000  Uiso   1.00
O522   O     0.30028   0.19733   0.40254   0.00000  Uiso   1.00
O523   O     0.28924   0.24430   0.46629   0.00000  Uiso   1.00
O524   O     0.04436   0.24454   0.43344   0.00000  Uiso   1.00
H525   H     0.04661   0.26871   0.45453   0.00000  Uiso   1.00
S526   S     0.00656   0.11624   0.55289   0.00000  Uiso   1.00
O527   O     0.04433   0.08880   0.53239   0.00000  Uiso   1.00
O528   O     0.03215   0.13427   0.59711   0.00000  Uiso   1.00
O529   O     0.28870   0.08681   0.56330   0.00000  Uiso   1.00
H530   H     0.27901   0.09693   0.59284   0.00000  Uiso   1.00
S531   S     0.24124   0.04197   0.43473   0.00000  Uiso   1.00
O532   O     0.26905   0.07893   0.45766   0.00000  Uiso   1.00
O533   O     0.28099   0.01054   0.42455   0.00000  Uiso   1.00
O534   O     0.20778   0.05701   0.38533   0.00000  Uiso   1.00
H535   H     0.18979   0.03153   0.37247   0.00000  Uiso   1.00
S536   S     0.09541   0.29158   0.56831   0.00000  Uiso   1.00
O537   O     0.12812   0.27803   0.61108   0.00000  Uiso   1.00
O538   O     0.05713   0.32339   0.58062   0.00000  Uiso   1.00
O539   O     0.06236   0.25056   0.54401   0.00000  Uiso   1.00
H540   H     0.04203   0.23974   0.56777   0.00000  Uiso   1.00
C541   C     0.50269   0.08675   0.50011   0.00000  Uiso   1.00
C542   C     0.49731   0.24661   0.49994   0.00000  Uiso   1.00
C543   C     0.40072   0.16696   0.48871   0.00000  Uiso   1.00
C544   C     0.59929   0.16631   0.51125   0.00000  Uiso   1.00
C545   C     0.34747   0.17529   0.48466   0.00000  Uiso   1.00
C546   C     0.65250   0.15778   0.51511   0.00000  Uiso   1.00
C547   C     0.53114   0.01981   0.47017   0.00000  Uiso   1.00
C548   C     0.46982   0.31363   0.53073   0.00000  Uiso   1.00
C549   C     0.52570   0.31058   0.46967   0.00000  Uiso   1.00
C550   C     0.47476   0.02287   0.53076   0.00000  Uiso   1.00
C551   C     0.49644   0.29082   0.50007   0.00000  Uiso   1.00
C552   C     0.50386   0.04258   0.50026   0.00000  Uiso   1.00
C553   C     0.52141   0.19904   0.35975   0.00000  Uiso   1.00
C554   C     0.47852   0.13432   0.64024   0.00000  Uiso   1.00
C555   C     0.52194   0.19880   0.64522   0.00000  Uiso   1.00
C556   C     0.47799   0.13456   0.35477   0.00000  Uiso   1.00
H557   H     0.54567   0.29260   0.44617   0.00000  Uiso   1.00
H558   H     0.45494   0.04093   0.55429   0.00000  Uiso   1.00
H559   H     0.53825   0.22510   0.37977   0.00000  Uiso   1.00
H560   H     0.46165   0.10827   0.62022   0.00000  Uiso   1.00
H561   H     0.53992   0.22434   0.62918   0.00000  Uiso   1.00
H562   H     0.46001   0.10902   0.37082   0.00000  Uiso   1.00
N563   N     0.49999   0.16666   0.61907   0.00000  Uiso   1.00
N564   N     0.50001   0.16668   0.38093   0.00000  Uiso   1.00
O565   O     0.50000   0.10558   0.53821   0.00000  Uiso   1.00
O566   O     0.50000   0.22775   0.46179   0.00000  Uiso   1.00
O567   O     0.50000   0.10559   0.46176   0.00000  Uiso   1.00
O568   O     0.50000   0.22774   0.53824   0.00000  Uiso   1.00
O569   O     0.42392   0.16666   0.52928   0.00000  Uiso   1.00
O570   O     0.57608   0.16667   0.47072   0.00000  Uiso   1.00
O571   O     0.42392   0.16667   0.45284   0.00000  Uiso   1.00
O572   O     0.57608   0.16666   0.54716   0.00000  Uiso   1.00
Zn573  Zn    0.50000   0.16666   0.55104   0.00000  Uiso   1.00
Zn574  Zn    0.50000   0.16667   0.44896   0.00000  Uiso   1.00
S575   S     0.65987   0.21618   0.44604   0.00000  Uiso   1.00
O576   O     0.63361   0.19733   0.40254   0.00000  Uiso   1.00
O577   O     0.62257   0.24430   0.46629   0.00000  Uiso   1.00
O578   O     0.37769   0.24454   0.43344   0.00000  Uiso   1.00
H579   H     0.37994   0.26871   0.45453   0.00000  Uiso   1.00
S580   S     0.33990   0.11624   0.55289   0.00000  Uiso   1.00
O581   O     0.37767   0.08880   0.53239   0.00000  Uiso   1.00
O582   O     0.36548   0.13427   0.59711   0.00000  Uiso   1.00
O583   O     0.62203   0.08681   0.56330   0.00000  Uiso   1.00
H584   H     0.61234   0.09693   0.59284   0.00000  Uiso   1.00
S585   S     0.57457   0.04197   0.43473   0.00000  Uiso   1.00
O586   O     0.60238   0.07893   0.45766   0.00000  Uiso   1.00
O587   O     0.61433   0.01054   0.42455   0.00000  Uiso   1.00
O588   O     0.54111   0.05701   0.38533   0.00000  Uiso   1.00
H589   H     0.52312   0.03153   0.37247   0.00000  Uiso   1.00
S590   S     0.42874   0.29158   0.56831   0.00000  Uiso   1.00
O591   O     0.46146   0.27803   0.61108   0.00000  Uiso   1.00
O592   O     0.39046   0.32339   0.58062   0.00000  Uiso   1.00
O593   O     0.39569   0.25056   0.54401   0.00000  Uiso   1.00
H594   H     0.37536   0.23974   0.56777   0.00000  Uiso   1.00
C595   C     0.83603   0.08675   0.50011   0.00000  Uiso   1.00
C596   C     0.83064   0.24661   0.49994   0.00000  Uiso   1.00
C597   C     0.73405   0.16696   0.48871   0.00000  Uiso   1.00
C598   C     0.93262   0.16631   0.51125   0.00000  Uiso   1.00
C599   C     0.68081   0.17529   0.48466   0.00000  Uiso   1.00
C600   C     0.98583   0.15778   0.51511   0.00000  Uiso   1.00
C601   C     0.86448   0.01981   0.47017   0.00000  Uiso   1.00
C602   C     0.80316   0.31363   0.53073   0.00000  Uiso   1.00
C603   C     0.85904   0.31058   0.46967   0.00000  Uiso   1.00
C604   C     0.80810   0.02287   0.53076   0.00000  Uiso   1.00
C605   C     0.82977   0.29082   0.50007   0.00000  Uiso   1.00
C606   C     0.83719   0.04258   0.50026   0.00000  Uiso   1.00
C607   C     0.85474   0.19904   0.35975   0.00000  Uiso   1.00
C608   C     0.81185   0.13432   0.64024   0.00000  Uiso   1.00
C609   C     0.85527   0.19880   0.64522   0.00000  Uiso   1.00
C610   C     0.81132   0.13456   0.35477   0.00000  Uiso   1.00
H611   H     0.87900   0.29260   0.44617   0.00000  Uiso   1.00
H612   H     0.78828   0.04093   0.55429   0.00000  Uiso   1.00
H613   H     0.87159   0.22510   0.37977   0.00000  Uiso   1.00
H614   H     0.79498   0.10827   0.62022   0.00000  Uiso   1.00
H615   H     0.87326   0.22434   0.62918   0.00000  Uiso   1.00
H616   H     0.79334   0.10902   0.37082   0.00000  Uiso   1.00
N617   N     0.83332   0.16666   0.61907   0.00000  Uiso   1.00
N618   N     0.83335   0.16668   0.38093   0.00000  Uiso   1.00
O619   O     0.83333   0.10558   0.53821   0.00000  Uiso   1.00
O620   O     0.83334   0.22775   0.46179   0.00000  Uiso   1.00
O621   O     0.83333   0.10559   0.46176   0.00000  Uiso   1.00
O622   O     0.83334   0.22774   0.53824   0.00000  Uiso   1.00
O623   O     0.75725   0.16666   0.52928   0.00000  Uiso   1.00
O624   O     0.90942   0.16667   0.47072   0.00000  Uiso   1.00
O625   O     0.75725   0.16667   0.45284   0.00000  Uiso   1.00
O626   O     0.90942   0.16666   0.54716   0.00000  Uiso   1.00
Zn627  Zn    0.83333   0.16666   0.55104   0.00000  Uiso   1.00
Zn628  Zn    0.83333   0.16667   0.44896   0.00000  Uiso   1.00
S629   S     0.99320   0.21618   0.44604   0.00000  Uiso   1.00
O630   O     0.96694   0.19733   0.40254   0.00000  Uiso   1.00
O631   O     0.95591   0.24430   0.46629   0.00000  Uiso   1.00
O632   O     0.71102   0.24454   0.43344   0.00000  Uiso   1.00
H633   H     0.71327   0.26871   0.45453   0.00000  Uiso   1.00
S634   S     0.67323   0.11624   0.55289   0.00000  Uiso   1.00
O635   O     0.71100   0.08880   0.53239   0.00000  Uiso   1.00
O636   O     0.69882   0.13427   0.59711   0.00000  Uiso   1.00
O637   O     0.95536   0.08681   0.56330   0.00000  Uiso   1.00
H638   H     0.94568   0.09693   0.59284   0.00000  Uiso   1.00
S639   S     0.90790   0.04197   0.43473   0.00000  Uiso   1.00
O640   O     0.93571   0.07893   0.45766   0.00000  Uiso   1.00
O641   O     0.94766   0.01054   0.42455   0.00000  Uiso   1.00
O642   O     0.87444   0.05701   0.38533   0.00000  Uiso   1.00
H643   H     0.85645   0.03153   0.37247   0.00000  Uiso   1.00
S644   S     0.76207   0.29158   0.56831   0.00000  Uiso   1.00
O645   O     0.79479   0.27803   0.61108   0.00000  Uiso   1.00
O646   O     0.72380   0.32339   0.58062   0.00000  Uiso   1.00
O647   O     0.72902   0.25056   0.54401   0.00000  Uiso   1.00
H648   H     0.70870   0.23974   0.56777   0.00000  Uiso   1.00
C649   C     0.16936   0.42009   0.50011   0.00000  Uiso   1.00
C650   C     0.16398   0.57994   0.49994   0.00000  Uiso   1.00
C651   C     0.06738   0.50029   0.48871   0.00000  Uiso   1.00
C652   C     0.26596   0.49965   0.51125   0.00000  Uiso   1.00
C653   C     0.01414   0.50862   0.48466   0.00000  Uiso   1.00
C654   C     0.31917   0.49112   0.51511   0.00000  Uiso   1.00
C655   C     0.19781   0.35314   0.47017   0.00000  Uiso   1.00
C656   C     0.13649   0.64696   0.53073   0.00000  Uiso   1.00
C657   C     0.19237   0.64392   0.46967   0.00000  Uiso   1.00
C658   C     0.14143   0.35620   0.53076   0.00000  Uiso   1.00
C659   C     0.16310   0.62416   0.50007   0.00000  Uiso   1.00
C660   C     0.17053   0.37592   0.50026   0.00000  Uiso   1.00
C661   C     0.18807   0.53238   0.35975   0.00000  Uiso   1.00
C662   C     0.14518   0.46765   0.64024   0.00000  Uiso   1.00
C663   C     0.18861   0.53213   0.64522   0.00000  Uiso   1.00
C664   C     0.14466   0.46790   0.35477   0.00000  Uiso   1.00
H665   H     0.21233   0.62593   0.44617   0.00000  Uiso   1.00
H666   H     0.12161   0.37426   0.55429   0.00000  Uiso   1.00
H667   H     0.20492   0.55844   0.37977   0.00000  Uiso   1.00
H668   H     0.12832   0.44160   0.62022   0.00000  Uiso   1.00
H669   H     0.20659   0.55767   0.62918   0.00000  Uiso   1.00
H670   H     0.12667   0.44236   0.37082   0.00000  Uiso   1.00
N671   N     0.16665   0.49999   0.61907   0.00000  Uiso   1.00
N672   N     0.16668   0.50001   0.38093   0.00000  Uiso   1.00
O673   O     0.16666   0.43892   0.53821   0.00000  Uiso   1.00
O674   O     0.16667   0.56108   0.46179   0.00000  Uiso   1.00
O675   O     0.16666   0.43893   0.46176   0.00000  Uiso   1.00
O676   O     0.16667   0.56107   0.53824   0.00000  Uiso   1.00
O677   O     0.09058   0.50000   0.52928   0.00000  Uiso   1.00
O678   O     0.24275   0.50000   0.47072   0.00000  Uiso   1.00
O679   O     0.09058   0.50000   0.45284   0.00000  Uiso   1.00
O680   O     0.24275   0.50000   0.54716   0.00000  Uiso   1.00
Zn681  Zn    0.16667   0.49999   0.55104   0.00000  Uiso   1.00
Zn682  Zn    0.16667   0.50001   0.44896   0.00000  Uiso   1.00
S683   S     0.32654   0.54952   0.44604   0.00000  Uiso   1.00
O684   O     0.30028   0.53066   0.40254   0.00000  Uiso   1.00
O685   O     0.28924   0.57764   0.46629   0.00000  Uiso   1.00
O686   O     0.04436   0.57787   0.43344   0.00000  Uiso   1.00
H687   H     0.04661   0.60205   0.45453   0.00000  Uiso   1.00
S688   S     0.00656   0.44957   0.55289   0.00000  Uiso   1.00
O689   O     0.04433   0.42213   0.53239   0.00000  Uiso   1.00
O690   O     0.03215   0.46761   0.59711   0.00000  Uiso   1.00
O691   O     0.28870   0.42015   0.56330   0.00000  Uiso   1.00
H692   H     0.27901   0.43026   0.59284   0.00000  Uiso   1.00
S693   S     0.24124   0.37530   0.43473   0.00000  Uiso   1.00
O694   O     0.26905   0.41226   0.45766   0.00000  Uiso   1.00
O695   O     0.28099   0.34387   0.42455   0.00000  Uiso   1.00
O696   O     0.20778   0.39035   0.38533   0.00000  Uiso   1.00
H697   H     0.18979   0.36487   0.37247   0.00000  Uiso   1.00
S698   S     0.09541   0.62492   0.56831   0.00000  Uiso   1.00
O699   O     0.12812   0.61136   0.61108   0.00000  Uiso   1.00
O700   O     0.05713   0.65672   0.58062   0.00000  Uiso   1.00
O701   O     0.06236   0.58390   0.54401   0.00000  Uiso   1.00
H702   H     0.04203   0.57308   0.56777   0.00000  Uiso   1.00
C703   C     0.50269   0.42009   0.50011   0.00000  Uiso   1.00
C704   C     0.49731   0.57994   0.49994   0.00000  Uiso   1.00
C705   C     0.40072   0.50029   0.48871   0.00000  Uiso   1.00
C706   C     0.59929   0.49965   0.51125   0.00000  Uiso   1.00
C707   C     0.34747   0.50862   0.48466   0.00000  Uiso   1.00
C708   C     0.65250   0.49112   0.51511   0.00000  Uiso   1.00
C709   C     0.53114   0.35314   0.47017   0.00000  Uiso   1.00
C710   C     0.46982   0.64696   0.53073   0.00000  Uiso   1.00
C711   C     0.52570   0.64392   0.46967   0.00000  Uiso   1.00
C712   C     0.47476   0.35620   0.53076   0.00000  Uiso   1.00
C713   C     0.49644   0.62416   0.50007   0.00000  Uiso   1.00
C714   C     0.50386   0.37592   0.50026   0.00000  Uiso   1.00
C715   C     0.52141   0.53238   0.35975   0.00000  Uiso   1.00
C716   C     0.47852   0.46765   0.64024   0.00000  Uiso   1.00
C717   C     0.52194   0.53213   0.64522   0.00000  Uiso   1.00
C718   C     0.47799   0.46790   0.35477   0.00000  Uiso   1.00
H719   H     0.54567   0.62593   0.44617   0.00000  Uiso   1.00
H720   H     0.45494   0.37426   0.55429   0.00000  Uiso   1.00
H721   H     0.53825   0.55844   0.37977   0.00000  Uiso   1.00
H722   H     0.46165   0.44160   0.62022   0.00000  Uiso   1.00
H723   H     0.53992   0.55767   0.62918   0.00000  Uiso   1.00
H724   H     0.46001   0.44236   0.37082   0.00000  Uiso   1.00
N725   N     0.49999   0.49999   0.61907   0.00000  Uiso   1.00
N726   N     0.50001   0.50001   0.38093   0.00000  Uiso   1.00
O727   O     0.50000   0.43892   0.53821   0.00000  Uiso   1.00
O728   O     0.50000   0.56108   0.46179   0.00000  Uiso   1.00
O729   O     0.50000   0.43893   0.46176   0.00000  Uiso   1.00
O730   O     0.50000   0.56107   0.53824   0.00000  Uiso   1.00
O731   O     0.42392   0.50000   0.52928   0.00000  Uiso   1.00
O732   O     0.57608   0.50000   0.47072   0.00000  Uiso   1.00
O733   O     0.42392   0.50000   0.45284   0.00000  Uiso   1.00
O734   O     0.57608   0.50000   0.54716   0.00000  Uiso   1.00
Zn735  Zn    0.50000   0.49999   0.55104   0.00000  Uiso   1.00
Zn736  Zn    0.50000   0.50001   0.44896   0.00000  Uiso   1.00
S737   S     0.65987   0.54952   0.44604   0.00000  Uiso   1.00
O738   O     0.63361   0.53066   0.40254   0.00000  Uiso   1.00
O739   O     0.62257   0.57764   0.46629   0.00000  Uiso   1.00
O740   O     0.37769   0.57787   0.43344   0.00000  Uiso   1.00
H741   H     0.37994   0.60205   0.45453   0.00000  Uiso   1.00
S742   S     0.33990   0.44957   0.55289   0.00000  Uiso   1.00
O743   O     0.37767   0.42213   0.53239   0.00000  Uiso   1.00
O744   O     0.36548   0.46761   0.59711   0.00000  Uiso   1.00
O745   O     0.62203   0.42015   0.56330   0.00000  Uiso   1.00
H746   H     0.61234   0.43026   0.59284   0.00000  Uiso   1.00
S747   S     0.57457   0.37530   0.43473   0.00000  Uiso   1.00
O748   O     0.60238   0.41226   0.45766   0.00000  Uiso   1.00
O749   O     0.61433   0.34387   0.42455   0.00000  Uiso   1.00
O750   O     0.54111   0.39035   0.38533   0.00000  Uiso   1.00
H751   H     0.52312   0.36487   0.37247   0.00000  Uiso   1.00
S752   S     0.42874   0.62492   0.56831   0.00000  Uiso   1.00
O753   O     0.46146   0.61136   0.61108   0.00000  Uiso   1.00
O754   O     0.39046   0.65672   0.58062   0.00000  Uiso   1.00
O755   O     0.39569   0.58390   0.54401   0.00000  Uiso   1.00
H756   H     0.37536   0.57308   0.56777   0.00000  Uiso   1.00
C757   C     0.83603   0.42009   0.50011   0.00000  Uiso   1.00
C758   C     0.83064   0.57994   0.49994   0.00000  Uiso   1.00
C759   C     0.73405   0.50029   0.48871   0.00000  Uiso   1.00
C760   C     0.93262   0.49965   0.51125   0.00000  Uiso   1.00
C761   C     0.68081   0.50862   0.48466   0.00000  Uiso   1.00
C762   C     0.98583   0.49112   0.51511   0.00000  Uiso   1.00
C763   C     0.86448   0.35314   0.47017   0.00000  Uiso   1.00
C764   C     0.80316   0.64696   0.53073   0.00000  Uiso   1.00
C765   C     0.85904   0.64392   0.46967   0.00000  Uiso   1.00
C766   C     0.80810   0.35620   0.53076   0.00000  Uiso   1.00
C767   C     0.82977   0.62416   0.50007   0.00000  Uiso   1.00
C768   C     0.83719   0.37592   0.50026   0.00000  Uiso   1.00
C769   C     0.85474   0.53238   0.35975   0.00000  Uiso   1.00
C770   C     0.81185   0.46765   0.64024   0.00000  Uiso   1.00
C771   C     0.85527   0.53213   0.64522   0.00000  Uiso   1.00
C772   C     0.81132   0.46790   0.35477   0.00000  Uiso   1.00
H773   H     0.87900   0.62593   0.44617   0.00000  Uiso   1.00
H774   H     0.78828   0.37426   0.55429   0.00000  Uiso   1.00
H775   H     0.87159   0.55844   0.37977   0.00000  Uiso   1.00
H776   H     0.79498   0.44160   0.62022   0.00000  Uiso   1.00
H777   H     0.87326   0.55767   0.62918   0.00000  Uiso   1.00
H778   H     0.79334   0.44236   0.37082   0.00000  Uiso   1.00
N779   N     0.83332   0.49999   0.61907   0.00000  Uiso   1.00
N780   N     0.83335   0.50001   0.38093   0.00000  Uiso   1.00
O781   O     0.83333   0.43892   0.53821   0.00000  Uiso   1.00
O782   O     0.83334   0.56108   0.46179   0.00000  Uiso   1.00
O783   O     0.83333   0.43893   0.46176   0.00000  Uiso   1.00
O784   O     0.83334   0.56107   0.53824   0.00000  Uiso   1.00
O785   O     0.75725   0.50000   0.52928   0.00000  Uiso   1.00
O786   O     0.90942   0.50000   0.47072   0.00000  Uiso   1.00
O787   O     0.75725   0.50000   0.45284   0.00000  Uiso   1.00
O788   O     0.90942   0.50000   0.54716   0.00000  Uiso   1.00
Zn789  Zn    0.83333   0.49999   0.55104   0.00000  Uiso   1.00
Zn790  Zn    0.83333   0.50001   0.44896   0.00000  Uiso   1.00
S791   S     0.99320   0.54952   0.44604   0.00000  Uiso   1.00
O792   O     0.96694   0.53066   0.40254   0.00000  Uiso   1.00
O793   O     0.95591   0.57764   0.46629   0.00000  Uiso   1.00
O794   O     0.71102   0.57787   0.43344   0.00000  Uiso   1.00
H795   H     0.71327   0.60205   0.45453   0.00000  Uiso   1.00
S796   S     0.67323   0.44957   0.55289   0.00000  Uiso   1.00
O797   O     0.71100   0.42213   0.53239   0.00000  Uiso   1.00
O798   O     0.69882   0.46761   0.59711   0.00000  Uiso   1.00
O799   O     0.95536   0.42015   0.56330   0.00000  Uiso   1.00
H800   H     0.94568   0.43026   0.59284   0.00000  Uiso   1.00
S801   S     0.90790   0.37530   0.43473   0.00000  Uiso   1.00
O802   O     0.93571   0.41226   0.45766   0.00000  Uiso   1.00
O803   O     0.94766   0.34387   0.42455   0.00000  Uiso   1.00
O804   O     0.87444   0.39035   0.38533   0.00000  Uiso   1.00
H805   H     0.85645   0.36487   0.37247   0.00000  Uiso   1.00
S806   S     0.76207   0.62492   0.56831   0.00000  Uiso   1.00
O807   O     0.79479   0.61136   0.61108   0.00000  Uiso   1.00
O808   O     0.72380   0.65672   0.58062   0.00000  Uiso   1.00
O809   O     0.72902   0.58390   0.54401   0.00000  Uiso   1.00
H810   H     0.70870   0.57308   0.56777   0.00000  Uiso   1.00
C811   C     0.16936   0.75342   0.50011   0.00000  Uiso   1.00
C812   C     0.16398   0.91327   0.49994   0.00000  Uiso   1.00
C813   C     0.06738   0.83363   0.48871   0.00000  Uiso   1.00
C814   C     0.26596   0.83298   0.51125   0.00000  Uiso   1.00
C815   C     0.01414   0.84196   0.48466   0.00000  Uiso   1.00
C816   C     0.31917   0.82445   0.51511   0.00000  Uiso   1.00
C817   C     0.19781   0.68648   0.47017   0.00000  Uiso   1.00
C818   C     0.13649   0.98030   0.53073   0.00000  Uiso   1.00
C819   C     0.19237   0.97725   0.46967   0.00000  Uiso   1.00
C820   C     0.14143   0.68954   0.53076   0.00000  Uiso   1.00
C821   C     0.16310   0.95749   0.50007   0.00000  Uiso   1.00
C822   C     0.17053   0.70925   0.50026   0.00000  Uiso   1.00
C823   C     0.18807   0.86571   0.35975   0.00000  Uiso   1.00
C824   C     0.14518   0.80099   0.64024   0.00000  Uiso   1.00
C825   C     0.18861   0.86547   0.64522   0.00000  Uiso   1.00
C826   C     0.14466   0.80123   0.35477   0.00000  Uiso   1.00
H827   H     0.21233   0.95927   0.44617   0.00000  Uiso   1.00
H828   H     0.12161   0.70760   0.55429   0.00000  Uiso   1.00
H829   H     0.20492   0.89177   0.37977   0.00000  Uiso   1.00
H830   H     0.12832   0.77494   0.62022   0.00000  Uiso   1.00
H831   H     0.20659   0.89100   0.62918   0.00000  Uiso   1.00
H832   H     0.12667   0.77569   0.37082   0.00000  Uiso   1.00
N833   N     0.16665   0.83332   0.61907   0.00000  Uiso   1.00
N834   N     0.16668   0.83334   0.38093   0.00000  Uiso   1.00
O835   O     0.16666   0.77225   0.53821   0.00000  Uiso   1.00
O836   O     0.16667   0.89442   0.46179   0.00000  Uiso   1.00
O837   O     0.16666   0.77226   0.46176   0.00000  Uiso   1.00
O838   O     0.16667   0.89441   0.53824   0.00000  Uiso   1.00
O839   O     0.09058   0.83333   0.52928   0.00000  Uiso   1.00
O840   O     0.24275   0.83334   0.47072   0.00000  Uiso   1.00
O841   O     0.09058   0.83334   0.45284   0.00000  Uiso   1.00
O842   O     0.24275   0.83333   0.54716   0.00000  Uiso   1.00
Zn843  Zn    0.16667   0.83333   0.55104   0.00000  Uiso   1.00
Zn844  Zn    0.16667   0.83334   0.44896   0.00000  Uiso   1.00
S845   S     0.32654   0.88285   0.44604   0.00000  Uiso   1.00
O846   O     0.30028   0.86400   0.40254   0.00000  Uiso   1.00
O847   O     0.28924   0.91097   0.46629   0.00000  Uiso   1.00
O848   O     0.04436   0.91121   0.43344   0.00000  Uiso   1.00
H849   H     0.04661   0.93538   0.45453   0.00000  Uiso   1.00
S850   S     0.00656   0.78290   0.55289   0.00000  Uiso   1.00
O851   O     0.04433   0.75547   0.53239   0.00000  Uiso   1.00
O852   O     0.03215   0.80094   0.59711   0.00000  Uiso   1.00
O853   O     0.28870   0.75348   0.56330   0.00000  Uiso   1.00
H854   H     0.27901   0.76359   0.59284   0.00000  Uiso   1.00
S855   S     0.24124   0.70863   0.43473   0.00000  Uiso   1.00
O856   O     0.26905   0.74559   0.45766   0.00000  Uiso   1.00
O857   O     0.28099   0.67721   0.42455   0.00000  Uiso   1.00
O858   O     0.20778   0.72368   0.38533   0.00000  Uiso   1.00
H859   H     0.18979   0.69820   0.37247   0.00000  Uiso   1.00
S860   S     0.09541   0.95825   0.56831   0.00000  Uiso   1.00
O861   O     0.12812   0.94470   0.61108   0.00000  Uiso   1.00
O862   O     0.05713   0.99006   0.58062   0.00000  Uiso   1.00
O863   O     0.06236   0.91723   0.54401   0.00000  Uiso   1.00
H864   H     0.04203   0.90641   0.56777   0.00000  Uiso   1.00
C865   C     0.50269   0.75342   0.50011   0.00000  Uiso   1.00
C866   C     0.49731   0.91327   0.49994   0.00000  Uiso   1.00
C867   C     0.40072   0.83363   0.48871   0.00000  Uiso   1.00
C868   C     0.59929   0.83298   0.51125   0.00000  Uiso   1.00
C869   C     0.34747   0.84196   0.48466   0.00000  Uiso   1.00
C870   C     0.65250   0.82445   0.51511   0.00000  Uiso   1.00
C871   C     0.53114   0.68648   0.47017   0.00000  Uiso   1.00
C872   C     0.46982   0.98030   0.53073   0.00000  Uiso   1.00
C873   C     0.52570   0.97725   0.46967   0.00000  Uiso   1.00
C874   C     0.47476   0.68954   0.53076   0.00000  Uiso   1.00
C875   C     0.49644   0.95749   0.50007   0.00000  Uiso   1.00
C876   C     0.50386   0.70925   0.50026   0.00000  Uiso   1.00
C877   C     0.52141   0.86571   0.35975   0.00000  Uiso   1.00
C878   C     0.47852   0.80099   0.64024   0.00000  Uiso   1.00
C879   C     0.52194   0.86547   0.64522   0.00000  Uiso   1.00
C880   C     0.47799   0.80123   0.35477   0.00000  Uiso   1.00
H881   H     0.54567   0.95927   0.44617   0.00000  Uiso   1.00
H882   H     0.45494   0.70760   0.55429   0.00000  Uiso   1.00
H883   H     0.53825   0.89177   0.37977   0.00000  Uiso   1.00
H884   H     0.46165   0.77494   0.62022   0.00000  Uiso   1.00
H885   H     0.53992   0.89100   0.62918   0.00000  Uiso   1.00
H886   H     0.46001   0.77569   0.37082   0.00000  Uiso   1.00
N887   N     0.49999   0.83332   0.61907   0.00000  Uiso   1.00
N888   N     0.50001   0.83334   0.38093   0.00000  Uiso   1.00
O889   O     0.50000   0.77225   0.53821   0.00000  Uiso   1.00
O890   O     0.50000   0.89442   0.46179   0.00000  Uiso   1.00
O891   O     0.50000   0.77226   0.46176   0.00000  Uiso   1.00
O892   O     0.50000   0.89441   0.53824   0.00000  Uiso   1.00
O893   O     0.42392   0.83333   0.52928   0.00000  Uiso   1.00
O894   O     0.57608   0.83334   0.47072   0.00000  Uiso   1.00
O895   O     0.42392   0.83334   0.45284   0.00000  Uiso   1.00
O896   O     0.57608   0.83333   0.54716   0.00000  Uiso   1.00
Zn897  Zn    0.50000   0.83333   0.55104   0.00000  Uiso   1.00
Zn898  Zn    0.50000   0.83334   0.44896   0.00000  Uiso   1.00
S899   S     0.65987   0.88285   0.44604   0.00000  Uiso   1.00
O900   O     0.63361   0.86400   0.40254   0.00000  Uiso   1.00
O901   O     0.62257   0.91097   0.46629   0.00000  Uiso   1.00
O902   O     0.37769   0.91121   0.43344   0.00000  Uiso   1.00
H903   H     0.37994   0.93538   0.45453   0.00000  Uiso   1.00
S904   S     0.33990   0.78290   0.55289   0.00000  Uiso   1.00
O905   O     0.37767   0.75547   0.53239   0.00000  Uiso   1.00
O906   O     0.36548   0.80094   0.59711   0.00000  Uiso   1.00
O907   O     0.62203   0.75348   0.56330   0.00000  Uiso   1.00
H908   H     0.61234   0.76359   0.59284   0.00000  Uiso   1.00
S909   S     0.57457   0.70863   0.43473   0.00000  Uiso   1.00
O910   O     0.60238   0.74559   0.45766   0.00000  Uiso   1.00
O911   O     0.61433   0.67721   0.42455   0.00000  Uiso   1.00
O912   O     0.54111   0.72368   0.38533   0.00000  Uiso   1.00
H913   H     0.52312   0.69820   0.37247   0.00000  Uiso   1.00
S914   S     0.42874   0.95825   0.56831   0.00000  Uiso   1.00
O915   O     0.46146   0.94470   0.61108   0.00000  Uiso   1.00
O916   O     0.39046   0.99006   0.58062   0.00000  Uiso   1.00
O917   O     0.39569   0.91723   0.54401   0.00000  Uiso   1.00
H918   H     0.37536   0.90641   0.56777   0.00000  Uiso   1.00
C919   C     0.83603   0.75342   0.50011   0.00000  Uiso   1.00
C920   C     0.83064   0.91327   0.49994   0.00000  Uiso   1.00
C921   C     0.73405   0.83363   0.48871   0.00000  Uiso   1.00
C922   C     0.93262   0.83298   0.51125   0.00000  Uiso   1.00
C923   C     0.68081   0.84196   0.48466   0.00000  Uiso   1.00
C924   C     0.98583   0.82445   0.51511   0.00000  Uiso   1.00
C925   C     0.86448   0.68648   0.47017   0.00000  Uiso   1.00
C926   C     0.80316   0.98030   0.53073   0.00000  Uiso   1.00
C927   C     0.85904   0.97725   0.46967   0.00000  Uiso   1.00
C928   C     0.80810   0.68954   0.53076   0.00000  Uiso   1.00
C929   C     0.82977   0.95749   0.50007   0.00000  Uiso   1.00
C930   C     0.83719   0.70925   0.50026   0.00000  Uiso   1.00
C931   C     0.85474   0.86571   0.35975   0.00000  Uiso   1.00
C932   C     0.81185   0.80099   0.64024   0.00000  Uiso   1.00
C933   C     0.85527   0.86547   0.64522   0.00000  Uiso   1.00
C934   C     0.81132   0.80123   0.35477   0.00000  Uiso   1.00
H935   H     0.87900   0.95927   0.44617   0.00000  Uiso   1.00
H936   H     0.78828   0.70760   0.55429   0.00000  Uiso   1.00
H937   H     0.87159   0.89177   0.37977   0.00000  Uiso   1.00
H938   H     0.79498   0.77494   0.62022   0.00000  Uiso   1.00
H939   H     0.87326   0.89100   0.62918   0.00000  Uiso   1.00
H940   H     0.79334   0.77569   0.37082   0.00000  Uiso   1.00
N941   N     0.83332   0.83332   0.61907   0.00000  Uiso   1.00
N942   N     0.83335   0.83334   0.38093   0.00000  Uiso   1.00
O943   O     0.83333   0.77225   0.53821   0.00000  Uiso   1.00
O944   O     0.83334   0.89442   0.46179   0.00000  Uiso   1.00
O945   O     0.83333   0.77226   0.46176   0.00000  Uiso   1.00
O946   O     0.83334   0.89441   0.53824   0.00000  Uiso   1.00
O947   O     0.75725   0.83333   0.52928   0.00000  Uiso   1.00
O948   O     0.90942   0.83334   0.47072   0.00000  Uiso   1.00
O949   O     0.75725   0.83334   0.45284   0.00000  Uiso   1.00
O950   O     0.90942   0.83333   0.54716   0.00000  Uiso   1.00
Zn951  Zn    0.83333   0.83333   0.55104   0.00000  Uiso   1.00
Zn952  Zn    0.83333   0.83334   0.44896   0.00000  Uiso   1.00
S953   S     0.99320   0.88285   0.44604   0.00000  Uiso   1.00
O954   O     0.96694   0.86400   0.40254   0.00000  Uiso   1.00
O955   O     0.95591   0.91097   0.46629   0.00000  Uiso   1.00
O956   O     0.71102   0.91121   0.43344   0.00000  Uiso   1.00
H957   H     0.71327   0.93538   0.45453   0.00000  Uiso   1.00
S958   S     0.67323   0.78290   0.55289   0.00000  Uiso   1.00
O959   O     0.71100   0.75547   0.53239   0.00000  Uiso   1.00
O960   O     0.69882   0.80094   0.59711   0.00000  Uiso   1.00
O961   O     0.95536   0.75348   0.56330   0.00000  Uiso   1.00
H962   H     0.94568   0.76359   0.59284   0.00000  Uiso   1.00
S963   S     0.90790   0.70863   0.43473   0.00000  Uiso   1.00
O964   O     0.93571   0.74559   0.45766   0.00000  Uiso   1.00
O965   O     0.94766   0.67721   0.42455   0.00000  Uiso   1.00
O966   O     0.87444   0.72368   0.38533   0.00000  Uiso   1.00
H967   H     0.85645   0.69820   0.37247   0.00000  Uiso   1.00
S968   S     0.76207   0.95825   0.56831   0.00000  Uiso   1.00
O969   O     0.79479   0.94470   0.61108   0.00000  Uiso   1.00
O970   O     0.72380   0.99006   0.58062   0.00000  Uiso   1.00
O971   O     0.72902   0.91723   0.54401   0.00000  Uiso   1.00
H972   H     0.70870   0.90641   0.56777   0.00000  Uiso   1.00
C973   C     0.16936   0.08675   0.83345   0.00000  Uiso   1.00
C974   C     0.16398   0.24661   0.83327   0.00000  Uiso   1.00
C975   C     0.06738   0.16696   0.82205   0.00000  Uiso   1.00
C976   C     0.26596   0.16631   0.84458   0.00000  Uiso   1.00
C977   C     0.01414   0.17529   0.81799   0.00000  Uiso   1.00
C978   C     0.31917   0.15778   0.84845   0.00000  Uiso   1.00
C979   C     0.19781   0.01981   0.80351   0.00000  Uiso   1.00
C980   C     0.13649   0.31363   0.86406   0.00000  Uiso   1.00
C981   C     0.19237   0.31058   0.80301   0.00000  Uiso   1.00
C982   C     0.14143   0.02287   0.86409   0.00000  Uiso   1.00
C983   C     0.16310   0.29082   0.83340   0.00000  Uiso   1.00
C984   C     0.17053   0.04258   0.83359   0.00000  Uiso   1.00
C985   C     0.18807   0.19904   0.69308   0.00000  Uiso   1.00
C986   C     0.14518   0.13432   0.97357   0.00000  Uiso   1.00
C987   C     0.18861   0.19880   0.97855   0.00000  Uiso   1.00
C988   C     0.14466   0.13456   0.68810   0.00000  Uiso   1.00
H989   H     0.21233   0.29260   0.77950   0.00000  Uiso   1.00
H990   H     0.12161   0.04093   0.88763   0.00000  Uiso   1.00
H991   H     0.20492   0.22510   0.71310   0.00000  Uiso   1.00
H992   H     0.12832   0.10827   0.95355   0.00000  Uiso   1.00
H993   H     0.20659   0.22434   0.96251   0.00000  Uiso   1.00
H994   H     0.12667   0.10902   0.70415   0.00000  Uiso   1.00
N995   N     0.16665   0.16666   0.95240   0.00000  Uiso   1.00
N996   N     0.16668   0.16668   0.71427   0.00000  Uiso   1.00
O997   O     0.16666   0.10558   0.87154   0.00000  Uiso   1.00
O998   O     0.16667   0.22775   0.79513   0.00000  Uiso   1.00
O999   O     0.16666   0.10559   0.79510   0.00000  Uiso   1.00
O1000  O     0.16667   0.22774   0.87157   0.00000  Uiso   1.00
O1001  O     0.09058   0.16666   0.86261   0.00000  Uiso   1.00
O1002  O     0.24275   0.16667   0.80405   0.00000  Uiso   1.00
O1003  O     0.09058   0.16667   0.78617   0.00000  Uiso   1.00
O1004  O     0.24275   0.16666   0.88050   0.00000  Uiso   1.00
Zn1005 Zn    0.16667   0.16666   0.88437   0.00000  Uiso   1.00
Zn1006 Zn    0.16667   0.16667   0.78229   0.00000  Uiso   1.00
S1007  S     0.32654   0.21618   0.77937   0.00000  Uiso   1.00
O1008  O     0.30028   0.19733   0.73588   0.00000  Uiso   1.00
O1009  O     0.28924   0.24430   0.79962   0.00000  Uiso   1.00
O1010  O     0.04436   0.24454   0.76677   0.00000  Uiso   1.00
H1011  H     0.04661   0.26871   0.78786   0.00000  Uiso   1.00
S1012  S     0.00656   0.11624   0.88622   0.00000  Uiso   1.00
O1013  O     0.04433   0.08880   0.86573   0.00000  Uiso   1.00
O1014  O     0.03215   0.13427   0.93045   0.00000  Uiso   1.00
O1015  O     0.28870   0.08681   0.89663   0.00000  Uiso   1.00
H1016  H     0.27901   0.09693   0.92617   0.00000  Uiso   1.00
S1017  S     0.24124   0.04197   0.76806   0.00000  Uiso   1.00
O1018  O     0.26905   0.07893   0.79099   0.00000  Uiso   1.00
O1019  O     0.28099   0.01054   0.75789   0.00000  Uiso   1.00
O1020  O     0.20778   0.05701   0.71866   0.00000  Uiso   1.00
H1021  H     0.18979   0.03153   0.70581   0.00000  Uiso   1.00
S1022  S     0.09541   0.29158   0.90164   0.00000  Uiso   1.00
O1023  O     0.12812   0.27803   0.94441   0.00000  Uiso   1.00
O1024  O     0.05713   0.32339   0.91396   0.00000  Uiso   1.00
O1025  O     0.06236   0.25056   0.87734   0.00000  Uiso   1.00
H1026  H     0.04203   0.23974   0.90110   0.00000  Uiso   1.00
C1027  C     0.50269   0.08675   0.83345   0.00000  Uiso   1.00
C1028  C     0.49731   0.24661   0.83327   0.00000  Uiso   1.00
C1029  C     0.40072   0.16696   0.82205   0.00000  Uiso   1.00
C1030  C     0.59929   0.16631   0.84458   0.00000  Uiso   1.00
C1031  C     0.34747   0.17529   0.81799   0.00000  Uiso   1.00
C1032  C     0.65250   0.15778   0.84845   0.00000  Uiso   1.00
C1033  C     0.53114   0.01981   0.80351   0.00000  Uiso   1.00
C1034  C     0.46982   0.31363   0.86406   0.00000  Uiso   1.00
C1035  C     0.52570   0.31058   0.80301   0.00000  Uiso   1.00
C1036  C     0.47476   0.02287   0.86409   0.00000  Uiso   1.00
C1037  C     0.49644   0.29082   0.83340   0.00000  Uiso   1.00
C1038  C     0.50386   0.04258   0.83359   0.00000  Uiso   1.00
C1039  C     0.52141   0.19904   0.69308   0.00000  Uiso   1.00
C1040  C     0.47852   0.13432   0.97357   0.00000  Uiso   1.00
C1041  C     0.52194   0.19880   0.97855   0.00000  Uiso   1.00
C1042  C     0.47799   0.13456   0.68810   0.00000  Uiso   1.00
H1043  H     0.54567   0.29260   0.77950   0.00000  Uiso   1.00
H1044  H     0.45494   0.04093   0.88763   0.00000  Uiso   1.00
H1045  H     0.53825   0.22510   0.71310   0.00000  Uiso   1.00
H1046  H     0.46165   0.10827   0.95355   0.00000  Uiso   1.00
H1047  H     0.53992   0.22434   0.96251   0.00000  Uiso   1.00
H1048  H     0.46001   0.10902   0.70415   0.00000  Uiso   1.00
N1049  N     0.49999   0.16666   0.95240   0.00000  Uiso   1.00
N1050  N     0.50001   0.16668   0.71427   0.00000  Uiso   1.00
O1051  O     0.50000   0.10558   0.87154   0.00000  Uiso   1.00
O1052  O     0.50000   0.22775   0.79513   0.00000  Uiso   1.00
O1053  O     0.50000   0.10559   0.79510   0.00000  Uiso   1.00
O1054  O     0.50000   0.22774   0.87157   0.00000  Uiso   1.00
O1055  O     0.42392   0.16666   0.86261   0.00000  Uiso   1.00
O1056  O     0.57608   0.16667   0.80405   0.00000  Uiso   1.00
O1057  O     0.42392   0.16667   0.78617   0.00000  Uiso   1.00
O1058  O     0.57608   0.16666   0.88050   0.00000  Uiso   1.00
Zn1059 Zn    0.50000   0.16666   0.88437   0.00000  Uiso   1.00
Zn1060 Zn    0.50000   0.16667   0.78229   0.00000  Uiso   1.00
S1061  S     0.65987   0.21618   0.77937   0.00000  Uiso   1.00
O1062  O     0.63361   0.19733   0.73588   0.00000  Uiso   1.00
O1063  O     0.62257   0.24430   0.79962   0.00000  Uiso   1.00
O1064  O     0.37769   0.24454   0.76677   0.00000  Uiso   1.00
H1065  H     0.37994   0.26871   0.78786   0.00000  Uiso   1.00
S1066  S     0.33990   0.11624   0.88622   0.00000  Uiso   1.00
O1067  O     0.37767   0.08880   0.86573   0.00000  Uiso   1.00
O1068  O     0.36548   0.13427   0.93045   0.00000  Uiso   1.00
O1069  O     0.62203   0.08681   0.89663   0.00000  Uiso   1.00
H1070  H     0.61234   0.09693   0.92617   0.00000  Uiso   1.00
S1071  S     0.57457   0.04197   0.76806   0.00000  Uiso   1.00
O1072  O     0.60238   0.07893   0.79099   0.00000  Uiso   1.00
O1073  O     0.61433   0.01054   0.75789   0.00000  Uiso   1.00
O1074  O     0.54111   0.05701   0.71866   0.00000  Uiso   1.00
H1075  H     0.52312   0.03153   0.70581   0.00000  Uiso   1.00
S1076  S     0.42874   0.29158   0.90164   0.00000  Uiso   1.00
O1077  O     0.46146   0.27803   0.94441   0.00000  Uiso   1.00
O1078  O     0.39046   0.32339   0.91396   0.00000  Uiso   1.00
O1079  O     0.39569   0.25056   0.87734   0.00000  Uiso   1.00
H1080  H     0.37536   0.23974   0.90110   0.00000  Uiso   1.00
C1081  C     0.83603   0.08675   0.83345   0.00000  Uiso   1.00
C1082  C     0.83064   0.24661   0.83327   0.00000  Uiso   1.00
C1083  C     0.73405   0.16696   0.82205   0.00000  Uiso   1.00
C1084  C     0.93262   0.16631   0.84458   0.00000  Uiso   1.00
C1085  C     0.68081   0.17529   0.81799   0.00000  Uiso   1.00
C1086  C     0.98583   0.15778   0.84845   0.00000  Uiso   1.00
C1087  C     0.86448   0.01981   0.80351   0.00000  Uiso   1.00
C1088  C     0.80316   0.31363   0.86406   0.00000  Uiso   1.00
C1089  C     0.85904   0.31058   0.80301   0.00000  Uiso   1.00
C1090  C     0.80810   0.02287   0.86409   0.00000  Uiso   1.00
C1091  C     0.82977   0.29082   0.83340   0.00000  Uiso   1.00
C1092  C     0.83719   0.04258   0.83359   0.00000  Uiso   1.00
C1093  C     0.85474   0.19904   0.69308   0.00000  Uiso   1.00
C1094  C     0.81185   0.13432   0.97357   0.00000  Uiso   1.00
C1095  C     0.85527   0.19880   0.97855   0.00000  Uiso   1.00
C1096  C     0.81132   0.13456   0.68810   0.00000  Uiso   1.00
H1097  H     0.87900   0.29260   0.77950   0.00000  Uiso   1.00
H1098  H     0.78828   0.04093   0.88763   0.00000  Uiso   1.00
H1099  H     0.87159   0.22510   0.71310   0.00000  Uiso   1.00
H1100  H     0.79498   0.10827   0.95355   0.00000  Uiso   1.00
H1101  H     0.87326   0.22434   0.96251   0.00000  Uiso   1.00
H1102  H     0.79334   0.10902   0.70415   0.00000  Uiso   1.00
N1103  N     0.83332   0.16666   0.95240   0.00000  Uiso   1.00
N1104  N     0.83335   0.16668   0.71427   0.00000  Uiso   1.00
O1105  O     0.83333   0.10558   0.87154   0.00000  Uiso   1.00
O1106  O     0.83334   0.22775   0.79513   0.00000  Uiso   1.00
O1107  O     0.83333   0.10559   0.79510   0.00000  Uiso   1.00
O1108  O     0.83334   0.22774   0.87157   0.00000  Uiso   1.00
O1109  O     0.75725   0.16666   0.86261   0.00000  Uiso   1.00
O1110  O     0.90942   0.16667   0.80405   0.00000  Uiso   1.00
O1111  O     0.75725   0.16667   0.78617   0.00000  Uiso   1.00
O1112  O     0.90942   0.16666   0.88050   0.00000  Uiso   1.00
Zn1113 Zn    0.83333   0.16666   0.88437   0.00000  Uiso   1.00
Zn1114 Zn    0.83333   0.16667   0.78229   0.00000  Uiso   1.00
S1115  S     0.99320   0.21618   0.77937   0.00000  Uiso   1.00
O1116  O     0.96694   0.19733   0.73588   0.00000  Uiso   1.00
O1117  O     0.95591   0.24430   0.79962   0.00000  Uiso   1.00
O1118  O     0.71102   0.24454   0.76677   0.00000  Uiso   1.00
H1119  H     0.71327   0.26871   0.78786   0.00000  Uiso   1.00
S1120  S     0.67323   0.11624   0.88622   0.00000  Uiso   1.00
O1121  O     0.71100   0.08880   0.86573   0.00000  Uiso   1.00
O1122  O     0.69882   0.13427   0.93045   0.00000  Uiso   1.00
O1123  O     0.95536   0.08681   0.89663   0.00000  Uiso   1.00
H1124  H     0.94568   0.09693   0.92617   0.00000  Uiso   1.00
S1125  S     0.90790   0.04197   0.76806   0.00000  Uiso   1.00
O1126  O     0.93571   0.07893   0.79099   0.00000  Uiso   1.00
O1127  O     0.94766   0.01054   0.75789   0.00000  Uiso   1.00
O1128  O     0.87444   0.05701   0.71866   0.00000  Uiso   1.00
H1129  H     0.85645   0.03153   0.70581   0.00000  Uiso   1.00
S1130  S     0.76207   0.29158   0.90164   0.00000  Uiso   1.00
O1131  O     0.79479   0.27803   0.94441   0.00000  Uiso   1.00
O1132  O     0.72380   0.32339   0.91396   0.00000  Uiso   1.00
O1133  O     0.72902   0.25056   0.87734   0.00000  Uiso   1.00
H1134  H     0.70870   0.23974   0.90110   0.00000  Uiso   1.00
C1135  C     0.16936   0.42009   0.83345   0.00000  Uiso   1.00
C1136  C     0.16398   0.57994   0.83327   0.00000  Uiso   1.00
C1137  C     0.06738   0.50029   0.82205   0.00000  Uiso   1.00
C1138  C     0.26596   0.49965   0.84458   0.00000  Uiso   1.00
C1139  C     0.01414   0.50862   0.81799   0.00000  Uiso   1.00
C1140  C     0.31917   0.49112   0.84845   0.00000  Uiso   1.00
C1141  C     0.19781   0.35314   0.80351   0.00000  Uiso   1.00
C1142  C     0.13649   0.64696   0.86406   0.00000  Uiso   1.00
C1143  C     0.19237   0.64392   0.80301   0.00000  Uiso   1.00
C1144  C     0.14143   0.35620   0.86409   0.00000  Uiso   1.00
C1145  C     0.16310   0.62416   0.83340   0.00000  Uiso   1.00
C1146  C     0.17053   0.37592   0.83359   0.00000  Uiso   1.00
C1147  C     0.18807   0.53238   0.69308   0.00000  Uiso   1.00
C1148  C     0.14518   0.46765   0.97357   0.00000  Uiso   1.00
C1149  C     0.18861   0.53213   0.97855   0.00000  Uiso   1.00
C1150  C     0.14466   0.46790   0.68810   0.00000  Uiso   1.00
H1151  H     0.21233   0.62593   0.77950   0.00000  Uiso   1.00
H1152  H     0.12161   0.37426   0.88763   0.00000  Uiso   1.00
H1153  H     0.20492   0.55844   0.71310   0.00000  Uiso   1.00
H1154  H     0.12832   0.44160   0.95355   0.00000  Uiso   1.00
H1155  H     0.20659   0.55767   0.96251   0.00000  Uiso   1.00
H1156  H     0.12667   0.44236   0.70415   0.00000  Uiso   1.00
N1157  N     0.16665   0.49999   0.95240   0.00000  Uiso   1.00
N1158  N     0.16668   0.50001   0.71427   0.00000  Uiso   1.00
O1159  O     0.16666   0.43892   0.87154   0.00000  Uiso   1.00
O1160  O     0.16667   0.56108   0.79513   0.00000  Uiso   1.00
O1161  O     0.16666   0.43893   0.79510   0.00000  Uiso   1.00
O1162  O     0.16667   0.56107   0.87157   0.00000  Uiso   1.00
O1163  O     0.09058   0.50000   0.86261   0.00000  Uiso   1.00
O1164  O     0.24275   0.50000   0.80405   0.00000  Uiso   1.00
O1165  O     0.09058   0.50000   0.78617   0.00000  Uiso   1.00
O1166  O     0.24275   0.50000   0.88050   0.00000  Uiso   1.00
Zn1167 Zn    0.16667   0.49999   0.88437   0.00000  Uiso   1.00
Zn1168 Zn    0.16667   0.50001   0.78229   0.00000  Uiso   1.00
S1169  S     0.32654   0.54952   0.77937   0.00000  Uiso   1.00
O1170  O     0.30028   0.53066   0.73588   0.00000  Uiso   1.00
O1171  O     0.28924   0.57764   0.79962   0.00000  Uiso   1.00
O1172  O     0.04436   0.57787   0.76677   0.00000  Uiso   1.00
H1173  H     0.04661   0.60205   0.78786   0.00000  Uiso   1.00
S1174  S     0.00656   0.44957   0.88622   0.00000  Uiso   1.00
O1175  O     0.04433   0.42213   0.86573   0.00000  Uiso   1.00
O1176  O     0.03215   0.46761   0.93045   0.00000  Uiso   1.00
O1177  O     0.28870   0.42015   0.89663   0.00000  Uiso   1.00
H1178  H     0.27901   0.43026   0.92617   0.00000  Uiso   1.00
S1179  S     0.24124   0.37530   0.76806   0.00000  Uiso   1.00
O1180  O     0.26905   0.41226   0.79099   0.00000  Uiso   1.00
O1181  O     0.28099   0.34387   0.75789   0.00000  Uiso   1.00
O1182  O     0.20778   0.39035   0.71866   0.00000  Uiso   1.00
H1183  H     0.18979   0.36487   0.70581   0.00000  Uiso   1.00
S1184  S     0.09541   0.62492   0.90164   0.00000  Uiso   1.00
O1185  O     0.12812   0.61136   0.94441   0.00000  Uiso   1.00
O1186  O     0.05713   0.65672   0.91396   0.00000  Uiso   1.00
O1187  O     0.06236   0.58390   0.87734   0.00000  Uiso   1.00
H1188  H     0.04203   0.57308   0.90110   0.00000  Uiso   1.00
C1189  C     0.50269   0.42009   0.83345   0.00000  Uiso   1.00
C1190  C     0.49731   0.57994   0.83327   0.00000  Uiso   1.00
C1191  C     0.40072   0.50029   0.82205   0.00000  Uiso   1.00
C1192  C     0.59929   0.49965   0.84458   0.00000  Uiso   1.00
C1193  C     0.34747   0.50862   0.81799   0.00000  Uiso   1.00
C1194  C     0.65250   0.49112   0.84845   0.00000  Uiso   1.00
C1195  C     0.53114   0.35314   0.80351   0.00000  Uiso   1.00
C1196  C     0.46982   0.64696   0.86406   0.00000  Uiso   1.00
C1197  C     0.52570   0.64392   0.80301   0.00000  Uiso   1.00
C1198  C     0.47476   0.35620   0.86409   0.00000  Uiso   1.00
C1199  C     0.49644   0.62416   0.83340   0.00000  Uiso   1.00
C1200  C     0.50386   0.37592   0.83359   0.00000  Uiso   1.00
C1201  C     0.52141   0.53238   0.69308   0.00000  Uiso   1.00
C1202  C     0.47852   0.46765   0.97357   0.00000  Uiso   1.00
C1203  C     0.52194   0.53213   0.97855   0.00000  Uiso   1.00
C1204  C     0.47799   0.46790   0.68810   0.00000  Uiso   1.00
H1205  H     0.54567   0.62593   0.77950   0.00000  Uiso   1.00
H1206  H     0.45494   0.37426   0.88763   0.00000  Uiso   1.00
H1207  H     0.53825   0.55844   0.71310   0.00000  Uiso   1.00
H1208  H     0.46165   0.44160   0.95355   0.00000  Uiso   1.00
H1209  H     0.53992   0.55767   0.96251   0.00000  Uiso   1.00
H1210  H     0.46001   0.44236   0.70415   0.00000  Uiso   1.00
N1211  N     0.49999   0.49999   0.95240   0.00000  Uiso   1.00
N1212  N     0.50001   0.50001   0.71427   0.00000  Uiso   1.00
O1213  O     0.50000   0.43892   0.87154   0.00000  Uiso   1.00
O1214  O     0.50000   0.56108   0.79513   0.00000  Uiso   1.00
O1215  O     0.50000   0.43893   0.79510   0.00000  Uiso   1.00
O1216  O     0.50000   0.56107   0.87157   0.00000  Uiso   1.00
O1217  O     0.42392   0.50000   0.86261   0.00000  Uiso   1.00
O1218  O     0.57608   0.50000   0.80405   0.00000  Uiso   1.00
O1219  O     0.42392   0.50000   0.78617   0.00000  Uiso   1.00
O1220  O     0.57608   0.50000   0.88050   0.00000  Uiso   1.00
Zn1221 Zn    0.50000   0.49999   0.88437   0.00000  Uiso   1.00
Zn1222 Zn    0.50000   0.50001   0.78229   0.00000  Uiso   1.00
S1223  S     0.65987   0.54952   0.77937   0.00000  Uiso   1.00
O1224  O     0.63361   0.53066   0.73588   0.00000  Uiso   1.00
O1225  O     0.62257   0.57764   0.79962   0.00000  Uiso   1.00
O1226  O     0.37769   0.57787   0.76677   0.00000  Uiso   1.00
H1227  H     0.37994   0.60205   0.78786   0.00000  Uiso   1.00
S1228  S     0.33990   0.44957   0.88622   0.00000  Uiso   1.00
O1229  O     0.37767   0.42213   0.86573   0.00000  Uiso   1.00
O1230  O     0.36548   0.46761   0.93045   0.00000  Uiso   1.00
O1231  O     0.62203   0.42015   0.89663   0.00000  Uiso   1.00
H1232  H     0.61234   0.43026   0.92617   0.00000  Uiso   1.00
S1233  S     0.57457   0.37530   0.76806   0.00000  Uiso   1.00
O1234  O     0.60238   0.41226   0.79099   0.00000  Uiso   1.00
O1235  O     0.61433   0.34387   0.75789   0.00000  Uiso   1.00
O1236  O     0.54111   0.39035   0.71866   0.00000  Uiso   1.00
H1237  H     0.52312   0.36487   0.70581   0.00000  Uiso   1.00
S1238  S     0.42874   0.62492   0.90164   0.00000  Uiso   1.00
O1239  O     0.46146   0.61136   0.94441   0.00000  Uiso   1.00
O1240  O     0.39046   0.65672   0.91396   0.00000  Uiso   1.00
O1241  O     0.39569   0.58390   0.87734   0.00000  Uiso   1.00
H1242  H     0.37536   0.57308   0.90110   0.00000  Uiso   1.00
C1243  C     0.83603   0.42009   0.83345   0.00000  Uiso   1.00
C1244  C     0.83064   0.57994   0.83327   0.00000  Uiso   1.00
C1245  C     0.73405   0.50029   0.82205   0.00000  Uiso   1.00
C1246  C     0.93262   0.49965   0.84458   0.00000  Uiso   1.00
C1247  C     0.68081   0.50862   0.81799   0.00000  Uiso   1.00
C1248  C     0.98583   0.49112   0.84845   0.00000  Uiso   1.00
C1249  C     0.86448   0.35314   0.80351   0.00000  Uiso   1.00
C1250  C     0.80316   0.64696   0.86406   0.00000  Uiso   1.00
C1251  C     0.85904   0.64392   0.80301   0.00000  Uiso   1.00
C1252  C     0.80810   0.35620   0.86409   0.00000  Uiso   1.00
C1253  C     0.82977   0.62416   0.83340   0.00000  Uiso   1.00
C1254  C     0.83719   0.37592   0.83359   0.00000  Uiso   1.00
C1255  C     0.85474   0.53238   0.69308   0.00000  Uiso   1.00
C1256  C     0.81185   0.46765   0.97357   0.00000  Uiso   1.00
C1257  C     0.85527   0.53213   0.97855   0.00000  Uiso   1.00
C1258  C     0.81132   0.46790   0.68810   0.00000  Uiso   1.00
H1259  H     0.87900   0.62593   0.77950   0.00000  Uiso   1.00
H1260  H     0.78828   0.37426   0.88763   0.00000  Uiso   1.00
H1261  H     0.87159   0.55844   0.71310   0.00000  Uiso   1.00
H1262  H     0.79498   0.44160   0.95355   0.00000  Uiso   1.00
H1263  H     0.87326   0.55767   0.96251   0.00000  Uiso   1.00
H1264  H     0.79334   0.44236   0.70415   0.00000  Uiso   1.00
N1265  N     0.83332   0.49999   0.95240   0.00000  Uiso   1.00
N1266  N     0.83335   0.50001   0.71427   0.00000  Uiso   1.00
O1267  O     0.83333   0.43892   0.87154   0.00000  Uiso   1.00
O1268  O     0.83334   0.56108   0.79513   0.00000  Uiso   1.00
O1269  O     0.83333   0.43893   0.79510   0.00000  Uiso   1.00
O1270  O     0.83334   0.56107   0.87157   0.00000  Uiso   1.00
O1271  O     0.75725   0.50000   0.86261   0.00000  Uiso   1.00
O1272  O     0.90942   0.50000   0.80405   0.00000  Uiso   1.00
O1273  O     0.75725   0.50000   0.78617   0.00000  Uiso   1.00
O1274  O     0.90942   0.50000   0.88050   0.00000  Uiso   1.00
Zn1275 Zn    0.83333   0.49999   0.88437   0.00000  Uiso   1.00
Zn1276 Zn    0.83333   0.50001   0.78229   0.00000  Uiso   1.00
S1277  S     0.99320   0.54952   0.77937   0.00000  Uiso   1.00
O1278  O     0.96694   0.53066   0.73588   0.00000  Uiso   1.00
O1279  O     0.95591   0.57764   0.79962   0.00000  Uiso   1.00
O1280  O     0.71102   0.57787   0.76677   0.00000  Uiso   1.00
H1281  H     0.71327   0.60205   0.78786   0.00000  Uiso   1.00
S1282  S     0.67323   0.44957   0.88622   0.00000  Uiso   1.00
O1283  O     0.71100   0.42213   0.86573   0.00000  Uiso   1.00
O1284  O     0.69882   0.46761   0.93045   0.00000  Uiso   1.00
O1285  O     0.95536   0.42015   0.89663   0.00000  Uiso   1.00
H1286  H     0.94568   0.43026   0.92617   0.00000  Uiso   1.00
S1287  S     0.90790   0.37530   0.76806   0.00000  Uiso   1.00
O1288  O     0.93571   0.41226   0.79099   0.00000  Uiso   1.00
O1289  O     0.94766   0.34387   0.75789   0.00000  Uiso   1.00
O1290  O     0.87444   0.39035   0.71866   0.00000  Uiso   1.00
H1291  H     0.85645   0.36487   0.70581   0.00000  Uiso   1.00
S1292  S     0.76207   0.62492   0.90164   0.00000  Uiso   1.00
O1293  O     0.79479   0.61136   0.94441   0.00000  Uiso   1.00
O1294  O     0.72380   0.65672   0.91396   0.00000  Uiso   1.00
O1295  O     0.72902   0.58390   0.87734   0.00000  Uiso   1.00
H1296  H     0.70870   0.57308   0.90110   0.00000  Uiso   1.00
C1297  C     0.16936   0.75342   0.83345   0.00000  Uiso   1.00
C1298  C     0.16398   0.91327   0.83327   0.00000  Uiso   1.00
C1299  C     0.06738   0.83363   0.82205   0.00000  Uiso   1.00
C1300  C     0.26596   0.83298   0.84458   0.00000  Uiso   1.00
C1301  C     0.01414   0.84196   0.81799   0.00000  Uiso   1.00
C1302  C     0.31917   0.82445   0.84845   0.00000  Uiso   1.00
C1303  C     0.19781   0.68648   0.80351   0.00000  Uiso   1.00
C1304  C     0.13649   0.98030   0.86406   0.00000  Uiso   1.00
C1305  C     0.19237   0.97725   0.80301   0.00000  Uiso   1.00
C1306  C     0.14143   0.68954   0.86409   0.00000  Uiso   1.00
C1307  C     0.16310   0.95749   0.83340   0.00000  Uiso   1.00
C1308  C     0.17053   0.70925   0.83359   0.00000  Uiso   1.00
C1309  C     0.18807   0.86571   0.69308   0.00000  Uiso   1.00
C1310  C     0.14518   0.80099   0.97357   0.00000  Uiso   1.00
C1311  C     0.18861   0.86547   0.97855   0.00000  Uiso   1.00
C1312  C     0.14466   0.80123   0.68810   0.00000  Uiso   1.00
H1313  H     0.21233   0.95927   0.77950   0.00000  Uiso   1.00
H1314  H     0.12161   0.70760   0.88763   0.00000  Uiso   1.00
H1315  H     0.20492   0.89177   0.71310   0.00000  Uiso   1.00
H1316  H     0.12832   0.77494   0.95355   0.00000  Uiso   1.00
H1317  H     0.20659   0.89100   0.96251   0.00000  Uiso   1.00
H1318  H     0.12667   0.77569   0.70415   0.00000  Uiso   1.00
N1319  N     0.16665   0.83332   0.95240   0.00000  Uiso   1.00
N1320  N     0.16668   0.83334   0.71427   0.00000  Uiso   1.00
O1321  O     0.16666   0.77225   0.87154   0.00000  Uiso   1.00
O1322  O     0.16667   0.89442   0.79513   0.00000  Uiso   1.00
O1323  O     0.16666   0.77226   0.79510   0.00000  Uiso   1.00
O1324  O     0.16667   0.89441   0.87157   0.00000  Uiso   1.00
O1325  O     0.09058   0.83333   0.86261   0.00000  Uiso   1.00
O1326  O     0.24275   0.83334   0.80405   0.00000  Uiso   1.00
O1327  O     0.09058   0.83334   0.78617   0.00000  Uiso   1.00
O1328  O     0.24275   0.83333   0.88050   0.00000  Uiso   1.00
Zn1329 Zn    0.16667   0.83333   0.88437   0.00000  Uiso   1.00
Zn1330 Zn    0.16667   0.83334   0.78229   0.00000  Uiso   1.00
S1331  S     0.32654   0.88285   0.77937   0.00000  Uiso   1.00
O1332  O     0.30028   0.86400   0.73588   0.00000  Uiso   1.00
O1333  O     0.28924   0.91097   0.79962   0.00000  Uiso   1.00
O1334  O     0.04436   0.91121   0.76677   0.00000  Uiso   1.00
H1335  H     0.04661   0.93538   0.78786   0.00000  Uiso   1.00
S1336  S     0.00656   0.78290   0.88622   0.00000  Uiso   1.00
O1337  O     0.04433   0.75547   0.86573   0.00000  Uiso   1.00
O1338  O     0.03215   0.80094   0.93045   0.00000  Uiso   1.00
O1339  O     0.28870   0.75348   0.89663   0.00000  Uiso   1.00
H1340  H     0.27901   0.76359   0.92617   0.00000  Uiso   1.00
S1341  S     0.24124   0.70863   0.76806   0.00000  Uiso   1.00
O1342  O     0.26905   0.74559   0.79099   0.00000  Uiso   1.00
O1343  O     0.28099   0.67721   0.75789   0.00000  Uiso   1.00
O1344  O     0.20778   0.72368   0.71866   0.00000  Uiso   1.00
H1345  H     0.18979   0.69820   0.70581   0.00000  Uiso   1.00
S1346  S     0.09541   0.95825   0.90164   0.00000  Uiso   1.00
O1347  O     0.12812   0.94470   0.94441   0.00000  Uiso   1.00
O1348  O     0.05713   0.99006   0.91396   0.00000  Uiso   1.00
O1349  O     0.06236   0.91723   0.87734   0.00000  Uiso   1.00
H1350  H     0.04203   0.90641   0.90110   0.00000  Uiso   1.00
C1351  C     0.50269   0.75342   0.83345   0.00000  Uiso   1.00
C1352  C     0.49731   0.91327   0.83327   0.00000  Uiso   1.00
C1353  C     0.40072   0.83363   0.82205   0.00000  Uiso   1.00
C1354  C     0.59929   0.83298   0.84458   0.00000  Uiso   1.00
C1355  C     0.34747   0.84196   0.81799   0.00000  Uiso   1.00
C1356  C     0.65250   0.82445   0.84845   0.00000  Uiso   1.00
C1357  C     0.53114   0.68648   0.80351   0.00000  Uiso   1.00
C1358  C     0.46982   0.98030   0.86406   0.00000  Uiso   1.00
C1359  C     0.52570   0.97725   0.80301   0.00000  Uiso   1.00
C1360  C     0.47476   0.68954   0.86409   0.00000  Uiso   1.00
C1361  C     0.49644   0.95749   0.83340   0.00000  Uiso   1.00
C1362  C     0.50386   0.70925   0.83359   0.00000  Uiso   1.00
C1363  C     0.52141   0.86571   0.69308   0.00000  Uiso   1.00
C1364  C     0.47852   0.80099   0.97357   0.00000  Uiso   1.00
C1365  C     0.52194   0.86547   0.97855   0.00000  Uiso   1.00
C1366  C     0.47799   0.80123   0.68810   0.00000  Uiso   1.00
H1367  H     0.54567   0.95927   0.77950   0.00000  Uiso   1.00
H1368  H     0.45494   0.70760   0.88763   0.00000  Uiso   1.00
H1369  H     0.53825   0.89177   0.71310   0.00000  Uiso   1.00
H1370  H     0.46165   0.77494   0.95355   0.00000  Uiso   1.00
H1371  H     0.53992   0.89100   0.96251   0.00000  Uiso   1.00
H1372  H     0.46001   0.77569   0.70415   0.00000  Uiso   1.00
N1373  N     0.49999   0.83332   0.95240   0.00000  Uiso   1.00
N1374  N     0.50001   0.83334   0.71427   0.00000  Uiso   1.00
O1375  O     0.50000   0.77225   0.87154   0.00000  Uiso   1.00
O1376  O     0.50000   0.89442   0.79513   0.00000  Uiso   1.00
O1377  O     0.50000   0.77226   0.79510   0.00000  Uiso   1.00
O1378  O     0.50000   0.89441   0.87157   0.00000  Uiso   1.00
O1379  O     0.42392   0.83333   0.86261   0.00000  Uiso   1.00
O1380  O     0.57608   0.83334   0.80405   0.00000  Uiso   1.00
O1381  O     0.42392   0.83334   0.78617   0.00000  Uiso   1.00
O1382  O     0.57608   0.83333   0.88050   0.00000  Uiso   1.00
Zn1383 Zn    0.50000   0.83333   0.88437   0.00000  Uiso   1.00
Zn1384 Zn    0.50000   0.83334   0.78229   0.00000  Uiso   1.00
S1385  S     0.65987   0.88285   0.77937   0.00000  Uiso   1.00
O1386  O     0.63361   0.86400   0.73588   0.00000  Uiso   1.00
O1387  O     0.62257   0.91097   0.79962   0.00000  Uiso   1.00
O1388  O     0.37769   0.91121   0.76677   0.00000  Uiso   1.00
H1389  H     0.37994   0.93538   0.78786   0.00000  Uiso   1.00
S1390  S     0.33990   0.78290   0.88622   0.00000  Uiso   1.00
O1391  O     0.37767   0.75547   0.86573   0.00000  Uiso   1.00
O1392  O     0.36548   0.80094   0.93045   0.00000  Uiso   1.00
O1393  O     0.62203   0.75348   0.89663   0.00000  Uiso   1.00
H1394  H     0.61234   0.76359   0.92617   0.00000  Uiso   1.00
S1395  S     0.57457   0.70863   0.76806   0.00000  Uiso   1.00
O1396  O     0.60238   0.74559   0.79099   0.00000  Uiso   1.00
O1397  O     0.61433   0.67721   0.75789   0.00000  Uiso   1.00
O1398  O     0.54111   0.72368   0.71866   0.00000  Uiso   1.00
H1399  H     0.52312   0.69820   0.70581   0.00000  Uiso   1.00
S1400  S     0.42874   0.95825   0.90164   0.00000  Uiso   1.00
O1401  O     0.46146   0.94470   0.94441   0.00000  Uiso   1.00
O1402  O     0.39046   0.99006   0.91396   0.00000  Uiso   1.00
O1403  O     0.39569   0.91723   0.87734   0.00000  Uiso   1.00
H1404  H     0.37536   0.90641   0.90110   0.00000  Uiso   1.00
C1405  C     0.83603   0.75342   0.83345   0.00000  Uiso   1.00
C1406  C     0.83064   0.91327   0.83327   0.00000  Uiso   1.00
C1407  C     0.73405   0.83363   0.82205   0.00000  Uiso   1.00
C1408  C     0.93262   0.83298   0.84458   0.00000  Uiso   1.00
C1409  C     0.68081   0.84196   0.81799   0.00000  Uiso   1.00
C1410  C     0.98583   0.82445   0.84845   0.00000  Uiso   1.00
C1411  C     0.86448   0.68648   0.80351   0.00000  Uiso   1.00
C1412  C     0.80316   0.98030   0.86406   0.00000  Uiso   1.00
C1413  C     0.85904   0.97725   0.80301   0.00000  Uiso   1.00
C1414  C     0.80810   0.68954   0.86409   0.00000  Uiso   1.00
C1415  C     0.82977   0.95749   0.83340   0.00000  Uiso   1.00
C1416  C     0.83719   0.70925   0.83359   0.00000  Uiso   1.00
C1417  C     0.85474   0.86571   0.69308   0.00000  Uiso   1.00
C1418  C     0.81185   0.80099   0.97357   0.00000  Uiso   1.00
C1419  C     0.85527   0.86547   0.97855   0.00000  Uiso   1.00
C1420  C     0.81132   0.80123   0.68810   0.00000  Uiso   1.00
H1421  H     0.87900   0.95927   0.77950   0.00000  Uiso   1.00
H1422  H     0.78828   0.70760   0.88763   0.00000  Uiso   1.00
H1423  H     0.87159   0.89177   0.71310   0.00000  Uiso   1.00
H1424  H     0.79498   0.77494   0.95355   0.00000  Uiso   1.00
H1425  H     0.87326   0.89100   0.96251   0.00000  Uiso   1.00
H1426  H     0.79334   0.77569   0.70415   0.00000  Uiso   1.00
N1427  N     0.83332   0.83332   0.95240   0.00000  Uiso   1.00
N1428  N     0.83335   0.83334   0.71427   0.00000  Uiso   1.00
O1429  O     0.83333   0.77225   0.87154   0.00000  Uiso   1.00
O1430  O     0.83334   0.89442   0.79513   0.00000  Uiso   1.00
O1431  O     0.83333   0.77226   0.79510   0.00000  Uiso   1.00
O1432  O     0.83334   0.89441   0.87157   0.00000  Uiso   1.00
O1433  O     0.75725   0.83333   0.86261   0.00000  Uiso   1.00
O1434  O     0.90942   0.83334   0.80405   0.00000  Uiso   1.00
O1435  O     0.75725   0.83334   0.78617   0.00000  Uiso   1.00
O1436  O     0.90942   0.83333   0.88050   0.00000  Uiso   1.00
Zn1437 Zn    0.83333   0.83333   0.88437   0.00000  Uiso   1.00
Zn1438 Zn    0.83333   0.83334   0.78229   0.00000  Uiso   1.00
S1439  S     0.99320   0.88285   0.77937   0.00000  Uiso   1.00
O1440  O     0.96694   0.86400   0.73588   0.00000  Uiso   1.00
O1441  O     0.95591   0.91097   0.79962   0.00000  Uiso   1.00
O1442  O     0.71102   0.91121   0.76677   0.00000  Uiso   1.00
H1443  H     0.71327   0.93538   0.78786   0.00000  Uiso   1.00
S1444  S     0.67323   0.78290   0.88622   0.00000  Uiso   1.00
O1445  O     0.71100   0.75547   0.86573   0.00000  Uiso   1.00
O1446  O     0.69882   0.80094   0.93045   0.00000  Uiso   1.00
O1447  O     0.95536   0.75348   0.89663   0.00000  Uiso   1.00
H1448  H     0.94568   0.76359   0.92617   0.00000  Uiso   1.00
S1449  S     0.90790   0.70863   0.76806   0.00000  Uiso   1.00
O1450  O     0.93571   0.74559   0.79099   0.00000  Uiso   1.00
O1451  O     0.94766   0.67721   0.75789   0.00000  Uiso   1.00
O1452  O     0.87444   0.72368   0.71866   0.00000  Uiso   1.00
H1453  H     0.85645   0.69820   0.70581   0.00000  Uiso   1.00
S1454  S     0.76207   0.95825   0.90164   0.00000  Uiso   1.00
O1455  O     0.79479   0.94470   0.94441   0.00000  Uiso   1.00
O1456  O     0.72380   0.99006   0.91396   0.00000  Uiso   1.00
O1457  O     0.72902   0.91723   0.87734   0.00000  Uiso   1.00
H1458  H     0.70870   0.90641   0.90110   0.00000  Uiso   1.00
loop_
_geom_bond_atom_site_label_1
_geom_bond_atom_site_label_2
_geom_bond_distance
_geom_bond_site_symmetry_2
_ccdc_geom_bond_type
C1     O25     1.284   .     A
C1     C12     1.421   .     S
C1     O27     1.282   .     A
C2     O26     1.286   .     A
C2     C11     1.422   .     S
C2     O28     1.281   .     A
C3     O31     1.280   .     A
C3     O29     1.273   .     A
C3     C5      1.399   .     S
C4     O30     1.272   .     A
C4     O32     1.282   .     A
C4     C6      1.400   .     S
C5     C114    1.351   1_455 S
C5     S143    1.789   1_455 S
C6     C59     1.351   .     S
C6     S94     1.788   .     S
C7     S45     1.776   .     S
C7     C12     1.407   .     A
C7     C333    1.375   1_545 S
C8     C11     1.409   .     A
C8     S50     1.776   .     S
C8     C172    1.374   .     S
C9     C11     1.397   .     A
C9     H17     1.082   .     S
C9     C169    1.375   .     S
C10    C12     1.395   .     A
C10    H18     1.082   .     S
C10    C332    1.374   1_545 S
C13    H19     1.081   .     S
C13    N24     1.366   .     A
C13    C987    1.415   1_554 S
C14    N23     1.366   .     A
C14    H20     1.081   .     S
C14    C502    1.415   .     S
C15    N23     1.366   .     A
C15    H21     1.081   .     S
C15    C499    1.415   .     S
C16    N24     1.366   .     A
C16    H22     1.081   .     S
C16    C986    1.415   1_554 S
N23    Zn33    2.009   .     S
N24    Zn34    2.009   .     S
O25    Zn33    1.998   .     S
O26    Zn34    1.998   .     S
O27    Zn34    2.002   .     S
O28    Zn33    2.002   .     S
O29    Zn33    1.999   .     S
O30    Zn34    1.999   .     S
O31    Zn34    1.990   .     S
O32    Zn33    1.990   .     S
S35    O36     1.501   .     D
S35    O37     1.503   .     D
S35    C59     1.789   .     S
S35    O92     1.684   .     S
O38    H39     0.990   .     S
O38    S143    1.684   1_455 S
S40    O42     1.502   .     D
S40    O41     1.502   .     D
S40    C114    1.788   1_455 S
S40    O151    1.685   1_455 S
O43    H44     0.991   .     S
O43    S94     1.685   .     S
S45    O48     1.679   .     S
S45    O47     1.504   .     D
S45    O46     1.501   .     D
O48    H49     0.991   .     S
S50    O52     1.504   .     D
S50    O51     1.502   .     D
S50    O53     1.677   .     S
O53    H54     0.991   .     S
C55    O79     1.284   .     A
C55    C66     1.421   .     S
C55    O81     1.282   .     A
C56    O80     1.286   .     A
C56    C65     1.422   .     S
C56    O82     1.281   .     A
C57    O85     1.280   .     A
C57    O83     1.273   .     A
C57    C59     1.399   .     S
C58    O84     1.272   .     A
C58    O86     1.282   .     A
C58    C60     1.400   .     S
C60    C113    1.351   .     S
C60    S148    1.788   .     S
C61    S99     1.776   .     S
C61    C66     1.407   .     A
C61    C387    1.375   1_545 S
C62    C65     1.409   .     A
C62    S104    1.776   .     S
C62    C226    1.374   .     S
C63    C65     1.397   .     A
C63    H71     1.082   .     S
C63    C223    1.375   .     S
C64    C66     1.395   .     A
C64    H72     1.082   .     S
C64    C386    1.374   1_545 S
C67    H73     1.081   .     S
C67    N78     1.366   .     A
C67    C1041   1.415   1_554 S
C68    N77     1.366   .     A
C68    H74     1.081   .     S
C68    C556    1.415   .     S
C69    N77     1.366   .     A
C69    H75     1.081   .     S
C69    C553    1.415   .     S
C70    N78     1.366   .     A
C70    H76     1.081   .     S
C70    C1040   1.415   1_554 S
N77    Zn87    2.009   .     S
N78    Zn88    2.009   .     S
O79    Zn87    1.998   .     S
O80    Zn88    1.998   .     S
O81    Zn88    2.002   .     S
O82    Zn87    2.002   .     S
O83    Zn87    1.999   .     S
O84    Zn88    1.999   .     S
O85    Zn88    1.990   .     S
O86    Zn87    1.990   .     S
S89    O90     1.501   .     D
S89    O91     1.503   .     D
S89    C113    1.789   .     S
S89    O146    1.684   .     S
O92    H93     0.990   .     S
S94    O96     1.502   .     D
S94    O95     1.502   .     D
O97    H98     0.991   .     S
O97    S148    1.685   .     S
S99    O102    1.679   .     S
S99    O101    1.504   .     D
S99    O100    1.501   .     D
O102   H103    0.991   .     S
S104   O106    1.504   .     D
S104   O105    1.502   .     D
S104   O107    1.677   .     S
O107   H108    0.991   .     S
C109   O133    1.284   .     A
C109   C120    1.421   .     S
C109   O135    1.282   .     A
C110   O134    1.286   .     A
C110   C119    1.422   .     S
C110   O136    1.281   .     A
C111   O139    1.280   .     A
C111   O137    1.273   .     A
C111   C113    1.399   .     S
C112   O138    1.272   .     A
C112   O140    1.282   .     A
C112   C114    1.400   .     S
C114   C5      1.351   1_655 S
C114   S40     1.788   1_655 S
C115   S153    1.776   .     S
C115   C120    1.407   .     A
C115   C441    1.375   1_545 S
C116   C119    1.409   .     A
C116   S158    1.776   .     S
C116   C280    1.374   .     S
C117   C119    1.397   .     A
C117   H125    1.082   .     S
C117   C277    1.375   .     S
C118   C120    1.395   .     A
C118   H126    1.082   .     S
C118   C440    1.374   1_545 S
C121   H127    1.081   .     S
C121   N132    1.366   .     A
C121   C1095   1.415   1_554 S
C122   N131    1.366   .     A
C122   H128    1.081   .     S
C122   C610    1.415   .     S
C123   N131    1.366   .     A
C123   H129    1.081   .     S
C123   C607    1.415   .     S
C124   N132    1.366   .     A
C124   H130    1.081   .     S
C124   C1094   1.415   1_554 S
N131   Zn141   2.009   .     S
N132   Zn142   2.009   .     S
O133   Zn141   1.998   .     S
O134   Zn142   1.998   .     S
O135   Zn142   2.002   .     S
O136   Zn141   2.002   .     S
O137   Zn141   1.999   .     S
O138   Zn142   1.999   .     S
O139   Zn142   1.990   .     S
O140   Zn141   1.990   .     S
S143   O144    1.501   .     D
S143   O145    1.503   .     D
S143   C5      1.789   1_655 S
S143   O38     1.684   1_655 S
O146   H147    0.990   .     S
S148   O150    1.502   .     D
S148   O149    1.502   .     D
O151   H152    0.991   .     S
O151   S40     1.685   1_655 S
S153   O156    1.679   .     S
S153   O155    1.504   .     D
S153   O154    1.501   .     D
O156   H157    0.991   .     S
S158   O160    1.504   .     D
S158   O159    1.502   .     D
S158   O161    1.677   .     S
O161   H162    0.991   .     S
C163   O187    1.284   .     A
C163   C174    1.421   .     S
C163   O189    1.282   .     A
C164   O188    1.286   .     A
C164   C173    1.422   .     S
C164   O190    1.281   .     A
C165   O193    1.280   .     A
C165   O191    1.273   .     A
C165   C167    1.399   .     S
C166   O192    1.272   .     A
C166   O194    1.282   .     A
C166   C168    1.400   .     S
C167   C276    1.351   1_455 S
C167   S305    1.789   1_455 S
C168   C221    1.351   .     S
C168   S256    1.788   .     S
C169   S207    1.776   .     S
C169   C174    1.407   .     A
C170   C173    1.409   .     A
C170   S212    1.776   .     S
C170   C334    1.374   .     S
C171   C173    1.397   .     A
C171   H179    1.082   .     S
C171   C331    1.375   .     S
C172   C174    1.395   .     A
C172   H180    1.082   .     S
C175   H181    1.081   .     S
C175   N186    1.366   .     A
C175   C1149   1.415   1_554 S
C176   N185    1.366   .     A
C176   H182    1.081   .     S
C176   C664    1.415   .     S
C177   N185    1.366   .     A
C177   H183    1.081   .     S
C177   C661    1.415   .     S
C178   N186    1.366   .     A
C178   H184    1.081   .     S
C178   C1148   1.415   1_554 S
N185   Zn195   2.009   .     S
N186   Zn196   2.009   .     S
O187   Zn195   1.998   .     S
O188   Zn196   1.998   .     S
O189   Zn196   2.002   .     S
O190   Zn195   2.002   .     S
O191   Zn195   1.999   .     S
O192   Zn196   1.999   .     S
O193   Zn196   1.990   .     S
O194   Zn195   1.990   .     S
S197   O198    1.501   .     D
S197   O199    1.503   .     D
S197   C221    1.789   .     S
S197   O254    1.684   .     S
O200   H201    0.990   .     S
O200   S305    1.684   1_455 S
S202   O204    1.502   .     D
S202   O203    1.502   .     D
S202   C276    1.788   1_455 S
S202   O313    1.685   1_455 S
O205   H206    0.991   .     S
O205   S256    1.685   .     S
S207   O210    1.679   .     S
S207   O209    1.504   .     D
S207   O208    1.501   .     D
O210   H211    0.991   .     S
S212   O214    1.504   .     D
S212   O213    1.502   .     D
S212   O215    1.677   .     S
O215   H216    0.991   .     S
C217   O241    1.284   .     A
C217   C228    1.421   .     S
C217   O243    1.282   .     A
C218   O242    1.286   .     A
C218   C227    1.422   .     S
C218   O244    1.281   .     A
C219   O247    1.280   .     A
C219   O245    1.273   .     A
C219   C221    1.399   .     S
C220   O246    1.272   .     A
C220   O248    1.282   .     A
C220   C222    1.400   .     S
C222   C275    1.351   .     S
C222   S310    1.788   .     S
C223   S261    1.776   .     S
C223   C228    1.407   .     A
C224   C227    1.409   .     A
C224   S266    1.776   .     S
C224   C388    1.374   .     S
C225   C227    1.397   .     A
C225   H233    1.082   .     S
C225   C385    1.375   .     S
C226   C228    1.395   .     A
C226   H234    1.082   .     S
C229   H235    1.081   .     S
C229   N240    1.366   .     A
C229   C1203   1.415   1_554 S
C230   N239    1.366   .     A
C230   H236    1.081   .     S
C230   C718    1.415   .     S
C231   N239    1.366   .     A
C231   H237    1.081   .     S
C231   C715    1.415   .     S
C232   N240    1.366   .     A
C232   H238    1.081   .     S
C232   C1202   1.415   1_554 S
N239   Zn249   2.009   .     S
N240   Zn250   2.009   .     S
O241   Zn249   1.998   .     S
O242   Zn250   1.998   .     S
O243   Zn250   2.002   .     S
O244   Zn249   2.002   .     S
O245   Zn249   1.999   .     S
O246   Zn250   1.999   .     S
O247   Zn250   1.990   .     S
O248   Zn249   1.990   .     S
S251   O252    1.501   .     D
S251   O253    1.503   .     D
S251   C275    1.789   .     S
S251   O308    1.684   .     S
O254   H255    0.990   .     S
S256   O258    1.502   .     D
S256   O257    1.502   .     D
O259   H260    0.991   .     S
O259   S310    1.685   .     S
S261   O264    1.679   .     S
S261   O263    1.504   .     D
S261   O262    1.501   .     D
O264   H265    0.991   .     S
S266   O268    1.504   .     D
S266   O267    1.502   .     D
S266   O269    1.677   .     S
O269   H270    0.991   .     S
C271   O295    1.284   .     A
C271   C282    1.421   .     S
C271   O297    1.282   .     A
C272   O296    1.286   .     A
C272   C281    1.422   .     S
C272   O298    1.281   .     A
C273   O301    1.280   .     A
C273   O299    1.273   .     A
C273   C275    1.399   .     S
C274   O300    1.272   .     A
C274   O302    1.282   .     A
C274   C276    1.400   .     S
C276   C167    1.351   1_655 S
C276   S202    1.788   1_655 S
C277   S315    1.776   .     S
C277   C282    1.407   .     A
C278   C281    1.409   .     A
C278   S320    1.776   .     S
C278   C442    1.374   .     S
C279   C281    1.397   .     A
C279   H287    1.082   .     S
C279   C439    1.375   .     S
C280   C282    1.395   .     A
C280   H288    1.082   .     S
C283   H289    1.081   .     S
C283   N294    1.366   .     A
C283   C1257   1.415   1_554 S
C284   N293    1.366   .     A
C284   H290    1.081   .     S
C284   C772    1.415   .     S
C285   N293    1.366   .     A
C285   H291    1.081   .     S
C285   C769    1.415   .     S
C286   N294    1.366   .     A
C286   H292    1.081   .     S
C286   C1256   1.415   1_554 S
N293   Zn303   2.009   .     S
N294   Zn304   2.009   .     S
O295   Zn303   1.998   .     S
O296   Zn304   1.998   .     S
O297   Zn304   2.002   .     S
O298   Zn303   2.002   .     S
O299   Zn303   1.999   .     S
O300   Zn304   1.999   .     S
O301   Zn304   1.990   .     S
O302   Zn303   1.990   .     S
S305   O306    1.501   .     D
S305   O307    1.503   .     D
S305   C167    1.789   1_655 S
S305   O200    1.684   1_655 S
O308   H309    0.990   .     S
S310   O312    1.502   .     D
S310   O311    1.502   .     D
O313   H314    0.991   .     S
O313   S202    1.685   1_655 S
S315   O318    1.679   .     S
S315   O317    1.504   .     D
S315   O316    1.501   .     D
O318   H319    0.991   .     S
S320   O322    1.504   .     D
S320   O321    1.502   .     D
S320   O323    1.677   .     S
O323   H324    0.991   .     S
C325   O349    1.284   .     A
C325   C336    1.421   .     S
C325   O351    1.282   .     A
C326   O350    1.286   .     A
C326   C335    1.422   .     S
C326   O352    1.281   .     A
C327   O355    1.280   .     A
C327   O353    1.273   .     A
C327   C329    1.399   .     S
C328   O354    1.272   .     A
C328   O356    1.282   .     A
C328   C330    1.400   .     S
C329   C438    1.351   1_455 S
C329   S467    1.789   1_455 S
C330   C383    1.351   .     S
C330   S418    1.788   .     S
C331   S369    1.776   .     S
C331   C336    1.407   .     A
C332   C335    1.409   .     A
C332   S374    1.776   .     S
C332   C10     1.374   1_565 S
C333   C335    1.397   .     A
C333   H341    1.082   .     S
C333   C7      1.375   1_565 S
C334   C336    1.395   .     A
C334   H342    1.082   .     S
C337   H343    1.081   .     S
C337   N348    1.366   .     A
C337   C1311   1.415   1_554 S
C338   N347    1.366   .     A
C338   H344    1.081   .     S
C338   C826    1.415   .     S
C339   N347    1.366   .     A
C339   H345    1.081   .     S
C339   C823    1.415   .     S
C340   N348    1.366   .     A
C340   H346    1.081   .     S
C340   C1310   1.415   1_554 S
N347   Zn357   2.009   .     S
N348   Zn358   2.009   .     S
O349   Zn357   1.998   .     S
O350   Zn358   1.998   .     S
O351   Zn358   2.002   .     S
O352   Zn357   2.002   .     S
O353   Zn357   1.999   .     S
O354   Zn358   1.999   .     S
O355   Zn358   1.990   .     S
O356   Zn357   1.990   .     S
S359   O360    1.501   .     D
S359   O361    1.503   .     D
S359   C383    1.789   .     S
S359   O416    1.684   .     S
O362   H363    0.990   .     S
O362   S467    1.684   1_455 S
S364   O366    1.502   .     D
S364   O365    1.502   .     D
S364   C438    1.788   1_455 S
S364   O475    1.685   1_455 S
O367   H368    0.991   .     S
O367   S418    1.685   .     S
S369   O372    1.679   .     S
S369   O371    1.504   .     D
S369   O370    1.501   .     D
O372   H373    0.991   .     S
S374   O376    1.504   .     D
S374   O375    1.502   .     D
S374   O377    1.677   .     S
O377   H378    0.991   .     S
C379   O403    1.284   .     A
C379   C390    1.421   .     S
C379   O405    1.282   .     A
C380   O404    1.286   .     A
C380   C389    1.422   .     S
C380   O406    1.281   .     A
C381   O409    1.280   .     A
C381   O407    1.273   .     A
C381   C383    1.399   .     S
C382   O408    1.272   .     A
C382   O410    1.282   .     A
C382   C384    1.400   .     S
C384   C437    1.351   .     S
C384   S472    1.788   .     S
C385   S423    1.776   .     S
C385   C390    1.407   .     A
C386   C389    1.409   .     A
C386   S428    1.776   .     S
C386   C64     1.374   1_565 S
C387   C389    1.397   .     A
C387   H395    1.082   .     S
C387   C61     1.375   1_565 S
C388   C390    1.395   .     A
C388   H396    1.082   .     S
C391   H397    1.081   .     S
C391   N402    1.366   .     A
C391   C1365   1.415   1_554 S
C392   N401    1.366   .     A
C392   H398    1.081   .     S
C392   C880    1.415   .     S
C393   N401    1.366   .     A
C393   H399    1.081   .     S
C393   C877    1.415   .     S
C394   N402    1.366   .     A
C394   H400    1.081   .     S
C394   C1364   1.415   1_554 S
N401   Zn411   2.009   .     S
N402   Zn412   2.009   .     S
O403   Zn411   1.998   .     S
O404   Zn412   1.998   .     S
O405   Zn412   2.002   .     S
O406   Zn411   2.002   .     S
O407   Zn411   1.999   .     S
O408   Zn412   1.999   .     S
O409   Zn412   1.990   .     S
O410   Zn411   1.990   .     S
S413   O414    1.501   .     D
S413   O415    1.503   .     D
S413   C437    1.789   .     S
S413   O470    1.684   .     S
O416   H417    0.990   .     S
S418   O420    1.502   .     D
S418   O419    1.502   .     D
O421   H422    0.991   .     S
O421   S472    1.685   .     S
S423   O426    1.679   .     S
S423   O425    1.504   .     D
S423   O424    1.501   .     D
O426   H427    0.991   .     S
S428   O430    1.504   .     D
S428   O429    1.502   .     D
S428   O431    1.677   .     S
O431   H432    0.991   .     S
C433   O457    1.284   .     A
C433   C444    1.421   .     S
C433   O459    1.282   .     A
C434   O458    1.286   .     A
C434   C443    1.422   .     S
C434   O460    1.281   .     A
C435   O463    1.280   .     A
C435   O461    1.273   .     A
C435   C437    1.399   .     S
C436   O462    1.272   .     A
C436   O464    1.282   .     A
C436   C438    1.400   .     S
C438   C329    1.351   1_655 S
C438   S364    1.788   1_655 S
C439   S477    1.776   .     S
C439   C444    1.407   .     A
C440   C443    1.409   .     A
C440   S482    1.776   .     S
C440   C118    1.374   1_565 S
C441   C443    1.397   .     A
C441   H449    1.082   .     S
C441   C115    1.375   1_565 S
C442   C444    1.395   .     A
C442   H450    1.082   .     S
C445   H451    1.081   .     S
C445   N456    1.366   .     A
C445   C1419   1.415   1_554 S
C446   N455    1.366   .     A
C446   H452    1.081   .     S
C446   C934    1.415   .     S
C447   N455    1.366   .     A
C447   H453    1.081   .     S
C447   C931    1.415   .     S
C448   N456    1.366   .     A
C448   H454    1.081   .     S
C448   C1418   1.415   1_554 S
N455   Zn465   2.009   .     S
N456   Zn466   2.009   .     S
O457   Zn465   1.998   .     S
O458   Zn466   1.998   .     S
O459   Zn466   2.002   .     S
O460   Zn465   2.002   .     S
O461   Zn465   1.999   .     S
O462   Zn466   1.999   .     S
O463   Zn466   1.990   .     S
O464   Zn465   1.990   .     S
S467   O468    1.501   .     D
S467   O469    1.503   .     D
S467   C329    1.789   1_655 S
S467   O362    1.684   1_655 S
O470   H471    0.990   .     S
S472   O474    1.502   .     D
S472   O473    1.502   .     D
O475   H476    0.991   .     S
O475   S364    1.685   1_655 S
S477   O480    1.679   .     S
S477   O479    1.504   .     D
S477   O478    1.501   .     D
O480   H481    0.991   .     S
S482   O484    1.504   .     D
S482   O483    1.502   .     D
S482   O485    1.677   .     S
O485   H486    0.991   .     S
C487   O511    1.284   .     A
C487   C498    1.421   .     S
C487   O513    1.282   .     A
C488   O512    1.286   .     A
C488   C497    1.422   .     S
C488   O514    1.281   .     A
C489   O517    1.280   .     A
C489   O515    1.273   .     A
C489   C491    1.399   .     S
C490   O516    1.272   .     A
C490   O518    1.282   .     A
C490   C492    1.400   .     S
C491   C600    1.351   1_455 S
C491   S629    1.789   1_455 S
C492   C545    1.351   .     S
C492   S580    1.788   .     S
C493   S531    1.776   .     S
C493   C498    1.407   .     A
C493   C819    1.375   1_545 S
C494   C497    1.409   .     A
C494   S536    1.776   .     S
C494   C658    1.374   .     S
C495   C497    1.397   .     A
C495   H503    1.082   .     S
C495   C655    1.375   .     S
C496   C498    1.395   .     A
C496   H504    1.082   .     S
C496   C818    1.374   1_545 S
C499   H505    1.081   .     S
C499   N510    1.366   .     A
C500   N509    1.366   .     A
C500   H506    1.081   .     S
C500   C988    1.415   .     S
C501   N509    1.366   .     A
C501   H507    1.081   .     S
C501   C985    1.415   .     S
C502   N510    1.366   .     A
C502   H508    1.081   .     S
N509   Zn519   2.009   .     S
N510   Zn520   2.009   .     S
O511   Zn519   1.998   .     S
O512   Zn520   1.998   .     S
O513   Zn520   2.002   .     S
O514   Zn519   2.002   .     S
O515   Zn519   1.999   .     S
O516   Zn520   1.999   .     S
O517   Zn520   1.990   .     S
O518   Zn519   1.990   .     S
S521   O522    1.501   .     D
S521   O523    1.503   .     D
S521   C545    1.789   .     S
S521   O578    1.684   .     S
O524   H525    0.990   .     S
O524   S629    1.684   1_455 S
S526   O528    1.502   .     D
S526   O527    1.502   .     D
S526   C600    1.788   1_455 S
S526   O637    1.685   1_455 S
O529   H530    0.991   .     S
O529   S580    1.685   .     S
S531   O534    1.679   .     S
S531   O533    1.504   .     D
S531   O532    1.501   .     D
O534   H535    0.991   .     S
S536   O538    1.504   .     D
S536   O537    1.502   .     D
S536   O539    1.677   .     S
O539   H540    0.991   .     S
C541   O565    1.284   .     A
C541   C552    1.421   .     S
C541   O567    1.282   .     A
C542   O566    1.286   .     A
C542   C551    1.422   .     S
C542   O568    1.281   .     A
C543   O571    1.280   .     A
C543   O569    1.273   .     A
C543   C545    1.399   .     S
C544   O570    1.272   .     A
C544   O572    1.282   .     A
C544   C546    1.400   .     S
C546   C599    1.351   .     S
C546   S634    1.788   .     S
C547   S585    1.776   .     S
C547   C552    1.407   .     A
C547   C873    1.375   1_545 S
C548   C551    1.409   .     A
C548   S590    1.776   .     S
C548   C712    1.374   .     S
C549   C551    1.397   .     A
C549   H557    1.082   .     S
C549   C709    1.375   .     S
C550   C552    1.395   .     A
C550   H558    1.082   .     S
C550   C872    1.374   1_545 S
C553   H559    1.081   .     S
C553   N564    1.366   .     A
C554   N563    1.366   .     A
C554   H560    1.081   .     S
C554   C1042   1.415   .     S
C555   N563    1.366   .     A
C555   H561    1.081   .     S
C555   C1039   1.415   .     S
C556   N564    1.366   .     A
C556   H562    1.081   .     S
N563   Zn573   2.009   .     S
N564   Zn574   2.009   .     S
O565   Zn573   1.998   .     S
O566   Zn574   1.998   .     S
O567   Zn574   2.002   .     S
O568   Zn573   2.002   .     S
O569   Zn573   1.999   .     S
O570   Zn574   1.999   .     S
O571   Zn574   1.990   .     S
O572   Zn573   1.990   .     S
S575   O576    1.501   .     D
S575   O577    1.503   .     D
S575   C599    1.789   .     S
S575   O632    1.684   .     S
O578   H579    0.990   .     S
S580   O582    1.502   .     D
S580   O581    1.502   .     D
O583   H584    0.991   .     S
O583   S634    1.685   .     S
S585   O588    1.679   .     S
S585   O587    1.504   .     D
S585   O586    1.501   .     D
O588   H589    0.991   .     S
S590   O592    1.504   .     D
S590   O591    1.502   .     D
S590   O593    1.677   .     S
O593   H594    0.991   .     S
C595   O619    1.284   .     A
C595   C606    1.421   .     S
C595   O621    1.282   .     A
C596   O620    1.286   .     A
C596   C605    1.422   .     S
C596   O622    1.281   .     A
C597   O625    1.280   .     A
C597   O623    1.273   .     A
C597   C599    1.399   .     S
C598   O624    1.272   .     A
C598   O626    1.282   .     A
C598   C600    1.400   .     S
C600   C491    1.351   1_655 S
C600   S526    1.788   1_655 S
C601   S639    1.776   .     S
C601   C606    1.407   .     A
C601   C927    1.375   1_545 S
C602   C605    1.409   .     A
C602   S644    1.776   .     S
C602   C766    1.374   .     S
C603   C605    1.397   .     A
C603   H611    1.082   .     S
C603   C763    1.375   .     S
C604   C606    1.395   .     A
C604   H612    1.082   .     S
C604   C926    1.374   1_545 S
C607   H613    1.081   .     S
C607   N618    1.366   .     A
C608   N617    1.366   .     A
C608   H614    1.081   .     S
C608   C1096   1.415   .     S
C609   N617    1.366   .     A
C609   H615    1.081   .     S
C609   C1093   1.415   .     S
C610   N618    1.366   .     A
C610   H616    1.081   .     S
N617   Zn627   2.009   .     S
N618   Zn628   2.009   .     S
O619   Zn627   1.998   .     S
O620   Zn628   1.998   .     S
O621   Zn628   2.002   .     S
O622   Zn627   2.002   .     S
O623   Zn627   1.999   .     S
O624   Zn628   1.999   .     S
O625   Zn628   1.990   .     S
O626   Zn627   1.990   .     S
S629   O630    1.501   .     D
S629   O631    1.503   .     D
S629   C491    1.789   1_655 S
S629   O524    1.684   1_655 S
O632   H633    0.990   .     S
S634   O636    1.502   .     D
S634   O635    1.502   .     D
O637   H638    0.991   .     S
O637   S526    1.685   1_655 S
S639   O642    1.679   .     S
S639   O641    1.504   .     D
S639   O640    1.501   .     D
O642   H643    0.991   .     S
S644   O646    1.504   .     D
S644   O645    1.502   .     D
S644   O647    1.677   .     S
O647   H648    0.991   .     S
C649   O673    1.284   .     A
C649   C660    1.421   .     S
C649   O675    1.282   .     A
C650   O674    1.286   .     A
C650   C659    1.422   .     S
C650   O676    1.281   .     A
C651   O679    1.280   .     A
C651   O677    1.273   .     A
C651   C653    1.399   .     S
C652   O678    1.272   .     A
C652   O680    1.282   .     A
C652   C654    1.400   .     S
C653   C762    1.351   1_455 S
C653   S791    1.789   1_455 S
C654   C707    1.351   .     S
C654   S742    1.788   .     S
C655   S693    1.776   .     S
C655   C660    1.407   .     A
C656   C659    1.409   .     A
C656   S698    1.776   .     S
C656   C820    1.374   .     S
C657   C659    1.397   .     A
C657   H665    1.082   .     S
C657   C817    1.375   .     S
C658   C660    1.395   .     A
C658   H666    1.082   .     S
C661   H667    1.081   .     S
C661   N672    1.366   .     A
C662   N671    1.366   .     A
C662   H668    1.081   .     S
C662   C1150   1.415   .     S
C663   N671    1.366   .     A
C663   H669    1.081   .     S
C663   C1147   1.415   .     S
C664   N672    1.366   .     A
C664   H670    1.081   .     S
N671   Zn681   2.009   .     S
N672   Zn682   2.009   .     S
O673   Zn681   1.998   .     S
O674   Zn682   1.998   .     S
O675   Zn682   2.002   .     S
O676   Zn681   2.002   .     S
O677   Zn681   1.999   .     S
O678   Zn682   1.999   .     S
O679   Zn682   1.990   .     S
O680   Zn681   1.990   .     S
S683   O684    1.501   .     D
S683   O685    1.503   .     D
S683   C707    1.789   .     S
S683   O740    1.684   .     S
O686   H687    0.990   .     S
O686   S791    1.684   1_455 S
S688   O690    1.502   .     D
S688   O689    1.502   .     D
S688   C762    1.788   1_455 S
S688   O799    1.685   1_455 S
O691   H692    0.991   .     S
O691   S742    1.685   .     S
S693   O696    1.679   .     S
S693   O695    1.504   .     D
S693   O694    1.501   .     D
O696   H697    0.991   .     S
S698   O700    1.504   .     D
S698   O699    1.502   .     D
S698   O701    1.677   .     S
O701   H702    0.991   .     S
C703   O727    1.284   .     A
C703   C714    1.421   .     S
C703   O729    1.282   .     A
C704   O728    1.286   .     A
C704   C713    1.422   .     S
C704   O730    1.281   .     A
C705   O733    1.280   .     A
C705   O731    1.273   .     A
C705   C707    1.399   .     S
C706   O732    1.272   .     A
C706   O734    1.282   .     A
C706   C708    1.400   .     S
C708   C761    1.351   .     S
C708   S796    1.788   .     S
C709   S747    1.776   .     S
C709   C714    1.407   .     A
C710   C713    1.409   .     A
C710   S752    1.776   .     S
C710   C874    1.374   .     S
C711   C713    1.397   .     A
C711   H719    1.082   .     S
C711   C871    1.375   .     S
C712   C714    1.395   .     A
C712   H720    1.082   .     S
C715   H721    1.081   .     S
C715   N726    1.366   .     A
C716   N725    1.366   .     A
C716   H722    1.081   .     S
C716   C1204   1.415   .     S
C717   N725    1.366   .     A
C717   H723    1.081   .     S
C717   C1201   1.415   .     S
C718   N726    1.366   .     A
C718   H724    1.081   .     S
N725   Zn735   2.009   .     S
N726   Zn736   2.009   .     S
O727   Zn735   1.998   .     S
O728   Zn736   1.998   .     S
O729   Zn736   2.002   .     S
O730   Zn735   2.002   .     S
O731   Zn735   1.999   .     S
O732   Zn736   1.999   .     S
O733   Zn736   1.990   .     S
O734   Zn735   1.990   .     S
S737   O738    1.501   .     D
S737   O739    1.503   .     D
S737   C761    1.789   .     S
S737   O794    1.684   .     S
O740   H741    0.990   .     S
S742   O744    1.502   .     D
S742   O743    1.502   .     D
O745   H746    0.991   .     S
O745   S796    1.685   .     S
S747   O750    1.679   .     S
S747   O749    1.504   .     D
S747   O748    1.501   .     D
O750   H751    0.991   .     S
S752   O754    1.504   .     D
S752   O753    1.502   .     D
S752   O755    1.677   .     S
O755   H756    0.991   .     S
C757   O781    1.284   .     A
C757   C768    1.421   .     S
C757   O783    1.282   .     A
C758   O782    1.286   .     A
C758   C767    1.422   .     S
C758   O784    1.281   .     A
C759   O787    1.280   .     A
C759   O785    1.273   .     A
C759   C761    1.399   .     S
C760   O786    1.272   .     A
C760   O788    1.282   .     A
C760   C762    1.400   .     S
C762   C653    1.351   1_655 S
C762   S688    1.788   1_655 S
C763   S801    1.776   .     S
C763   C768    1.407   .     A
C764   C767    1.409   .     A
C764   S806    1.776   .     S
C764   C928    1.374   .     S
C765   C767    1.397   .     A
C765   H773    1.082   .     S
C765   C925    1.375   .     S
C766   C768    1.395   .     A
C766   H774    1.082   .     S
C769   H775    1.081   .     S
C769   N780    1.366   .     A
C770   N779    1.366   .     A
C770   H776    1.081   .     S
C770   C1258   1.415   .     S
C771   N779    1.366   .     A
C771   H777    1.081   .     S
C771   C1255   1.415   .     S
C772   N780    1.366   .     A
C772   H778    1.081   .     S
N779   Zn789   2.009   .     S
N780   Zn790   2.009   .     S
O781   Zn789   1.998   .     S
O782   Zn790   1.998   .     S
O783   Zn790   2.002   .     S
O784   Zn789   2.002   .     S
O785   Zn789   1.999   .     S
O786   Zn790   1.999   .     S
O787   Zn790   1.990   .     S
O788   Zn789   1.990   .     S
S791   O792    1.501   .     D
S791   O793    1.503   .     D
S791   C653    1.789   1_655 S
S791   O686    1.684   1_655 S
O794   H795    0.990   .     S
S796   O798    1.502   .     D
S796   O797    1.502   .     D
O799   H800    0.991   .     S
O799   S688    1.685   1_655 S
S801   O804    1.679   .     S
S801   O803    1.504   .     D
S801   O802    1.501   .     D
O804   H805    0.991   .     S
S806   O808    1.504   .     D
S806   O807    1.502   .     D
S806   O809    1.677   .     S
O809   H810    0.991   .     S
C811   O835    1.284   .     A
C811   C822    1.421   .     S
C811   O837    1.282   .     A
C812   O836    1.286   .     A
C812   C821    1.422   .     S
C812   O838    1.281   .     A
C813   O841    1.280   .     A
C813   O839    1.273   .     A
C813   C815    1.399   .     S
C814   O840    1.272   .     A
C814   O842    1.282   .     A
C814   C816    1.400   .     S
C815   C924    1.351   1_455 S
C815   S953    1.789   1_455 S
C816   C869    1.351   .     S
C816   S904    1.788   .     S
C817   S855    1.776   .     S
C817   C822    1.407   .     A
C818   C821    1.409   .     A
C818   S860    1.776   .     S
C818   C496    1.374   1_565 S
C819   C821    1.397   .     A
C819   H827    1.082   .     S
C819   C493    1.375   1_565 S
C820   C822    1.395   .     A
C820   H828    1.082   .     S
C823   H829    1.081   .     S
C823   N834    1.366   .     A
C824   N833    1.366   .     A
C824   H830    1.081   .     S
C824   C1312   1.415   .     S
C825   N833    1.366   .     A
C825   H831    1.081   .     S
C825   C1309   1.415   .     S
C826   N834    1.366   .     A
C826   H832    1.081   .     S
N833   Zn843   2.009   .     S
N834   Zn844   2.009   .     S
O835   Zn843   1.998   .     S
O836   Zn844   1.998   .     S
O837   Zn844   2.002   .     S
O838   Zn843   2.002   .     S
O839   Zn843   1.999   .     S
O840   Zn844   1.999   .     S
O841   Zn844   1.990   .     S
O842   Zn843   1.990   .     S
S845   O846    1.501   .     D
S845   O847    1.503   .     D
S845   C869    1.789   .     S
S845   O902    1.684   .     S
O848   H849    0.990   .     S
O848   S953    1.684   1_455 S
S850   O852    1.502   .     D
S850   O851    1.502   .     D
S850   C924    1.788   1_455 S
S850   O961    1.685   1_455 S
O853   H854    0.991   .     S
O853   S904    1.685   .     S
S855   O858    1.679   .     S
S855   O857    1.504   .     D
S855   O856    1.501   .     D
O858   H859    0.991   .     S
S860   O862    1.504   .     D
S860   O861    1.502   .     D
S860   O863    1.677   .     S
O863   H864    0.991   .     S
C865   O889    1.284   .     A
C865   C876    1.421   .     S
C865   O891    1.282   .     A
C866   O890    1.286   .     A
C866   C875    1.422   .     S
C866   O892    1.281   .     A
C867   O895    1.280   .     A
C867   O893    1.273   .     A
C867   C869    1.399   .     S
C868   O894    1.272   .     A
C868   O896    1.282   .     A
C868   C870    1.400   .     S
C870   C923    1.351   .     S
C870   S958    1.788   .     S
C871   S909    1.776   .     S
C871   C876    1.407   .     A
C872   C875    1.409   .     A
C872   S914    1.776   .     S
C872   C550    1.374   1_565 S
C873   C875    1.397   .     A
C873   H881    1.082   .     S
C873   C547    1.375   1_565 S
C874   C876    1.395   .     A
C874   H882    1.082   .     S
C877   H883    1.081   .     S
C877   N888    1.366   .     A
C878   N887    1.366   .     A
C878   H884    1.081   .     S
C878   C1366   1.415   .     S
C879   N887    1.366   .     A
C879   H885    1.081   .     S
C879   C1363   1.415   .     S
C880   N888    1.366   .     A
C880   H886    1.081   .     S
N887   Zn897   2.009   .     S
N888   Zn898   2.009   .     S
O889   Zn897   1.998   .     S
O890   Zn898   1.998   .     S
O891   Zn898   2.002   .     S
O892   Zn897   2.002   .     S
O893   Zn897   1.999   .     S
O894   Zn898   1.999   .     S
O895   Zn898   1.990   .     S
O896   Zn897   1.990   .     S
S899   O900    1.501   .     D
S899   O901    1.503   .     D
S899   C923    1.789   .     S
S899   O956    1.684   .     S
O902   H903    0.990   .     S
S904   O906    1.502   .     D
S904   O905    1.502   .     D
O907   H908    0.991   .     S
O907   S958    1.685   .     S
S909   O912    1.679   .     S
S909   O911    1.504   .     D
S909   O910    1.501   .     D
O912   H913    0.991   .     S
S914   O916    1.504   .     D
S914   O915    1.502   .     D
S914   O917    1.677   .     S
O917   H918    0.991   .     S
C919   O943    1.284   .     A
C919   C930    1.421   .     S
C919   O945    1.282   .     A
C920   O944    1.286   .     A
C920   C929    1.422   .     S
C920   O946    1.281   .     A
C921   O949    1.280   .     A
C921   O947    1.273   .     A
C921   C923    1.399   .     S
C922   O948    1.272   .     A
C922   O950    1.282   .     A
C922   C924    1.400   .     S
C924   C815    1.351   1_655 S
C924   S850    1.788   1_655 S
C925   S963    1.776   .     S
C925   C930    1.407   .     A
C926   C929    1.409   .     A
C926   S968    1.776   .     S
C926   C604    1.374   1_565 S
C927   C929    1.397   .     A
C927   H935    1.082   .     S
C927   C601    1.375   1_565 S
C928   C930    1.395   .     A
C928   H936    1.082   .     S
C931   H937    1.081   .     S
C931   N942    1.366   .     A
C932   N941    1.366   .     A
C932   H938    1.081   .     S
C932   C1420   1.415   .     S
C933   N941    1.366   .     A
C933   H939    1.081   .     S
C933   C1417   1.415   .     S
C934   N942    1.366   .     A
C934   H940    1.081   .     S
N941   Zn951   2.009   .     S
N942   Zn952   2.009   .     S
O943   Zn951   1.998   .     S
O944   Zn952   1.998   .     S
O945   Zn952   2.002   .     S
O946   Zn951   2.002   .     S
O947   Zn951   1.999   .     S
O948   Zn952   1.999   .     S
O949   Zn952   1.990   .     S
O950   Zn951   1.990   .     S
S953   O954    1.501   .     D
S953   O955    1.503   .     D
S953   C815    1.789   1_655 S
S953   O848    1.684   1_655 S
O956   H957    0.990   .     S
S958   O960    1.502   .     D
S958   O959    1.502   .     D
O961   H962    0.991   .     S
O961   S850    1.685   1_655 S
S963   O966    1.679   .     S
S963   O965    1.504   .     D
S963   O964    1.501   .     D
O966   H967    0.991   .     S
S968   O970    1.504   .     D
S968   O969    1.502   .     D
S968   O971    1.677   .     S
O971   H972    0.991   .     S
C973   O997    1.284   .     A
C973   C984    1.421   .     S
C973   O999    1.282   .     A
C974   O998    1.286   .     A
C974   C983    1.422   .     S
C974   O1000   1.281   .     A
C975   O1003   1.280   .     A
C975   O1001   1.273   .     A
C975   C977    1.399   .     S
C976   O1002   1.272   .     A
C976   O1004   1.282   .     A
C976   C978    1.400   .     S
C977   C1086   1.351   1_455 S
C977   S1115   1.789   1_455 S
C978   C1031   1.351   .     S
C978   S1066   1.788   .     S
C979   S1017   1.776   .     S
C979   C984    1.407   .     A
C979   C1305   1.375   1_545 S
C980   C983    1.409   .     A
C980   S1022   1.776   .     S
C980   C1144   1.374   .     S
C981   C983    1.397   .     A
C981   H989    1.082   .     S
C981   C1141   1.375   .     S
C982   C984    1.395   .     A
C982   H990    1.082   .     S
C982   C1304   1.374   1_545 S
C985   H991    1.081   .     S
C985   N996    1.366   .     A
C986   N995    1.366   .     A
C986   H992    1.081   .     S
C986   C16     1.415   1_556 S
C987   N995    1.366   .     A
C987   H993    1.081   .     S
C987   C13     1.415   1_556 S
C988   N996    1.366   .     A
C988   H994    1.081   .     S
N995   Zn1005  2.009   .     S
N996   Zn1006  2.009   .     S
O997   Zn1005  1.998   .     S
O998   Zn1006  1.998   .     S
O999   Zn1006  2.002   .     S
O1000  Zn1005  2.002   .     S
O1001  Zn1005  1.999   .     S
O1002  Zn1006  1.999   .     S
O1003  Zn1006  1.990   .     S
O1004  Zn1005  1.990   .     S
S1007  O1008   1.501   .     D
S1007  O1009   1.503   .     D
S1007  C1031   1.789   .     S
S1007  O1064   1.684   .     S
O1010  H1011   0.990   .     S
O1010  S1115   1.684   1_455 S
S1012  O1014   1.502   .     D
S1012  O1013   1.502   .     D
S1012  C1086   1.788   1_455 S
S1012  O1123   1.685   1_455 S
O1015  H1016   0.991   .     S
O1015  S1066   1.685   .     S
S1017  O1020   1.679   .     S
S1017  O1019   1.504   .     D
S1017  O1018   1.501   .     D
O1020  H1021   0.991   .     S
S1022  O1024   1.504   .     D
S1022  O1023   1.502   .     D
S1022  O1025   1.677   .     S
O1025  H1026   0.991   .     S
C1027  O1051   1.284   .     A
C1027  C1038   1.421   .     S
C1027  O1053   1.282   .     A
C1028  O1052   1.286   .     A
C1028  C1037   1.422   .     S
C1028  O1054   1.281   .     A
C1029  O1057   1.280   .     A
C1029  O1055   1.273   .     A
C1029  C1031   1.399   .     S
C1030  O1056   1.272   .     A
C1030  O1058   1.282   .     A
C1030  C1032   1.400   .     S
C1032  C1085   1.351   .     S
C1032  S1120   1.788   .     S
C1033  S1071   1.776   .     S
C1033  C1038   1.407   .     A
C1033  C1359   1.375   1_545 S
C1034  C1037   1.409   .     A
C1034  S1076   1.776   .     S
C1034  C1198   1.374   .     S
C1035  C1037   1.397   .     A
C1035  H1043   1.082   .     S
C1035  C1195   1.375   .     S
C1036  C1038   1.395   .     A
C1036  H1044   1.082   .     S
C1036  C1358   1.374   1_545 S
C1039  H1045   1.081   .     S
C1039  N1050   1.366   .     A
C1040  N1049   1.366   .     A
C1040  H1046   1.081   .     S
C1040  C70     1.415   1_556 S
C1041  N1049   1.366   .     A
C1041  H1047   1.081   .     S
C1041  C67     1.415   1_556 S
C1042  N1050   1.366   .     A
C1042  H1048   1.081   .     S
N1049  Zn1059  2.009   .     S
N1050  Zn1060  2.009   .     S
O1051  Zn1059  1.998   .     S
O1052  Zn1060  1.998   .     S
O1053  Zn1060  2.002   .     S
O1054  Zn1059  2.002   .     S
O1055  Zn1059  1.999   .     S
O1056  Zn1060  1.999   .     S
O1057  Zn1060  1.990   .     S
O1058  Zn1059  1.990   .     S
S1061  O1062   1.501   .     D
S1061  O1063   1.503   .     D
S1061  C1085   1.789   .     S
S1061  O1118   1.684   .     S
O1064  H1065   0.990   .     S
S1066  O1068   1.502   .     D
S1066  O1067   1.502   .     D
O1069  H1070   0.991   .     S
O1069  S1120   1.685   .     S
S1071  O1074   1.679   .     S
S1071  O1073   1.504   .     D
S1071  O1072   1.501   .     D
O1074  H1075   0.991   .     S
S1076  O1078   1.504   .     D
S1076  O1077   1.502   .     D
S1076  O1079   1.677   .     S
O1079  H1080   0.991   .     S
C1081  O1105   1.284   .     A
C1081  C1092   1.421   .     S
C1081  O1107   1.282   .     A
C1082  O1106   1.286   .     A
C1082  C1091   1.422   .     S
C1082  O1108   1.281   .     A
C1083  O1111   1.280   .     A
C1083  O1109   1.273   .     A
C1083  C1085   1.399   .     S
C1084  O1110   1.272   .     A
C1084  O1112   1.282   .     A
C1084  C1086   1.400   .     S
C1086  C977    1.351   1_655 S
C1086  S1012   1.788   1_655 S
C1087  S1125   1.776   .     S
C1087  C1092   1.407   .     A
C1087  C1413   1.375   1_545 S
C1088  C1091   1.409   .     A
C1088  S1130   1.776   .     S
C1088  C1252   1.374   .     S
C1089  C1091   1.397   .     A
C1089  H1097   1.082   .     S
C1089  C1249   1.375   .     S
C1090  C1092   1.395   .     A
C1090  H1098   1.082   .     S
C1090  C1412   1.374   1_545 S
C1093  H1099   1.081   .     S
C1093  N1104   1.366   .     A
C1094  N1103   1.366   .     A
C1094  H1100   1.081   .     S
C1094  C124    1.415   1_556 S
C1095  N1103   1.366   .     A
C1095  H1101   1.081   .     S
C1095  C121    1.415   1_556 S
C1096  N1104   1.366   .     A
C1096  H1102   1.081   .     S
N1103  Zn1113  2.009   .     S
N1104  Zn1114  2.009   .     S
O1105  Zn1113  1.998   .     S
O1106  Zn1114  1.998   .     S
O1107  Zn1114  2.002   .     S
O1108  Zn1113  2.002   .     S
O1109  Zn1113  1.999   .     S
O1110  Zn1114  1.999   .     S
O1111  Zn1114  1.990   .     S
O1112  Zn1113  1.990   .     S
S1115  O1116   1.501   .     D
S1115  O1117   1.503   .     D
S1115  C977    1.789   1_655 S
S1115  O1010   1.684   1_655 S
O1118  H1119   0.990   .     S
S1120  O1122   1.502   .     D
S1120  O1121   1.502   .     D
O1123  H1124   0.991   .     S
O1123  S1012   1.685   1_655 S
S1125  O1128   1.679   .     S
S1125  O1127   1.504   .     D
S1125  O1126   1.501   .     D
O1128  H1129   0.991   .     S
S1130  O1132   1.504   .     D
S1130  O1131   1.502   .     D
S1130  O1133   1.677   .     S
O1133  H1134   0.991   .     S
C1135  O1159   1.284   .     A
C1135  C1146   1.421   .     S
C1135  O1161   1.282   .     A
C1136  O1160   1.286   .     A
C1136  C1145   1.422   .     S
C1136  O1162   1.281   .     A
C1137  O1165   1.280   .     A
C1137  O1163   1.273   .     A
C1137  C1139   1.399   .     S
C1138  O1164   1.272   .     A
C1138  O1166   1.282   .     A
C1138  C1140   1.400   .     S
C1139  C1248   1.351   1_455 S
C1139  S1277   1.789   1_455 S
C1140  C1193   1.351   .     S
C1140  S1228   1.788   .     S
C1141  S1179   1.776   .     S
C1141  C1146   1.407   .     A
C1142  C1145   1.409   .     A
C1142  S1184   1.776   .     S
C1142  C1306   1.374   .     S
C1143  C1145   1.397   .     A
C1143  H1151   1.082   .     S
C1143  C1303   1.375   .     S
C1144  C1146   1.395   .     A
C1144  H1152   1.082   .     S
C1147  H1153   1.081   .     S
C1147  N1158   1.366   .     A
C1148  N1157   1.366   .     A
C1148  H1154   1.081   .     S
C1148  C178    1.415   1_556 S
C1149  N1157   1.366   .     A
C1149  H1155   1.081   .     S
C1149  C175    1.415   1_556 S
C1150  N1158   1.366   .     A
C1150  H1156   1.081   .     S
N1157  Zn1167  2.009   .     S
N1158  Zn1168  2.009   .     S
O1159  Zn1167  1.998   .     S
O1160  Zn1168  1.998   .     S
O1161  Zn1168  2.002   .     S
O1162  Zn1167  2.002   .     S
O1163  Zn1167  1.999   .     S
O1164  Zn1168  1.999   .     S
O1165  Zn1168  1.990   .     S
O1166  Zn1167  1.990   .     S
S1169  O1170   1.501   .     D
S1169  O1171   1.503   .     D
S1169  C1193   1.789   .     S
S1169  O1226   1.684   .     S
O1172  H1173   0.990   .     S
O1172  S1277   1.684   1_455 S
S1174  O1176   1.502   .     D
S1174  O1175   1.502   .     D
S1174  C1248   1.788   1_455 S
S1174  O1285   1.685   1_455 S
O1177  H1178   0.991   .     S
O1177  S1228   1.685   .     S
S1179  O1182   1.679   .     S
S1179  O1181   1.504   .     D
S1179  O1180   1.501   .     D
O1182  H1183   0.991   .     S
S1184  O1186   1.504   .     D
S1184  O1185   1.502   .     D
S1184  O1187   1.677   .     S
O1187  H1188   0.991   .     S
C1189  O1213   1.284   .     A
C1189  C1200   1.421   .     S
C1189  O1215   1.282   .     A
C1190  O1214   1.286   .     A
C1190  C1199   1.422   .     S
C1190  O1216   1.281   .     A
C1191  O1219   1.280   .     A
C1191  O1217   1.273   .     A
C1191  C1193   1.399   .     S
C1192  O1218   1.272   .     A
C1192  O1220   1.282   .     A
C1192  C1194   1.400   .     S
C1194  C1247   1.351   .     S
C1194  S1282   1.788   .     S
C1195  S1233   1.776   .     S
C1195  C1200   1.407   .     A
C1196  C1199   1.409   .     A
C1196  S1238   1.776   .     S
C1196  C1360   1.374   .     S
C1197  C1199   1.397   .     A
C1197  H1205   1.082   .     S
C1197  C1357   1.375   .     S
C1198  C1200   1.395   .     A
C1198  H1206   1.082   .     S
C1201  H1207   1.081   .     S
C1201  N1212   1.366   .     A
C1202  N1211   1.366   .     A
C1202  H1208   1.081   .     S
C1202  C232    1.415   1_556 S
C1203  N1211   1.366   .     A
C1203  H1209   1.081   .     S
C1203  C229    1.415   1_556 S
C1204  N1212   1.366   .     A
C1204  H1210   1.081   .     S
N1211  Zn1221  2.009   .     S
N1212  Zn1222  2.009   .     S
O1213  Zn1221  1.998   .     S
O1214  Zn1222  1.998   .     S
O1215  Zn1222  2.002   .     S
O1216  Zn1221  2.002   .     S
O1217  Zn1221  1.999   .     S
O1218  Zn1222  1.999   .     S
O1219  Zn1222  1.990   .     S
O1220  Zn1221  1.990   .     S
S1223  O1224   1.501   .     D
S1223  O1225   1.503   .     D
S1223  C1247   1.789   .     S
S1223  O1280   1.684   .     S
O1226  H1227   0.990   .     S
S1228  O1230   1.502   .     D
S1228  O1229   1.502   .     D
O1231  H1232   0.991   .     S
O1231  S1282   1.685   .     S
S1233  O1236   1.679   .     S
S1233  O1235   1.504   .     D
S1233  O1234   1.501   .     D
O1236  H1237   0.991   .     S
S1238  O1240   1.504   .     D
S1238  O1239   1.502   .     D
S1238  O1241   1.677   .     S
O1241  H1242   0.991   .     S
C1243  O1267   1.284   .     A
C1243  C1254   1.421   .     S
C1243  O1269   1.282   .     A
C1244  O1268   1.286   .     A
C1244  C1253   1.422   .     S
C1244  O1270   1.281   .     A
C1245  O1273   1.280   .     A
C1245  O1271   1.273   .     A
C1245  C1247   1.399   .     S
C1246  O1272   1.272   .     A
C1246  O1274   1.282   .     A
C1246  C1248   1.400   .     S
C1248  C1139   1.351   1_655 S
C1248  S1174   1.788   1_655 S
C1249  S1287   1.776   .     S
C1249  C1254   1.407   .     A
C1250  C1253   1.409   .     A
C1250  S1292   1.776   .     S
C1250  C1414   1.374   .     S
C1251  C1253   1.397   .     A
C1251  H1259   1.082   .     S
C1251  C1411   1.375   .     S
C1252  C1254   1.395   .     A
C1252  H1260   1.082   .     S
C1255  H1261   1.081   .     S
C1255  N1266   1.366   .     A
C1256  N1265   1.366   .     A
C1256  H1262   1.081   .     S
C1256  C286    1.415   1_556 S
C1257  N1265   1.366   .     A
C1257  H1263   1.081   .     S
C1257  C283    1.415   1_556 S
C1258  N1266   1.366   .     A
C1258  H1264   1.081   .     S
N1265  Zn1275  2.009   .     S
N1266  Zn1276  2.009   .     S
O1267  Zn1275  1.998   .     S
O1268  Zn1276  1.998   .     S
O1269  Zn1276  2.002   .     S
O1270  Zn1275  2.002   .     S
O1271  Zn1275  1.999   .     S
O1272  Zn1276  1.999   .     S
O1273  Zn1276  1.990   .     S
O1274  Zn1275  1.990   .     S
S1277  O1278   1.501   .     D
S1277  O1279   1.503   .     D
S1277  C1139   1.789   1_655 S
S1277  O1172   1.684   1_655 S
O1280  H1281   0.990   .     S
S1282  O1284   1.502   .     D
S1282  O1283   1.502   .     D
O1285  H1286   0.991   .     S
O1285  S1174   1.685   1_655 S
S1287  O1290   1.679   .     S
S1287  O1289   1.504   .     D
S1287  O1288   1.501   .     D
O1290  H1291   0.991   .     S
S1292  O1294   1.504   .     D
S1292  O1293   1.502   .     D
S1292  O1295   1.677   .     S
O1295  H1296   0.991   .     S
C1297  O1321   1.284   .     A
C1297  C1308   1.421   .     S
C1297  O1323   1.282   .     A
C1298  O1322   1.286   .     A
C1298  C1307   1.422   .     S
C1298  O1324   1.281   .     A
C1299  O1327   1.280   .     A
C1299  O1325   1.273   .     A
C1299  C1301   1.399   .     S
C1300  O1326   1.272   .     A
C1300  O1328   1.282   .     A
C1300  C1302   1.400   .     S
C1301  C1410   1.351   1_455 S
C1301  S1439   1.789   1_455 S
C1302  C1355   1.351   .     S
C1302  S1390   1.788   .     S
C1303  S1341   1.776   .     S
C1303  C1308   1.407   .     A
C1304  C1307   1.409   .     A
C1304  S1346   1.776   .     S
C1304  C982    1.374   1_565 S
C1305  C1307   1.397   .     A
C1305  H1313   1.082   .     S
C1305  C979    1.375   1_565 S
C1306  C1308   1.395   .     A
C1306  H1314   1.082   .     S
C1309  H1315   1.081   .     S
C1309  N1320   1.366   .     A
C1310  N1319   1.366   .     A
C1310  H1316   1.081   .     S
C1310  C340    1.415   1_556 S
C1311  N1319   1.366   .     A
C1311  H1317   1.081   .     S
C1311  C337    1.415   1_556 S
C1312  N1320   1.366   .     A
C1312  H1318   1.081   .     S
N1319  Zn1329  2.009   .     S
N1320  Zn1330  2.009   .     S
O1321  Zn1329  1.998   .     S
O1322  Zn1330  1.998   .     S
O1323  Zn1330  2.002   .     S
O1324  Zn1329  2.002   .     S
O1325  Zn1329  1.999   .     S
O1326  Zn1330  1.999   .     S
O1327  Zn1330  1.990   .     S
O1328  Zn1329  1.990   .     S
S1331  O1332   1.501   .     D
S1331  O1333   1.503   .     D
S1331  C1355   1.789   .     S
S1331  O1388   1.684   .     S
O1334  H1335   0.990   .     S
O1334  S1439   1.684   1_455 S
S1336  O1338   1.502   .     D
S1336  O1337   1.502   .     D
S1336  C1410   1.788   1_455 S
S1336  O1447   1.685   1_455 S
O1339  H1340   0.991   .     S
O1339  S1390   1.685   .     S
S1341  O1344   1.679   .     S
S1341  O1343   1.504   .     D
S1341  O1342   1.501   .     D
O1344  H1345   0.991   .     S
S1346  O1348   1.504   .     D
S1346  O1347   1.502   .     D
S1346  O1349   1.677   .     S
O1349  H1350   0.991   .     S
C1351  O1375   1.284   .     A
C1351  C1362   1.421   .     S
C1351  O1377   1.282   .     A
C1352  O1376   1.286   .     A
C1352  C1361   1.422   .     S
C1352  O1378   1.281   .     A
C1353  O1381   1.280   .     A
C1353  O1379   1.273   .     A
C1353  C1355   1.399   .     S
C1354  O1380   1.272   .     A
C1354  O1382   1.282   .     A
C1354  C1356   1.400   .     S
C1356  C1409   1.351   .     S
C1356  S1444   1.788   .     S
C1357  S1395   1.776   .     S
C1357  C1362   1.407   .     A
C1358  C1361   1.409   .     A
C1358  S1400   1.776   .     S
C1358  C1036   1.374   1_565 S
C1359  C1361   1.397   .     A
C1359  H1367   1.082   .     S
C1359  C1033   1.375   1_565 S
C1360  C1362   1.395   .     A
C1360  H1368   1.082   .     S
C1363  H1369   1.081   .     S
C1363  N1374   1.366   .     A
C1364  N1373   1.366   .     A
C1364  H1370   1.081   .     S
C1364  C394    1.415   1_556 S
C1365  N1373   1.366   .     A
C1365  H1371   1.081   .     S
C1365  C391    1.415   1_556 S
C1366  N1374   1.366   .     A
C1366  H1372   1.081   .     S
N1373  Zn1383  2.009   .     S
N1374  Zn1384  2.009   .     S
O1375  Zn1383  1.998   .     S
O1376  Zn1384  1.998   .     S
O1377  Zn1384  2.002   .     S
O1378  Zn1383  2.002   .     S
O1379  Zn1383  1.999   .     S
O1380  Zn1384  1.999   .     S
O1381  Zn1384  1.990   .     S
O1382  Zn1383  1.990   .     S
S1385  O1386   1.501   .     D
S1385  O1387   1.503   .     D
S1385  C1409   1.789   .     S
S1385  O1442   1.684   .     S
O1388  H1389   0.990   .     S
S1390  O1392   1.502   .     D
S1390  O1391   1.502   .     D
O1393  H1394   0.991   .     S
O1393  S1444   1.685   .     S
S1395  O1398   1.679   .     S
S1395  O1397   1.504   .     D
S1395  O1396   1.501   .     D
O1398  H1399   0.991   .     S
S1400  O1402   1.504   .     D
S1400  O1401   1.502   .     D
S1400  O1403   1.677   .     S
O1403  H1404   0.991   .     S
C1405  O1429   1.284   .     A
C1405  C1416   1.421   .     S
C1405  O1431   1.282   .     A
C1406  O1430   1.286   .     A
C1406  C1415   1.422   .     S
C1406  O1432   1.281   .     A
C1407  O1435   1.280   .     A
C1407  O1433   1.273   .     A
C1407  C1409   1.399   .     S
C1408  O1434   1.272   .     A
C1408  O1436   1.282   .     A
C1408  C1410   1.400   .     S
C1410  C1301   1.351   1_655 S
C1410  S1336   1.788   1_655 S
C1411  S1449   1.776   .     S
C1411  C1416   1.407   .     A
C1412  C1415   1.409   .     A
C1412  S1454   1.776   .     S
C1412  C1090   1.374   1_565 S
C1413  C1415   1.397   .     A
C1413  H1421   1.082   .     S
C1413  C1087   1.375   1_565 S
C1414  C1416   1.395   .     A
C1414  H1422   1.082   .     S
C1417  H1423   1.081   .     S
C1417  N1428   1.366   .     A
C1418  N1427   1.366   .     A
C1418  H1424   1.081   .     S
C1418  C448    1.415   1_556 S
C1419  N1427   1.366   .     A
C1419  H1425   1.081   .     S
C1419  C445    1.415   1_556 S
C1420  N1428   1.366   .     A
C1420  H1426   1.081   .     S
N1427  Zn1437  2.009   .     S
N1428  Zn1438  2.009   .     S
O1429  Zn1437  1.998   .     S
O1430  Zn1438  1.998   .     S
O1431  Zn1438  2.002   .     S
O1432  Zn1437  2.002   .     S
O1433  Zn1437  1.999   .     S
O1434  Zn1438  1.999   .     S
O1435  Zn1438  1.990   .     S
O1436  Zn1437  1.990   .     S
S1439  O1440   1.501   .     D
S1439  O1441   1.503   .     D
S1439  C1301   1.789   1_655 S
S1439  O1334   1.684   1_655 S
O1442  H1443   0.990   .     S
S1444  O1446   1.502   .     D
S1444  O1445   1.502   .     D
O1447  H1448   0.991   .     S
O1447  S1336   1.685   1_655 S
S1449  O1452   1.679   .     S
S1449  O1451   1.504   .     D
S1449  O1450   1.501   .     D
O1452  H1453   0.991   .     S
S1454  O1456   1.504   .     D
S1454  O1455   1.502   .     D
S1454  O1457   1.677   .     S
O1457  H1458   0.991   .     S
