data_str_m3_o1_o18_pcu_sym.163
_audit_creation_date              2020-01-03
_audit_creation_method            'Materials Studio'
_symmetry_space_group_name_H-M    'P1'
_symmetry_Int_Tables_number       1
_symmetry_cell_setting            triclinic
loop_
_symmetry_equiv_pos_as_xyz
  x,y,z
_cell_length_a                    29.5298
_cell_length_b                    32.1451
_cell_length_c                    31.1416
_cell_angle_alpha                 90.0670
_cell_angle_beta                  68.5790
_cell_angle_gamma                 90.0115
loop_
_atom_site_label
_atom_site_type_symbol
_atom_site_fract_x
_atom_site_fract_y
_atom_site_fract_z
_atom_site_U_iso_or_equiv
_atom_site_adp_type
_atom_site_occupancy
C1     C     0.16666   0.24671   0.25006   0.00000  Uiso   1.00
C2     C     0.16664   0.08663   0.25002   0.00000  Uiso   1.00
C3     C     0.12040   0.20912   0.04384   0.00000  Uiso   1.00
C4     C     0.23054   0.17935   0.44580   0.00000  Uiso   1.00
C5     C     0.08830   0.21764   0.02158   0.00000  Uiso   1.00
C6     C     0.26457   0.17768   0.46723   0.00000  Uiso   1.00
C7     C     0.20300   0.31205   0.25996   0.00000  Uiso   1.00
C8     C     0.13018   0.02129   0.24037   0.00000  Uiso   1.00
C9     C     0.20300   0.02134   0.25994   0.00000  Uiso   1.00
C10    C     0.13017   0.31200   0.24040   0.00000  Uiso   1.00
C11    C     0.16661   0.04248   0.25011   0.00000  Uiso   1.00
C12    C     0.16661   0.29085   0.25015   0.00000  Uiso   1.00
C13    C     0.31659   0.13426   0.23123   0.00000  Uiso   1.00
C14    C     0.01665   0.19897   0.26902   0.00000  Uiso   1.00
C15    C     0.03108   0.13417   0.23149   0.00000  Uiso   1.00
C16    C     0.30201   0.19892   0.26908   0.00000  Uiso   1.00
C17    C     0.13656   0.16680   0.33776   0.00000  Uiso   1.00
C18    C     0.19678   0.16585   0.16202   0.00000  Uiso   1.00
C19    C     0.11912   0.17343   0.38744   0.00000  Uiso   1.00
C20    C     0.21503   0.16718   0.11138   0.00000  Uiso   1.00
C21    C     0.06619   0.21101   0.45420   0.00000  Uiso   1.00
C22    C     0.28193   0.17182   0.03765   0.00000  Uiso   1.00
C23    C     0.07691   0.19685   0.40930   0.00000  Uiso   1.00
C24    C     0.26518   0.16936   0.08566   0.00000  Uiso   1.00
C25    C     0.15028   0.16370   0.41085   0.00000  Uiso   1.00
C26    C     0.18194   0.16825   0.08828   0.00000  Uiso   1.00
C27    C     0.14419   0.18407   0.45246   0.00000  Uiso   1.00
C28    C     0.19848   0.17961   0.04170   0.00000  Uiso   1.00
C29    C     0.09934   0.20444   0.47619   0.00000  Uiso   1.00
C30    C     0.24877   0.17673   0.01534   0.00000  Uiso   1.00
C31    C     0.18035   0.18363   0.47220   0.00000  Uiso   1.00
C32    C     0.16590   0.19029   0.01982   0.00000  Uiso   1.00
H33    H     0.05415   0.23310   0.04038   0.00000  Uiso   1.00
H34    H     0.30288   0.17536   0.44625   0.00000  Uiso   1.00
H35    H     0.29141   0.16765   0.10246   0.00000  Uiso   1.00
H36    H     0.05290   0.20497   0.39136   0.00000  Uiso   1.00
H37    H     0.03287   0.22827   0.47111   0.00000  Uiso   1.00
H38    H     0.32061   0.17014   0.01818   0.00000  Uiso   1.00
H39    H     0.11038   0.21899   0.07936   0.00000  Uiso   1.00
H40    H     0.24405   0.17953   0.40850   0.00000  Uiso   1.00
H41    H     0.23114   0.29582   0.26790   0.00000  Uiso   1.00
H42    H     0.10204   0.03750   0.23242   0.00000  Uiso   1.00
H43    H     0.23114   0.03761   0.26787   0.00000  Uiso   1.00
H44    H     0.10201   0.29574   0.23249   0.00000  Uiso   1.00
H45    H     0.30433   0.10838   0.21608   0.00000  Uiso   1.00
H46    H     0.02887   0.22478   0.28430   0.00000  Uiso   1.00
H47    H     0.05488   0.10813   0.21671   0.00000  Uiso   1.00
H48    H     0.27798   0.22469   0.28445   0.00000  Uiso   1.00
N49    N     0.04759   0.16668   0.25001   0.00000  Uiso   1.00
N50    N     0.28574   0.16666   0.24999   0.00000  Uiso   1.00
O51    O     0.12846   0.22775   0.25001   0.00000  Uiso   1.00
O52    O     0.20488   0.10558   0.25000   0.00000  Uiso   1.00
O53    O     0.20490   0.22774   0.25000   0.00000  Uiso   1.00
O54    O     0.12843   0.10559   0.25000   0.00000  Uiso   1.00
O55    O     0.10661   0.16667   0.31613   0.00000  Uiso   1.00
O56    O     0.22672   0.16666   0.18388   0.00000  Uiso   1.00
O57    O     0.18305   0.16666   0.31612   0.00000  Uiso   1.00
O58    O     0.15028   0.16667   0.18388   0.00000  Uiso   1.00
Zn59   Zn    0.11562   0.16667   0.25000   0.00000  Uiso   1.00
Zn60   Zn    0.21771   0.16666   0.25000   0.00000  Uiso   1.00
C61    C     0.13388   0.14964   0.10869   0.00000  Uiso   1.00
N62    N     0.09570   0.13467   0.12440   0.00000  Uiso   1.00
C63    C     0.18393   0.12900   0.39491   0.00000  Uiso   1.00
N64    N     0.21058   0.10131   0.38218   0.00000  Uiso   1.00
C65    C     0.49999   0.24671   0.25006   0.00000  Uiso   1.00
C66    C     0.49997   0.08663   0.25002   0.00000  Uiso   1.00
C67    C     0.45373   0.20912   0.04384   0.00000  Uiso   1.00
C68    C     0.56388   0.17935   0.44580   0.00000  Uiso   1.00
C69    C     0.42163   0.21764   0.02158   0.00000  Uiso   1.00
C70    C     0.59790   0.17768   0.46723   0.00000  Uiso   1.00
C71    C     0.53633   0.31205   0.25996   0.00000  Uiso   1.00
C72    C     0.46351   0.02129   0.24037   0.00000  Uiso   1.00
C73    C     0.53633   0.02134   0.25994   0.00000  Uiso   1.00
C74    C     0.46350   0.31200   0.24040   0.00000  Uiso   1.00
C75    C     0.49994   0.04248   0.25011   0.00000  Uiso   1.00
C76    C     0.49994   0.29085   0.25015   0.00000  Uiso   1.00
C77    C     0.64992   0.13426   0.23123   0.00000  Uiso   1.00
C78    C     0.34998   0.19897   0.26902   0.00000  Uiso   1.00
C79    C     0.36442   0.13417   0.23149   0.00000  Uiso   1.00
C80    C     0.63535   0.19892   0.26908   0.00000  Uiso   1.00
C81    C     0.46990   0.16680   0.33776   0.00000  Uiso   1.00
C82    C     0.53011   0.16585   0.16202   0.00000  Uiso   1.00
C83    C     0.45245   0.17343   0.38744   0.00000  Uiso   1.00
C84    C     0.54836   0.16718   0.11138   0.00000  Uiso   1.00
C85    C     0.39952   0.21101   0.45420   0.00000  Uiso   1.00
C86    C     0.61527   0.17182   0.03765   0.00000  Uiso   1.00
C87    C     0.41025   0.19685   0.40930   0.00000  Uiso   1.00
C88    C     0.59851   0.16936   0.08566   0.00000  Uiso   1.00
C89    C     0.48362   0.16370   0.41085   0.00000  Uiso   1.00
C90    C     0.51527   0.16825   0.08828   0.00000  Uiso   1.00
C91    C     0.47752   0.18407   0.45246   0.00000  Uiso   1.00
C92    C     0.53182   0.17961   0.04170   0.00000  Uiso   1.00
C93    C     0.43267   0.20444   0.47619   0.00000  Uiso   1.00
C94    C     0.58210   0.17673   0.01534   0.00000  Uiso   1.00
C95    C     0.51368   0.18363   0.47220   0.00000  Uiso   1.00
C96    C     0.49923   0.19029   0.01982   0.00000  Uiso   1.00
H97    H     0.38749   0.23310   0.04038   0.00000  Uiso   1.00
H98    H     0.63622   0.17536   0.44625   0.00000  Uiso   1.00
H99    H     0.62475   0.16765   0.10246   0.00000  Uiso   1.00
H100   H     0.38623   0.20497   0.39136   0.00000  Uiso   1.00
H101   H     0.36620   0.22827   0.47111   0.00000  Uiso   1.00
H102   H     0.65394   0.17014   0.01818   0.00000  Uiso   1.00
H103   H     0.44372   0.21899   0.07936   0.00000  Uiso   1.00
H104   H     0.57738   0.17953   0.40850   0.00000  Uiso   1.00
H105   H     0.56447   0.29582   0.26790   0.00000  Uiso   1.00
H106   H     0.43537   0.03750   0.23242   0.00000  Uiso   1.00
H107   H     0.56448   0.03761   0.26787   0.00000  Uiso   1.00
H108   H     0.43534   0.29574   0.23249   0.00000  Uiso   1.00
H109   H     0.63766   0.10838   0.21608   0.00000  Uiso   1.00
H110   H     0.36220   0.22478   0.28430   0.00000  Uiso   1.00
H111   H     0.38821   0.10813   0.21671   0.00000  Uiso   1.00
H112   H     0.61132   0.22469   0.28445   0.00000  Uiso   1.00
N113   N     0.38093   0.16668   0.25001   0.00000  Uiso   1.00
N114   N     0.61907   0.16666   0.24999   0.00000  Uiso   1.00
O115   O     0.46179   0.22775   0.25001   0.00000  Uiso   1.00
O116   O     0.53821   0.10558   0.25000   0.00000  Uiso   1.00
O117   O     0.53823   0.22774   0.25000   0.00000  Uiso   1.00
O118   O     0.46177   0.10559   0.25000   0.00000  Uiso   1.00
O119   O     0.43994   0.16667   0.31613   0.00000  Uiso   1.00
O120   O     0.56006   0.16666   0.18388   0.00000  Uiso   1.00
O121   O     0.51639   0.16666   0.31612   0.00000  Uiso   1.00
O122   O     0.48361   0.16667   0.18388   0.00000  Uiso   1.00
Zn123  Zn    0.44896   0.16667   0.25000   0.00000  Uiso   1.00
Zn124  Zn    0.55104   0.16666   0.25000   0.00000  Uiso   1.00
C125   C     0.46721   0.14964   0.10869   0.00000  Uiso   1.00
N126   N     0.42904   0.13467   0.12440   0.00000  Uiso   1.00
C127   C     0.51726   0.12900   0.39491   0.00000  Uiso   1.00
N128   N     0.54391   0.10131   0.38218   0.00000  Uiso   1.00
C129   C     0.83333   0.24671   0.25006   0.00000  Uiso   1.00
C130   C     0.83331   0.08663   0.25002   0.00000  Uiso   1.00
C131   C     0.78707   0.20912   0.04384   0.00000  Uiso   1.00
C132   C     0.89721   0.17935   0.44580   0.00000  Uiso   1.00
C133   C     0.75497   0.21764   0.02158   0.00000  Uiso   1.00
C134   C     0.93123   0.17768   0.46723   0.00000  Uiso   1.00
C135   C     0.86967   0.31205   0.25996   0.00000  Uiso   1.00
C136   C     0.79684   0.02129   0.24037   0.00000  Uiso   1.00
C137   C     0.86967   0.02134   0.25994   0.00000  Uiso   1.00
C138   C     0.79683   0.31200   0.24040   0.00000  Uiso   1.00
C139   C     0.83327   0.04248   0.25011   0.00000  Uiso   1.00
C140   C     0.83328   0.29085   0.25015   0.00000  Uiso   1.00
C141   C     0.98326   0.13426   0.23123   0.00000  Uiso   1.00
C142   C     0.68331   0.19897   0.26902   0.00000  Uiso   1.00
C143   C     0.69775   0.13417   0.23149   0.00000  Uiso   1.00
C144   C     0.96868   0.19892   0.26908   0.00000  Uiso   1.00
C145   C     0.80323   0.16680   0.33776   0.00000  Uiso   1.00
C146   C     0.86344   0.16585   0.16202   0.00000  Uiso   1.00
C147   C     0.78579   0.17343   0.38744   0.00000  Uiso   1.00
C148   C     0.88169   0.16718   0.11138   0.00000  Uiso   1.00
C149   C     0.73285   0.21101   0.45420   0.00000  Uiso   1.00
C150   C     0.94860   0.17182   0.03765   0.00000  Uiso   1.00
C151   C     0.74358   0.19685   0.40930   0.00000  Uiso   1.00
C152   C     0.93184   0.16936   0.08566   0.00000  Uiso   1.00
C153   C     0.81695   0.16370   0.41085   0.00000  Uiso   1.00
C154   C     0.84860   0.16825   0.08828   0.00000  Uiso   1.00
C155   C     0.81086   0.18407   0.45246   0.00000  Uiso   1.00
C156   C     0.86515   0.17961   0.04170   0.00000  Uiso   1.00
C157   C     0.76600   0.20444   0.47619   0.00000  Uiso   1.00
C158   C     0.91544   0.17673   0.01534   0.00000  Uiso   1.00
C159   C     0.84701   0.18363   0.47220   0.00000  Uiso   1.00
C160   C     0.83257   0.19029   0.01982   0.00000  Uiso   1.00
H161   H     0.72082   0.23310   0.04038   0.00000  Uiso   1.00
H162   H     0.96955   0.17536   0.44625   0.00000  Uiso   1.00
H163   H     0.95808   0.16765   0.10246   0.00000  Uiso   1.00
H164   H     0.71956   0.20497   0.39136   0.00000  Uiso   1.00
H165   H     0.69953   0.22827   0.47111   0.00000  Uiso   1.00
H166   H     0.98727   0.17014   0.01818   0.00000  Uiso   1.00
H167   H     0.77705   0.21899   0.07936   0.00000  Uiso   1.00
H168   H     0.91071   0.17953   0.40850   0.00000  Uiso   1.00
H169   H     0.89781   0.29582   0.26790   0.00000  Uiso   1.00
H170   H     0.76870   0.03750   0.23242   0.00000  Uiso   1.00
H171   H     0.89781   0.03761   0.26787   0.00000  Uiso   1.00
H172   H     0.76868   0.29574   0.23249   0.00000  Uiso   1.00
H173   H     0.97099   0.10838   0.21608   0.00000  Uiso   1.00
H174   H     0.69554   0.22478   0.28430   0.00000  Uiso   1.00
H175   H     0.72154   0.10813   0.21671   0.00000  Uiso   1.00
H176   H     0.94465   0.22469   0.28445   0.00000  Uiso   1.00
N177   N     0.71426   0.16668   0.25001   0.00000  Uiso   1.00
N178   N     0.95241   0.16666   0.24999   0.00000  Uiso   1.00
O179   O     0.79512   0.22775   0.25001   0.00000  Uiso   1.00
O180   O     0.87154   0.10558   0.25000   0.00000  Uiso   1.00
O181   O     0.87157   0.22774   0.25000   0.00000  Uiso   1.00
O182   O     0.79510   0.10559   0.25000   0.00000  Uiso   1.00
O183   O     0.77328   0.16667   0.31613   0.00000  Uiso   1.00
O184   O     0.89339   0.16666   0.18388   0.00000  Uiso   1.00
O185   O     0.84972   0.16666   0.31612   0.00000  Uiso   1.00
O186   O     0.81695   0.16667   0.18388   0.00000  Uiso   1.00
Zn187  Zn    0.78229   0.16667   0.25000   0.00000  Uiso   1.00
Zn188  Zn    0.88438   0.16666   0.25000   0.00000  Uiso   1.00
C189   C     0.80054   0.14964   0.10869   0.00000  Uiso   1.00
N190   N     0.76237   0.13467   0.12440   0.00000  Uiso   1.00
C191   C     0.85059   0.12900   0.39491   0.00000  Uiso   1.00
N192   N     0.87724   0.10131   0.38218   0.00000  Uiso   1.00
C193   C     0.16666   0.58004   0.25006   0.00000  Uiso   1.00
C194   C     0.16664   0.41996   0.25002   0.00000  Uiso   1.00
C195   C     0.12040   0.54245   0.04384   0.00000  Uiso   1.00
C196   C     0.23054   0.51268   0.44580   0.00000  Uiso   1.00
C197   C     0.08830   0.55097   0.02158   0.00000  Uiso   1.00
C198   C     0.26457   0.51101   0.46723   0.00000  Uiso   1.00
C199   C     0.20300   0.64538   0.25996   0.00000  Uiso   1.00
C200   C     0.13018   0.35462   0.24037   0.00000  Uiso   1.00
C201   C     0.20300   0.35467   0.25994   0.00000  Uiso   1.00
C202   C     0.13017   0.64533   0.24040   0.00000  Uiso   1.00
C203   C     0.16661   0.37582   0.25011   0.00000  Uiso   1.00
C204   C     0.16661   0.62419   0.25015   0.00000  Uiso   1.00
C205   C     0.31659   0.46759   0.23123   0.00000  Uiso   1.00
C206   C     0.01665   0.53230   0.26902   0.00000  Uiso   1.00
C207   C     0.03108   0.46750   0.23149   0.00000  Uiso   1.00
C208   C     0.30201   0.53226   0.26908   0.00000  Uiso   1.00
C209   C     0.13656   0.50013   0.33776   0.00000  Uiso   1.00
C210   C     0.19678   0.49919   0.16202   0.00000  Uiso   1.00
C211   C     0.11912   0.50677   0.38744   0.00000  Uiso   1.00
C212   C     0.21503   0.50051   0.11138   0.00000  Uiso   1.00
C213   C     0.06619   0.54434   0.45420   0.00000  Uiso   1.00
C214   C     0.28193   0.50516   0.03765   0.00000  Uiso   1.00
C215   C     0.07691   0.53019   0.40930   0.00000  Uiso   1.00
C216   C     0.26518   0.50269   0.08566   0.00000  Uiso   1.00
C217   C     0.15028   0.49703   0.41085   0.00000  Uiso   1.00
C218   C     0.18194   0.50158   0.08828   0.00000  Uiso   1.00
C219   C     0.14419   0.51740   0.45246   0.00000  Uiso   1.00
C220   C     0.19848   0.51295   0.04170   0.00000  Uiso   1.00
C221   C     0.09934   0.53777   0.47619   0.00000  Uiso   1.00
C222   C     0.24877   0.51007   0.01534   0.00000  Uiso   1.00
C223   C     0.18035   0.51697   0.47220   0.00000  Uiso   1.00
C224   C     0.16590   0.52362   0.01982   0.00000  Uiso   1.00
H225   H     0.05415   0.56644   0.04038   0.00000  Uiso   1.00
H226   H     0.30288   0.50869   0.44625   0.00000  Uiso   1.00
H227   H     0.29141   0.50099   0.10246   0.00000  Uiso   1.00
H228   H     0.05290   0.53830   0.39136   0.00000  Uiso   1.00
H229   H     0.03287   0.56160   0.47111   0.00000  Uiso   1.00
H230   H     0.32061   0.50347   0.01818   0.00000  Uiso   1.00
H231   H     0.11038   0.55232   0.07936   0.00000  Uiso   1.00
H232   H     0.24405   0.51286   0.40850   0.00000  Uiso   1.00
H233   H     0.23114   0.62916   0.26790   0.00000  Uiso   1.00
H234   H     0.10204   0.37084   0.23242   0.00000  Uiso   1.00
H235   H     0.23114   0.37094   0.26787   0.00000  Uiso   1.00
H236   H     0.10201   0.62908   0.23249   0.00000  Uiso   1.00
H237   H     0.30433   0.44171   0.21608   0.00000  Uiso   1.00
H238   H     0.02887   0.55812   0.28430   0.00000  Uiso   1.00
H239   H     0.05488   0.44146   0.21671   0.00000  Uiso   1.00
H240   H     0.27798   0.55802   0.28445   0.00000  Uiso   1.00
N241   N     0.04759   0.50001   0.25001   0.00000  Uiso   1.00
N242   N     0.28574   0.49999   0.24999   0.00000  Uiso   1.00
O243   O     0.12846   0.56108   0.25001   0.00000  Uiso   1.00
O244   O     0.20488   0.43892   0.25000   0.00000  Uiso   1.00
O245   O     0.20490   0.56107   0.25000   0.00000  Uiso   1.00
O246   O     0.12843   0.43893   0.25000   0.00000  Uiso   1.00
O247   O     0.10661   0.50001   0.31613   0.00000  Uiso   1.00
O248   O     0.22672   0.49999   0.18388   0.00000  Uiso   1.00
O249   O     0.18305   0.50000   0.31612   0.00000  Uiso   1.00
O250   O     0.15028   0.50000   0.18388   0.00000  Uiso   1.00
Zn251  Zn    0.11562   0.50001   0.25000   0.00000  Uiso   1.00
Zn252  Zn    0.21771   0.49999   0.25000   0.00000  Uiso   1.00
C253   C     0.13388   0.48297   0.10869   0.00000  Uiso   1.00
N254   N     0.09570   0.46800   0.12440   0.00000  Uiso   1.00
C255   C     0.18393   0.46233   0.39491   0.00000  Uiso   1.00
N256   N     0.21058   0.43464   0.38218   0.00000  Uiso   1.00
C257   C     0.49999   0.58004   0.25006   0.00000  Uiso   1.00
C258   C     0.49997   0.41996   0.25002   0.00000  Uiso   1.00
C259   C     0.45373   0.54245   0.04384   0.00000  Uiso   1.00
C260   C     0.56388   0.51268   0.44580   0.00000  Uiso   1.00
C261   C     0.42163   0.55097   0.02158   0.00000  Uiso   1.00
C262   C     0.59790   0.51101   0.46723   0.00000  Uiso   1.00
C263   C     0.53633   0.64538   0.25996   0.00000  Uiso   1.00
C264   C     0.46351   0.35462   0.24037   0.00000  Uiso   1.00
C265   C     0.53633   0.35467   0.25994   0.00000  Uiso   1.00
C266   C     0.46350   0.64533   0.24040   0.00000  Uiso   1.00
C267   C     0.49994   0.37582   0.25011   0.00000  Uiso   1.00
C268   C     0.49994   0.62419   0.25015   0.00000  Uiso   1.00
C269   C     0.64992   0.46759   0.23123   0.00000  Uiso   1.00
C270   C     0.34998   0.53230   0.26902   0.00000  Uiso   1.00
C271   C     0.36442   0.46750   0.23149   0.00000  Uiso   1.00
C272   C     0.63535   0.53226   0.26908   0.00000  Uiso   1.00
C273   C     0.46990   0.50013   0.33776   0.00000  Uiso   1.00
C274   C     0.53011   0.49919   0.16202   0.00000  Uiso   1.00
C275   C     0.45245   0.50677   0.38744   0.00000  Uiso   1.00
C276   C     0.54836   0.50051   0.11138   0.00000  Uiso   1.00
C277   C     0.39952   0.54434   0.45420   0.00000  Uiso   1.00
C278   C     0.61527   0.50516   0.03765   0.00000  Uiso   1.00
C279   C     0.41025   0.53019   0.40930   0.00000  Uiso   1.00
C280   C     0.59851   0.50269   0.08566   0.00000  Uiso   1.00
C281   C     0.48362   0.49703   0.41085   0.00000  Uiso   1.00
C282   C     0.51527   0.50158   0.08828   0.00000  Uiso   1.00
C283   C     0.47752   0.51740   0.45246   0.00000  Uiso   1.00
C284   C     0.53182   0.51295   0.04170   0.00000  Uiso   1.00
C285   C     0.43267   0.53777   0.47619   0.00000  Uiso   1.00
C286   C     0.58210   0.51007   0.01534   0.00000  Uiso   1.00
C287   C     0.51368   0.51697   0.47220   0.00000  Uiso   1.00
C288   C     0.49923   0.52362   0.01982   0.00000  Uiso   1.00
H289   H     0.38749   0.56644   0.04038   0.00000  Uiso   1.00
H290   H     0.63622   0.50869   0.44625   0.00000  Uiso   1.00
H291   H     0.62475   0.50099   0.10246   0.00000  Uiso   1.00
H292   H     0.38623   0.53830   0.39136   0.00000  Uiso   1.00
H293   H     0.36620   0.56160   0.47111   0.00000  Uiso   1.00
H294   H     0.65394   0.50347   0.01818   0.00000  Uiso   1.00
H295   H     0.44372   0.55232   0.07936   0.00000  Uiso   1.00
H296   H     0.57738   0.51286   0.40850   0.00000  Uiso   1.00
H297   H     0.56447   0.62916   0.26790   0.00000  Uiso   1.00
H298   H     0.43537   0.37084   0.23242   0.00000  Uiso   1.00
H299   H     0.56448   0.37094   0.26787   0.00000  Uiso   1.00
H300   H     0.43534   0.62908   0.23249   0.00000  Uiso   1.00
H301   H     0.63766   0.44171   0.21608   0.00000  Uiso   1.00
H302   H     0.36220   0.55812   0.28430   0.00000  Uiso   1.00
H303   H     0.38821   0.44146   0.21671   0.00000  Uiso   1.00
H304   H     0.61132   0.55802   0.28445   0.00000  Uiso   1.00
N305   N     0.38093   0.50001   0.25001   0.00000  Uiso   1.00
N306   N     0.61907   0.49999   0.24999   0.00000  Uiso   1.00
O307   O     0.46179   0.56108   0.25001   0.00000  Uiso   1.00
O308   O     0.53821   0.43892   0.25000   0.00000  Uiso   1.00
O309   O     0.53823   0.56107   0.25000   0.00000  Uiso   1.00
O310   O     0.46177   0.43893   0.25000   0.00000  Uiso   1.00
O311   O     0.43994   0.50001   0.31613   0.00000  Uiso   1.00
O312   O     0.56006   0.49999   0.18388   0.00000  Uiso   1.00
O313   O     0.51639   0.50000   0.31612   0.00000  Uiso   1.00
O314   O     0.48361   0.50000   0.18388   0.00000  Uiso   1.00
Zn315  Zn    0.44896   0.50001   0.25000   0.00000  Uiso   1.00
Zn316  Zn    0.55104   0.49999   0.25000   0.00000  Uiso   1.00
C317   C     0.46721   0.48297   0.10869   0.00000  Uiso   1.00
N318   N     0.42904   0.46800   0.12440   0.00000  Uiso   1.00
C319   C     0.51726   0.46233   0.39491   0.00000  Uiso   1.00
N320   N     0.54391   0.43464   0.38218   0.00000  Uiso   1.00
C321   C     0.83333   0.58004   0.25006   0.00000  Uiso   1.00
C322   C     0.83331   0.41996   0.25002   0.00000  Uiso   1.00
C323   C     0.78707   0.54245   0.04384   0.00000  Uiso   1.00
C324   C     0.89721   0.51268   0.44580   0.00000  Uiso   1.00
C325   C     0.75497   0.55097   0.02158   0.00000  Uiso   1.00
C326   C     0.93123   0.51101   0.46723   0.00000  Uiso   1.00
C327   C     0.86967   0.64538   0.25996   0.00000  Uiso   1.00
C328   C     0.79684   0.35462   0.24037   0.00000  Uiso   1.00
C329   C     0.86967   0.35467   0.25994   0.00000  Uiso   1.00
C330   C     0.79683   0.64533   0.24040   0.00000  Uiso   1.00
C331   C     0.83327   0.37582   0.25011   0.00000  Uiso   1.00
C332   C     0.83328   0.62419   0.25015   0.00000  Uiso   1.00
C333   C     0.98326   0.46759   0.23123   0.00000  Uiso   1.00
C334   C     0.68331   0.53230   0.26902   0.00000  Uiso   1.00
C335   C     0.69775   0.46750   0.23149   0.00000  Uiso   1.00
C336   C     0.96868   0.53226   0.26908   0.00000  Uiso   1.00
C337   C     0.80323   0.50013   0.33776   0.00000  Uiso   1.00
C338   C     0.86344   0.49919   0.16202   0.00000  Uiso   1.00
C339   C     0.78579   0.50677   0.38744   0.00000  Uiso   1.00
C340   C     0.88169   0.50051   0.11138   0.00000  Uiso   1.00
C341   C     0.73285   0.54434   0.45420   0.00000  Uiso   1.00
C342   C     0.94860   0.50516   0.03765   0.00000  Uiso   1.00
C343   C     0.74358   0.53019   0.40930   0.00000  Uiso   1.00
C344   C     0.93184   0.50269   0.08566   0.00000  Uiso   1.00
C345   C     0.81695   0.49703   0.41085   0.00000  Uiso   1.00
C346   C     0.84860   0.50158   0.08828   0.00000  Uiso   1.00
C347   C     0.81086   0.51740   0.45246   0.00000  Uiso   1.00
C348   C     0.86515   0.51295   0.04170   0.00000  Uiso   1.00
C349   C     0.76600   0.53777   0.47619   0.00000  Uiso   1.00
C350   C     0.91544   0.51007   0.01534   0.00000  Uiso   1.00
C351   C     0.84701   0.51697   0.47220   0.00000  Uiso   1.00
C352   C     0.83257   0.52362   0.01982   0.00000  Uiso   1.00
H353   H     0.72082   0.56644   0.04038   0.00000  Uiso   1.00
H354   H     0.96955   0.50869   0.44625   0.00000  Uiso   1.00
H355   H     0.95808   0.50099   0.10246   0.00000  Uiso   1.00
H356   H     0.71956   0.53830   0.39136   0.00000  Uiso   1.00
H357   H     0.69953   0.56160   0.47111   0.00000  Uiso   1.00
H358   H     0.98727   0.50347   0.01818   0.00000  Uiso   1.00
H359   H     0.77705   0.55232   0.07936   0.00000  Uiso   1.00
H360   H     0.91071   0.51286   0.40850   0.00000  Uiso   1.00
H361   H     0.89781   0.62916   0.26790   0.00000  Uiso   1.00
H362   H     0.76870   0.37084   0.23242   0.00000  Uiso   1.00
H363   H     0.89781   0.37094   0.26787   0.00000  Uiso   1.00
H364   H     0.76868   0.62908   0.23249   0.00000  Uiso   1.00
H365   H     0.97099   0.44171   0.21608   0.00000  Uiso   1.00
H366   H     0.69554   0.55812   0.28430   0.00000  Uiso   1.00
H367   H     0.72154   0.44146   0.21671   0.00000  Uiso   1.00
H368   H     0.94465   0.55802   0.28445   0.00000  Uiso   1.00
N369   N     0.71426   0.50001   0.25001   0.00000  Uiso   1.00
N370   N     0.95241   0.49999   0.24999   0.00000  Uiso   1.00
O371   O     0.79512   0.56108   0.25001   0.00000  Uiso   1.00
O372   O     0.87154   0.43892   0.25000   0.00000  Uiso   1.00
O373   O     0.87157   0.56107   0.25000   0.00000  Uiso   1.00
O374   O     0.79510   0.43893   0.25000   0.00000  Uiso   1.00
O375   O     0.77328   0.50001   0.31613   0.00000  Uiso   1.00
O376   O     0.89339   0.49999   0.18388   0.00000  Uiso   1.00
O377   O     0.84972   0.50000   0.31612   0.00000  Uiso   1.00
O378   O     0.81695   0.50000   0.18388   0.00000  Uiso   1.00
Zn379  Zn    0.78229   0.50001   0.25000   0.00000  Uiso   1.00
Zn380  Zn    0.88438   0.49999   0.25000   0.00000  Uiso   1.00
C381   C     0.80054   0.48297   0.10869   0.00000  Uiso   1.00
N382   N     0.76237   0.46800   0.12440   0.00000  Uiso   1.00
C383   C     0.85059   0.46233   0.39491   0.00000  Uiso   1.00
N384   N     0.87724   0.43464   0.38218   0.00000  Uiso   1.00
C385   C     0.16666   0.91337   0.25006   0.00000  Uiso   1.00
C386   C     0.16664   0.75329   0.25002   0.00000  Uiso   1.00
C387   C     0.12040   0.87578   0.04384   0.00000  Uiso   1.00
C388   C     0.23054   0.84602   0.44580   0.00000  Uiso   1.00
C389   C     0.08830   0.88431   0.02158   0.00000  Uiso   1.00
C390   C     0.26457   0.84435   0.46723   0.00000  Uiso   1.00
C391   C     0.20300   0.97872   0.25996   0.00000  Uiso   1.00
C392   C     0.13018   0.68795   0.24037   0.00000  Uiso   1.00
C393   C     0.20300   0.68801   0.25994   0.00000  Uiso   1.00
C394   C     0.13017   0.97867   0.24040   0.00000  Uiso   1.00
C395   C     0.16661   0.70915   0.25011   0.00000  Uiso   1.00
C396   C     0.16661   0.95752   0.25015   0.00000  Uiso   1.00
C397   C     0.31659   0.80093   0.23123   0.00000  Uiso   1.00
C398   C     0.01665   0.86563   0.26902   0.00000  Uiso   1.00
C399   C     0.03108   0.80083   0.23149   0.00000  Uiso   1.00
C400   C     0.30201   0.86559   0.26908   0.00000  Uiso   1.00
C401   C     0.13656   0.83346   0.33776   0.00000  Uiso   1.00
C402   C     0.19678   0.83252   0.16202   0.00000  Uiso   1.00
C403   C     0.11912   0.84010   0.38744   0.00000  Uiso   1.00
C404   C     0.21503   0.83385   0.11138   0.00000  Uiso   1.00
C405   C     0.06619   0.87768   0.45420   0.00000  Uiso   1.00
C406   C     0.28193   0.83849   0.03765   0.00000  Uiso   1.00
C407   C     0.07691   0.86352   0.40930   0.00000  Uiso   1.00
C408   C     0.26518   0.83602   0.08566   0.00000  Uiso   1.00
C409   C     0.15028   0.83036   0.41085   0.00000  Uiso   1.00
C410   C     0.18194   0.83491   0.08828   0.00000  Uiso   1.00
C411   C     0.14419   0.85074   0.45246   0.00000  Uiso   1.00
C412   C     0.19848   0.84628   0.04170   0.00000  Uiso   1.00
C413   C     0.09934   0.87111   0.47619   0.00000  Uiso   1.00
C414   C     0.24877   0.84340   0.01534   0.00000  Uiso   1.00
C415   C     0.18035   0.85030   0.47220   0.00000  Uiso   1.00
C416   C     0.16590   0.85696   0.01982   0.00000  Uiso   1.00
H417   H     0.05415   0.89977   0.04038   0.00000  Uiso   1.00
H418   H     0.30288   0.84202   0.44625   0.00000  Uiso   1.00
H419   H     0.29141   0.83432   0.10246   0.00000  Uiso   1.00
H420   H     0.05290   0.87164   0.39136   0.00000  Uiso   1.00
H421   H     0.03287   0.89493   0.47111   0.00000  Uiso   1.00
H422   H     0.32061   0.83681   0.01818   0.00000  Uiso   1.00
H423   H     0.11038   0.88566   0.07936   0.00000  Uiso   1.00
H424   H     0.24405   0.84619   0.40850   0.00000  Uiso   1.00
H425   H     0.23114   0.96249   0.26790   0.00000  Uiso   1.00
H426   H     0.10204   0.70417   0.23242   0.00000  Uiso   1.00
H427   H     0.23114   0.70427   0.26787   0.00000  Uiso   1.00
H428   H     0.10201   0.96241   0.23249   0.00000  Uiso   1.00
H429   H     0.30433   0.77505   0.21608   0.00000  Uiso   1.00
H430   H     0.02887   0.89145   0.28430   0.00000  Uiso   1.00
H431   H     0.05488   0.77479   0.21671   0.00000  Uiso   1.00
H432   H     0.27798   0.89135   0.28445   0.00000  Uiso   1.00
N433   N     0.04759   0.83334   0.25001   0.00000  Uiso   1.00
N434   N     0.28574   0.83332   0.24999   0.00000  Uiso   1.00
O435   O     0.12846   0.89442   0.25001   0.00000  Uiso   1.00
O436   O     0.20488   0.77225   0.25000   0.00000  Uiso   1.00
O437   O     0.20490   0.89441   0.25000   0.00000  Uiso   1.00
O438   O     0.12843   0.77226   0.25000   0.00000  Uiso   1.00
O439   O     0.10661   0.83334   0.31613   0.00000  Uiso   1.00
O440   O     0.22672   0.83333   0.18388   0.00000  Uiso   1.00
O441   O     0.18305   0.83333   0.31612   0.00000  Uiso   1.00
O442   O     0.15028   0.83334   0.18388   0.00000  Uiso   1.00
Zn443  Zn    0.11562   0.83334   0.25000   0.00000  Uiso   1.00
Zn444  Zn    0.21771   0.83333   0.25000   0.00000  Uiso   1.00
C445   C     0.13388   0.81630   0.10869   0.00000  Uiso   1.00
N446   N     0.09570   0.80134   0.12440   0.00000  Uiso   1.00
C447   C     0.18393   0.79566   0.39491   0.00000  Uiso   1.00
N448   N     0.21058   0.76798   0.38218   0.00000  Uiso   1.00
C449   C     0.49999   0.91337   0.25006   0.00000  Uiso   1.00
C450   C     0.49997   0.75329   0.25002   0.00000  Uiso   1.00
C451   C     0.45373   0.87578   0.04384   0.00000  Uiso   1.00
C452   C     0.56388   0.84602   0.44580   0.00000  Uiso   1.00
C453   C     0.42163   0.88431   0.02158   0.00000  Uiso   1.00
C454   C     0.59790   0.84435   0.46723   0.00000  Uiso   1.00
C455   C     0.53633   0.97872   0.25996   0.00000  Uiso   1.00
C456   C     0.46351   0.68795   0.24037   0.00000  Uiso   1.00
C457   C     0.53633   0.68801   0.25994   0.00000  Uiso   1.00
C458   C     0.46350   0.97867   0.24040   0.00000  Uiso   1.00
C459   C     0.49994   0.70915   0.25011   0.00000  Uiso   1.00
C460   C     0.49994   0.95752   0.25015   0.00000  Uiso   1.00
C461   C     0.64992   0.80093   0.23123   0.00000  Uiso   1.00
C462   C     0.34998   0.86563   0.26902   0.00000  Uiso   1.00
C463   C     0.36442   0.80083   0.23149   0.00000  Uiso   1.00
C464   C     0.63535   0.86559   0.26908   0.00000  Uiso   1.00
C465   C     0.46990   0.83346   0.33776   0.00000  Uiso   1.00
C466   C     0.53011   0.83252   0.16202   0.00000  Uiso   1.00
C467   C     0.45245   0.84010   0.38744   0.00000  Uiso   1.00
C468   C     0.54836   0.83385   0.11138   0.00000  Uiso   1.00
C469   C     0.39952   0.87768   0.45420   0.00000  Uiso   1.00
C470   C     0.61527   0.83849   0.03765   0.00000  Uiso   1.00
C471   C     0.41025   0.86352   0.40930   0.00000  Uiso   1.00
C472   C     0.59851   0.83602   0.08566   0.00000  Uiso   1.00
C473   C     0.48362   0.83036   0.41085   0.00000  Uiso   1.00
C474   C     0.51527   0.83491   0.08828   0.00000  Uiso   1.00
C475   C     0.47752   0.85074   0.45246   0.00000  Uiso   1.00
C476   C     0.53182   0.84628   0.04170   0.00000  Uiso   1.00
C477   C     0.43267   0.87111   0.47619   0.00000  Uiso   1.00
C478   C     0.58210   0.84340   0.01534   0.00000  Uiso   1.00
C479   C     0.51368   0.85030   0.47220   0.00000  Uiso   1.00
C480   C     0.49923   0.85696   0.01982   0.00000  Uiso   1.00
H481   H     0.38749   0.89977   0.04038   0.00000  Uiso   1.00
H482   H     0.63622   0.84202   0.44625   0.00000  Uiso   1.00
H483   H     0.62475   0.83432   0.10246   0.00000  Uiso   1.00
H484   H     0.38623   0.87164   0.39136   0.00000  Uiso   1.00
H485   H     0.36620   0.89493   0.47111   0.00000  Uiso   1.00
H486   H     0.65394   0.83681   0.01818   0.00000  Uiso   1.00
H487   H     0.44372   0.88566   0.07936   0.00000  Uiso   1.00
H488   H     0.57738   0.84619   0.40850   0.00000  Uiso   1.00
H489   H     0.56447   0.96249   0.26790   0.00000  Uiso   1.00
H490   H     0.43537   0.70417   0.23242   0.00000  Uiso   1.00
H491   H     0.56448   0.70427   0.26787   0.00000  Uiso   1.00
H492   H     0.43534   0.96241   0.23249   0.00000  Uiso   1.00
H493   H     0.63766   0.77505   0.21608   0.00000  Uiso   1.00
H494   H     0.36220   0.89145   0.28430   0.00000  Uiso   1.00
H495   H     0.38821   0.77479   0.21671   0.00000  Uiso   1.00
H496   H     0.61132   0.89135   0.28445   0.00000  Uiso   1.00
N497   N     0.38093   0.83334   0.25001   0.00000  Uiso   1.00
N498   N     0.61907   0.83332   0.24999   0.00000  Uiso   1.00
O499   O     0.46179   0.89442   0.25001   0.00000  Uiso   1.00
O500   O     0.53821   0.77225   0.25000   0.00000  Uiso   1.00
O501   O     0.53823   0.89441   0.25000   0.00000  Uiso   1.00
O502   O     0.46177   0.77226   0.25000   0.00000  Uiso   1.00
O503   O     0.43994   0.83334   0.31613   0.00000  Uiso   1.00
O504   O     0.56006   0.83333   0.18388   0.00000  Uiso   1.00
O505   O     0.51639   0.83333   0.31612   0.00000  Uiso   1.00
O506   O     0.48361   0.83334   0.18388   0.00000  Uiso   1.00
Zn507  Zn    0.44896   0.83334   0.25000   0.00000  Uiso   1.00
Zn508  Zn    0.55104   0.83333   0.25000   0.00000  Uiso   1.00
C509   C     0.46721   0.81630   0.10869   0.00000  Uiso   1.00
N510   N     0.42904   0.80134   0.12440   0.00000  Uiso   1.00
C511   C     0.51726   0.79566   0.39491   0.00000  Uiso   1.00
N512   N     0.54391   0.76798   0.38218   0.00000  Uiso   1.00
C513   C     0.83333   0.91337   0.25006   0.00000  Uiso   1.00
C514   C     0.83331   0.75329   0.25002   0.00000  Uiso   1.00
C515   C     0.78707   0.87578   0.04384   0.00000  Uiso   1.00
C516   C     0.89721   0.84602   0.44580   0.00000  Uiso   1.00
C517   C     0.75497   0.88431   0.02158   0.00000  Uiso   1.00
C518   C     0.93123   0.84435   0.46723   0.00000  Uiso   1.00
C519   C     0.86967   0.97872   0.25996   0.00000  Uiso   1.00
C520   C     0.79684   0.68795   0.24037   0.00000  Uiso   1.00
C521   C     0.86967   0.68801   0.25994   0.00000  Uiso   1.00
C522   C     0.79683   0.97867   0.24040   0.00000  Uiso   1.00
C523   C     0.83327   0.70915   0.25011   0.00000  Uiso   1.00
C524   C     0.83328   0.95752   0.25015   0.00000  Uiso   1.00
C525   C     0.98326   0.80093   0.23123   0.00000  Uiso   1.00
C526   C     0.68331   0.86563   0.26902   0.00000  Uiso   1.00
C527   C     0.69775   0.80083   0.23149   0.00000  Uiso   1.00
C528   C     0.96868   0.86559   0.26908   0.00000  Uiso   1.00
C529   C     0.80323   0.83346   0.33776   0.00000  Uiso   1.00
C530   C     0.86344   0.83252   0.16202   0.00000  Uiso   1.00
C531   C     0.78579   0.84010   0.38744   0.00000  Uiso   1.00
C532   C     0.88169   0.83385   0.11138   0.00000  Uiso   1.00
C533   C     0.73285   0.87768   0.45420   0.00000  Uiso   1.00
C534   C     0.94860   0.83849   0.03765   0.00000  Uiso   1.00
C535   C     0.74358   0.86352   0.40930   0.00000  Uiso   1.00
C536   C     0.93184   0.83602   0.08566   0.00000  Uiso   1.00
C537   C     0.81695   0.83036   0.41085   0.00000  Uiso   1.00
C538   C     0.84860   0.83491   0.08828   0.00000  Uiso   1.00
C539   C     0.81086   0.85074   0.45246   0.00000  Uiso   1.00
C540   C     0.86515   0.84628   0.04170   0.00000  Uiso   1.00
C541   C     0.76600   0.87111   0.47619   0.00000  Uiso   1.00
C542   C     0.91544   0.84340   0.01534   0.00000  Uiso   1.00
C543   C     0.84701   0.85030   0.47220   0.00000  Uiso   1.00
C544   C     0.83257   0.85696   0.01982   0.00000  Uiso   1.00
H545   H     0.72082   0.89977   0.04038   0.00000  Uiso   1.00
H546   H     0.96955   0.84202   0.44625   0.00000  Uiso   1.00
H547   H     0.95808   0.83432   0.10246   0.00000  Uiso   1.00
H548   H     0.71956   0.87164   0.39136   0.00000  Uiso   1.00
H549   H     0.69953   0.89493   0.47111   0.00000  Uiso   1.00
H550   H     0.98727   0.83681   0.01818   0.00000  Uiso   1.00
H551   H     0.77705   0.88566   0.07936   0.00000  Uiso   1.00
H552   H     0.91071   0.84619   0.40850   0.00000  Uiso   1.00
H553   H     0.89781   0.96249   0.26790   0.00000  Uiso   1.00
H554   H     0.76870   0.70417   0.23242   0.00000  Uiso   1.00
H555   H     0.89781   0.70427   0.26787   0.00000  Uiso   1.00
H556   H     0.76868   0.96241   0.23249   0.00000  Uiso   1.00
H557   H     0.97099   0.77505   0.21608   0.00000  Uiso   1.00
H558   H     0.69554   0.89145   0.28430   0.00000  Uiso   1.00
H559   H     0.72154   0.77479   0.21671   0.00000  Uiso   1.00
H560   H     0.94465   0.89135   0.28445   0.00000  Uiso   1.00
N561   N     0.71426   0.83334   0.25001   0.00000  Uiso   1.00
N562   N     0.95241   0.83332   0.24999   0.00000  Uiso   1.00
O563   O     0.79512   0.89442   0.25001   0.00000  Uiso   1.00
O564   O     0.87154   0.77225   0.25000   0.00000  Uiso   1.00
O565   O     0.87157   0.89441   0.25000   0.00000  Uiso   1.00
O566   O     0.79510   0.77226   0.25000   0.00000  Uiso   1.00
O567   O     0.77328   0.83334   0.31613   0.00000  Uiso   1.00
O568   O     0.89339   0.83333   0.18388   0.00000  Uiso   1.00
O569   O     0.84972   0.83333   0.31612   0.00000  Uiso   1.00
O570   O     0.81695   0.83334   0.18388   0.00000  Uiso   1.00
Zn571  Zn    0.78229   0.83334   0.25000   0.00000  Uiso   1.00
Zn572  Zn    0.88438   0.83333   0.25000   0.00000  Uiso   1.00
C573   C     0.80054   0.81630   0.10869   0.00000  Uiso   1.00
N574   N     0.76237   0.80134   0.12440   0.00000  Uiso   1.00
C575   C     0.85059   0.79566   0.39491   0.00000  Uiso   1.00
N576   N     0.87724   0.76798   0.38218   0.00000  Uiso   1.00
C577   C     0.16666   0.24671   0.75006   0.00000  Uiso   1.00
C578   C     0.16664   0.08663   0.75002   0.00000  Uiso   1.00
C579   C     0.12040   0.20912   0.54384   0.00000  Uiso   1.00
C580   C     0.23054   0.17935   0.94580   0.00000  Uiso   1.00
C581   C     0.08830   0.21764   0.52158   0.00000  Uiso   1.00
C582   C     0.26457   0.17768   0.96723   0.00000  Uiso   1.00
C583   C     0.20300   0.31205   0.75996   0.00000  Uiso   1.00
C584   C     0.13018   0.02129   0.74037   0.00000  Uiso   1.00
C585   C     0.20300   0.02134   0.75994   0.00000  Uiso   1.00
C586   C     0.13017   0.31200   0.74040   0.00000  Uiso   1.00
C587   C     0.16661   0.04248   0.75011   0.00000  Uiso   1.00
C588   C     0.16661   0.29085   0.75015   0.00000  Uiso   1.00
C589   C     0.31659   0.13426   0.73123   0.00000  Uiso   1.00
C590   C     0.01665   0.19897   0.76902   0.00000  Uiso   1.00
C591   C     0.03108   0.13417   0.73149   0.00000  Uiso   1.00
C592   C     0.30201   0.19892   0.76908   0.00000  Uiso   1.00
C593   C     0.13656   0.16680   0.83776   0.00000  Uiso   1.00
C594   C     0.19678   0.16585   0.66202   0.00000  Uiso   1.00
C595   C     0.11912   0.17343   0.88744   0.00000  Uiso   1.00
C596   C     0.21503   0.16718   0.61138   0.00000  Uiso   1.00
C597   C     0.06619   0.21101   0.95420   0.00000  Uiso   1.00
C598   C     0.28193   0.17182   0.53765   0.00000  Uiso   1.00
C599   C     0.07691   0.19685   0.90930   0.00000  Uiso   1.00
C600   C     0.26518   0.16936   0.58566   0.00000  Uiso   1.00
C601   C     0.15028   0.16370   0.91085   0.00000  Uiso   1.00
C602   C     0.18194   0.16825   0.58828   0.00000  Uiso   1.00
C603   C     0.14419   0.18407   0.95246   0.00000  Uiso   1.00
C604   C     0.19848   0.17961   0.54170   0.00000  Uiso   1.00
C605   C     0.09934   0.20444   0.97619   0.00000  Uiso   1.00
C606   C     0.24877   0.17673   0.51534   0.00000  Uiso   1.00
C607   C     0.18035   0.18363   0.97220   0.00000  Uiso   1.00
C608   C     0.16590   0.19029   0.51982   0.00000  Uiso   1.00
H609   H     0.05415   0.23310   0.54038   0.00000  Uiso   1.00
H610   H     0.30288   0.17536   0.94625   0.00000  Uiso   1.00
H611   H     0.29141   0.16765   0.60246   0.00000  Uiso   1.00
H612   H     0.05290   0.20497   0.89136   0.00000  Uiso   1.00
H613   H     0.03287   0.22827   0.97111   0.00000  Uiso   1.00
H614   H     0.32061   0.17014   0.51818   0.00000  Uiso   1.00
H615   H     0.11038   0.21899   0.57936   0.00000  Uiso   1.00
H616   H     0.24405   0.17953   0.90850   0.00000  Uiso   1.00
H617   H     0.23114   0.29582   0.76790   0.00000  Uiso   1.00
H618   H     0.10204   0.03750   0.73242   0.00000  Uiso   1.00
H619   H     0.23114   0.03761   0.76787   0.00000  Uiso   1.00
H620   H     0.10201   0.29574   0.73249   0.00000  Uiso   1.00
H621   H     0.30433   0.10838   0.71608   0.00000  Uiso   1.00
H622   H     0.02887   0.22478   0.78430   0.00000  Uiso   1.00
H623   H     0.05488   0.10813   0.71671   0.00000  Uiso   1.00
H624   H     0.27798   0.22469   0.78445   0.00000  Uiso   1.00
N625   N     0.04759   0.16668   0.75001   0.00000  Uiso   1.00
N626   N     0.28574   0.16666   0.74999   0.00000  Uiso   1.00
O627   O     0.12846   0.22775   0.75001   0.00000  Uiso   1.00
O628   O     0.20488   0.10558   0.75000   0.00000  Uiso   1.00
O629   O     0.20490   0.22774   0.75000   0.00000  Uiso   1.00
O630   O     0.12843   0.10559   0.75000   0.00000  Uiso   1.00
O631   O     0.10661   0.16667   0.81613   0.00000  Uiso   1.00
O632   O     0.22672   0.16666   0.68388   0.00000  Uiso   1.00
O633   O     0.18305   0.16666   0.81612   0.00000  Uiso   1.00
O634   O     0.15028   0.16667   0.68388   0.00000  Uiso   1.00
Zn635  Zn    0.11562   0.16667   0.75000   0.00000  Uiso   1.00
Zn636  Zn    0.21771   0.16666   0.75000   0.00000  Uiso   1.00
C637   C     0.13388   0.14964   0.60869   0.00000  Uiso   1.00
N638   N     0.09570   0.13467   0.62440   0.00000  Uiso   1.00
C639   C     0.18393   0.12900   0.89491   0.00000  Uiso   1.00
N640   N     0.21058   0.10131   0.88218   0.00000  Uiso   1.00
C641   C     0.49999   0.24671   0.75006   0.00000  Uiso   1.00
C642   C     0.49997   0.08663   0.75002   0.00000  Uiso   1.00
C643   C     0.45373   0.20912   0.54384   0.00000  Uiso   1.00
C644   C     0.56388   0.17935   0.94580   0.00000  Uiso   1.00
C645   C     0.42163   0.21764   0.52158   0.00000  Uiso   1.00
C646   C     0.59790   0.17768   0.96723   0.00000  Uiso   1.00
C647   C     0.53633   0.31205   0.75996   0.00000  Uiso   1.00
C648   C     0.46351   0.02129   0.74037   0.00000  Uiso   1.00
C649   C     0.53633   0.02134   0.75994   0.00000  Uiso   1.00
C650   C     0.46350   0.31200   0.74040   0.00000  Uiso   1.00
C651   C     0.49994   0.04248   0.75011   0.00000  Uiso   1.00
C652   C     0.49994   0.29085   0.75015   0.00000  Uiso   1.00
C653   C     0.64992   0.13426   0.73123   0.00000  Uiso   1.00
C654   C     0.34998   0.19897   0.76902   0.00000  Uiso   1.00
C655   C     0.36442   0.13417   0.73149   0.00000  Uiso   1.00
C656   C     0.63535   0.19892   0.76908   0.00000  Uiso   1.00
C657   C     0.46990   0.16680   0.83776   0.00000  Uiso   1.00
C658   C     0.53011   0.16585   0.66202   0.00000  Uiso   1.00
C659   C     0.45245   0.17343   0.88744   0.00000  Uiso   1.00
C660   C     0.54836   0.16718   0.61138   0.00000  Uiso   1.00
C661   C     0.39952   0.21101   0.95420   0.00000  Uiso   1.00
C662   C     0.61527   0.17182   0.53765   0.00000  Uiso   1.00
C663   C     0.41025   0.19685   0.90930   0.00000  Uiso   1.00
C664   C     0.59851   0.16936   0.58566   0.00000  Uiso   1.00
C665   C     0.48362   0.16370   0.91085   0.00000  Uiso   1.00
C666   C     0.51527   0.16825   0.58828   0.00000  Uiso   1.00
C667   C     0.47752   0.18407   0.95246   0.00000  Uiso   1.00
C668   C     0.53182   0.17961   0.54170   0.00000  Uiso   1.00
C669   C     0.43267   0.20444   0.97619   0.00000  Uiso   1.00
C670   C     0.58210   0.17673   0.51534   0.00000  Uiso   1.00
C671   C     0.51368   0.18363   0.97220   0.00000  Uiso   1.00
C672   C     0.49923   0.19029   0.51982   0.00000  Uiso   1.00
H673   H     0.38749   0.23310   0.54038   0.00000  Uiso   1.00
H674   H     0.63622   0.17536   0.94625   0.00000  Uiso   1.00
H675   H     0.62475   0.16765   0.60246   0.00000  Uiso   1.00
H676   H     0.38623   0.20497   0.89136   0.00000  Uiso   1.00
H677   H     0.36620   0.22827   0.97111   0.00000  Uiso   1.00
H678   H     0.65394   0.17014   0.51818   0.00000  Uiso   1.00
H679   H     0.44372   0.21899   0.57936   0.00000  Uiso   1.00
H680   H     0.57738   0.17953   0.90850   0.00000  Uiso   1.00
H681   H     0.56447   0.29582   0.76790   0.00000  Uiso   1.00
H682   H     0.43537   0.03750   0.73242   0.00000  Uiso   1.00
H683   H     0.56448   0.03761   0.76787   0.00000  Uiso   1.00
H684   H     0.43534   0.29574   0.73249   0.00000  Uiso   1.00
H685   H     0.63766   0.10838   0.71608   0.00000  Uiso   1.00
H686   H     0.36220   0.22478   0.78430   0.00000  Uiso   1.00
H687   H     0.38821   0.10813   0.71671   0.00000  Uiso   1.00
H688   H     0.61132   0.22469   0.78445   0.00000  Uiso   1.00
N689   N     0.38093   0.16668   0.75001   0.00000  Uiso   1.00
N690   N     0.61907   0.16666   0.74999   0.00000  Uiso   1.00
O691   O     0.46179   0.22775   0.75001   0.00000  Uiso   1.00
O692   O     0.53821   0.10558   0.75000   0.00000  Uiso   1.00
O693   O     0.53823   0.22774   0.75000   0.00000  Uiso   1.00
O694   O     0.46177   0.10559   0.75000   0.00000  Uiso   1.00
O695   O     0.43994   0.16667   0.81613   0.00000  Uiso   1.00
O696   O     0.56006   0.16666   0.68388   0.00000  Uiso   1.00
O697   O     0.51639   0.16666   0.81612   0.00000  Uiso   1.00
O698   O     0.48361   0.16667   0.68388   0.00000  Uiso   1.00
Zn699  Zn    0.44896   0.16667   0.75000   0.00000  Uiso   1.00
Zn700  Zn    0.55104   0.16666   0.75000   0.00000  Uiso   1.00
C701   C     0.46721   0.14964   0.60869   0.00000  Uiso   1.00
N702   N     0.42904   0.13467   0.62440   0.00000  Uiso   1.00
C703   C     0.51726   0.12900   0.89491   0.00000  Uiso   1.00
N704   N     0.54391   0.10131   0.88218   0.00000  Uiso   1.00
C705   C     0.83333   0.24671   0.75006   0.00000  Uiso   1.00
C706   C     0.83331   0.08663   0.75002   0.00000  Uiso   1.00
C707   C     0.78707   0.20912   0.54384   0.00000  Uiso   1.00
C708   C     0.89721   0.17935   0.94580   0.00000  Uiso   1.00
C709   C     0.75497   0.21764   0.52158   0.00000  Uiso   1.00
C710   C     0.93123   0.17768   0.96723   0.00000  Uiso   1.00
C711   C     0.86967   0.31205   0.75996   0.00000  Uiso   1.00
C712   C     0.79684   0.02129   0.74037   0.00000  Uiso   1.00
C713   C     0.86967   0.02134   0.75994   0.00000  Uiso   1.00
C714   C     0.79683   0.31200   0.74040   0.00000  Uiso   1.00
C715   C     0.83327   0.04248   0.75011   0.00000  Uiso   1.00
C716   C     0.83328   0.29085   0.75015   0.00000  Uiso   1.00
C717   C     0.98326   0.13426   0.73123   0.00000  Uiso   1.00
C718   C     0.68331   0.19897   0.76902   0.00000  Uiso   1.00
C719   C     0.69775   0.13417   0.73149   0.00000  Uiso   1.00
C720   C     0.96868   0.19892   0.76908   0.00000  Uiso   1.00
C721   C     0.80323   0.16680   0.83776   0.00000  Uiso   1.00
C722   C     0.86344   0.16585   0.66202   0.00000  Uiso   1.00
C723   C     0.78579   0.17343   0.88744   0.00000  Uiso   1.00
C724   C     0.88169   0.16718   0.61138   0.00000  Uiso   1.00
C725   C     0.73285   0.21101   0.95420   0.00000  Uiso   1.00
C726   C     0.94860   0.17182   0.53765   0.00000  Uiso   1.00
C727   C     0.74358   0.19685   0.90930   0.00000  Uiso   1.00
C728   C     0.93184   0.16936   0.58566   0.00000  Uiso   1.00
C729   C     0.81695   0.16370   0.91085   0.00000  Uiso   1.00
C730   C     0.84860   0.16825   0.58828   0.00000  Uiso   1.00
C731   C     0.81086   0.18407   0.95246   0.00000  Uiso   1.00
C732   C     0.86515   0.17961   0.54170   0.00000  Uiso   1.00
C733   C     0.76600   0.20444   0.97619   0.00000  Uiso   1.00
C734   C     0.91544   0.17673   0.51534   0.00000  Uiso   1.00
C735   C     0.84701   0.18363   0.97220   0.00000  Uiso   1.00
C736   C     0.83257   0.19029   0.51982   0.00000  Uiso   1.00
H737   H     0.72082   0.23310   0.54038   0.00000  Uiso   1.00
H738   H     0.96955   0.17536   0.94625   0.00000  Uiso   1.00
H739   H     0.95808   0.16765   0.60246   0.00000  Uiso   1.00
H740   H     0.71956   0.20497   0.89136   0.00000  Uiso   1.00
H741   H     0.69953   0.22827   0.97111   0.00000  Uiso   1.00
H742   H     0.98727   0.17014   0.51818   0.00000  Uiso   1.00
H743   H     0.77705   0.21899   0.57936   0.00000  Uiso   1.00
H744   H     0.91071   0.17953   0.90850   0.00000  Uiso   1.00
H745   H     0.89781   0.29582   0.76790   0.00000  Uiso   1.00
H746   H     0.76870   0.03750   0.73242   0.00000  Uiso   1.00
H747   H     0.89781   0.03761   0.76787   0.00000  Uiso   1.00
H748   H     0.76868   0.29574   0.73249   0.00000  Uiso   1.00
H749   H     0.97099   0.10838   0.71608   0.00000  Uiso   1.00
H750   H     0.69554   0.22478   0.78430   0.00000  Uiso   1.00
H751   H     0.72154   0.10813   0.71671   0.00000  Uiso   1.00
H752   H     0.94465   0.22469   0.78445   0.00000  Uiso   1.00
N753   N     0.71426   0.16668   0.75001   0.00000  Uiso   1.00
N754   N     0.95241   0.16666   0.74999   0.00000  Uiso   1.00
O755   O     0.79512   0.22775   0.75001   0.00000  Uiso   1.00
O756   O     0.87154   0.10558   0.75000   0.00000  Uiso   1.00
O757   O     0.87157   0.22774   0.75000   0.00000  Uiso   1.00
O758   O     0.79510   0.10559   0.75000   0.00000  Uiso   1.00
O759   O     0.77328   0.16667   0.81613   0.00000  Uiso   1.00
O760   O     0.89339   0.16666   0.68388   0.00000  Uiso   1.00
O761   O     0.84972   0.16666   0.81612   0.00000  Uiso   1.00
O762   O     0.81695   0.16667   0.68388   0.00000  Uiso   1.00
Zn763  Zn    0.78229   0.16667   0.75000   0.00000  Uiso   1.00
Zn764  Zn    0.88438   0.16666   0.75000   0.00000  Uiso   1.00
C765   C     0.80054   0.14964   0.60869   0.00000  Uiso   1.00
N766   N     0.76237   0.13467   0.62440   0.00000  Uiso   1.00
C767   C     0.85059   0.12900   0.89491   0.00000  Uiso   1.00
N768   N     0.87724   0.10131   0.88218   0.00000  Uiso   1.00
C769   C     0.16666   0.58004   0.75006   0.00000  Uiso   1.00
C770   C     0.16664   0.41996   0.75002   0.00000  Uiso   1.00
C771   C     0.12040   0.54245   0.54384   0.00000  Uiso   1.00
C772   C     0.23054   0.51268   0.94580   0.00000  Uiso   1.00
C773   C     0.08830   0.55097   0.52158   0.00000  Uiso   1.00
C774   C     0.26457   0.51101   0.96723   0.00000  Uiso   1.00
C775   C     0.20300   0.64538   0.75996   0.00000  Uiso   1.00
C776   C     0.13018   0.35462   0.74037   0.00000  Uiso   1.00
C777   C     0.20300   0.35467   0.75994   0.00000  Uiso   1.00
C778   C     0.13017   0.64533   0.74040   0.00000  Uiso   1.00
C779   C     0.16661   0.37582   0.75011   0.00000  Uiso   1.00
C780   C     0.16661   0.62419   0.75015   0.00000  Uiso   1.00
C781   C     0.31659   0.46759   0.73123   0.00000  Uiso   1.00
C782   C     0.01665   0.53230   0.76902   0.00000  Uiso   1.00
C783   C     0.03108   0.46750   0.73149   0.00000  Uiso   1.00
C784   C     0.30201   0.53226   0.76908   0.00000  Uiso   1.00
C785   C     0.13656   0.50013   0.83776   0.00000  Uiso   1.00
C786   C     0.19678   0.49919   0.66202   0.00000  Uiso   1.00
C787   C     0.11912   0.50677   0.88744   0.00000  Uiso   1.00
C788   C     0.21503   0.50051   0.61138   0.00000  Uiso   1.00
C789   C     0.06619   0.54434   0.95420   0.00000  Uiso   1.00
C790   C     0.28193   0.50516   0.53765   0.00000  Uiso   1.00
C791   C     0.07691   0.53019   0.90930   0.00000  Uiso   1.00
C792   C     0.26518   0.50269   0.58566   0.00000  Uiso   1.00
C793   C     0.15028   0.49703   0.91085   0.00000  Uiso   1.00
C794   C     0.18194   0.50158   0.58828   0.00000  Uiso   1.00
C795   C     0.14419   0.51740   0.95246   0.00000  Uiso   1.00
C796   C     0.19848   0.51295   0.54170   0.00000  Uiso   1.00
C797   C     0.09934   0.53777   0.97619   0.00000  Uiso   1.00
C798   C     0.24877   0.51007   0.51534   0.00000  Uiso   1.00
C799   C     0.18035   0.51697   0.97220   0.00000  Uiso   1.00
C800   C     0.16590   0.52362   0.51982   0.00000  Uiso   1.00
H801   H     0.05415   0.56644   0.54038   0.00000  Uiso   1.00
H802   H     0.30288   0.50869   0.94625   0.00000  Uiso   1.00
H803   H     0.29141   0.50099   0.60246   0.00000  Uiso   1.00
H804   H     0.05290   0.53830   0.89136   0.00000  Uiso   1.00
H805   H     0.03287   0.56160   0.97111   0.00000  Uiso   1.00
H806   H     0.32061   0.50347   0.51818   0.00000  Uiso   1.00
H807   H     0.11038   0.55232   0.57936   0.00000  Uiso   1.00
H808   H     0.24405   0.51286   0.90850   0.00000  Uiso   1.00
H809   H     0.23114   0.62916   0.76790   0.00000  Uiso   1.00
H810   H     0.10204   0.37084   0.73242   0.00000  Uiso   1.00
H811   H     0.23114   0.37094   0.76787   0.00000  Uiso   1.00
H812   H     0.10201   0.62908   0.73249   0.00000  Uiso   1.00
H813   H     0.30433   0.44171   0.71608   0.00000  Uiso   1.00
H814   H     0.02887   0.55812   0.78430   0.00000  Uiso   1.00
H815   H     0.05488   0.44146   0.71671   0.00000  Uiso   1.00
H816   H     0.27798   0.55802   0.78445   0.00000  Uiso   1.00
N817   N     0.04759   0.50001   0.75001   0.00000  Uiso   1.00
N818   N     0.28574   0.49999   0.74999   0.00000  Uiso   1.00
O819   O     0.12846   0.56108   0.75001   0.00000  Uiso   1.00
O820   O     0.20488   0.43892   0.75000   0.00000  Uiso   1.00
O821   O     0.20490   0.56107   0.75000   0.00000  Uiso   1.00
O822   O     0.12843   0.43893   0.75000   0.00000  Uiso   1.00
O823   O     0.10661   0.50001   0.81613   0.00000  Uiso   1.00
O824   O     0.22672   0.49999   0.68388   0.00000  Uiso   1.00
O825   O     0.18305   0.50000   0.81612   0.00000  Uiso   1.00
O826   O     0.15028   0.50000   0.68388   0.00000  Uiso   1.00
Zn827  Zn    0.11562   0.50001   0.75000   0.00000  Uiso   1.00
Zn828  Zn    0.21771   0.49999   0.75000   0.00000  Uiso   1.00
C829   C     0.13388   0.48297   0.60869   0.00000  Uiso   1.00
N830   N     0.09570   0.46800   0.62440   0.00000  Uiso   1.00
C831   C     0.18393   0.46233   0.89491   0.00000  Uiso   1.00
N832   N     0.21058   0.43464   0.88218   0.00000  Uiso   1.00
C833   C     0.49999   0.58004   0.75006   0.00000  Uiso   1.00
C834   C     0.49997   0.41996   0.75002   0.00000  Uiso   1.00
C835   C     0.45373   0.54245   0.54384   0.00000  Uiso   1.00
C836   C     0.56388   0.51268   0.94580   0.00000  Uiso   1.00
C837   C     0.42163   0.55097   0.52158   0.00000  Uiso   1.00
C838   C     0.59790   0.51101   0.96723   0.00000  Uiso   1.00
C839   C     0.53633   0.64538   0.75996   0.00000  Uiso   1.00
C840   C     0.46351   0.35462   0.74037   0.00000  Uiso   1.00
C841   C     0.53633   0.35467   0.75994   0.00000  Uiso   1.00
C842   C     0.46350   0.64533   0.74040   0.00000  Uiso   1.00
C843   C     0.49994   0.37582   0.75011   0.00000  Uiso   1.00
C844   C     0.49994   0.62419   0.75015   0.00000  Uiso   1.00
C845   C     0.64992   0.46759   0.73123   0.00000  Uiso   1.00
C846   C     0.34998   0.53230   0.76902   0.00000  Uiso   1.00
C847   C     0.36442   0.46750   0.73149   0.00000  Uiso   1.00
C848   C     0.63535   0.53226   0.76908   0.00000  Uiso   1.00
C849   C     0.46990   0.50013   0.83776   0.00000  Uiso   1.00
C850   C     0.53011   0.49919   0.66202   0.00000  Uiso   1.00
C851   C     0.45245   0.50677   0.88744   0.00000  Uiso   1.00
C852   C     0.54836   0.50051   0.61138   0.00000  Uiso   1.00
C853   C     0.39952   0.54434   0.95420   0.00000  Uiso   1.00
C854   C     0.61527   0.50516   0.53765   0.00000  Uiso   1.00
C855   C     0.41025   0.53019   0.90930   0.00000  Uiso   1.00
C856   C     0.59851   0.50269   0.58566   0.00000  Uiso   1.00
C857   C     0.48362   0.49703   0.91085   0.00000  Uiso   1.00
C858   C     0.51527   0.50158   0.58828   0.00000  Uiso   1.00
C859   C     0.47752   0.51740   0.95246   0.00000  Uiso   1.00
C860   C     0.53182   0.51295   0.54170   0.00000  Uiso   1.00
C861   C     0.43267   0.53777   0.97619   0.00000  Uiso   1.00
C862   C     0.58210   0.51007   0.51534   0.00000  Uiso   1.00
C863   C     0.51368   0.51697   0.97220   0.00000  Uiso   1.00
C864   C     0.49923   0.52362   0.51982   0.00000  Uiso   1.00
H865   H     0.38749   0.56644   0.54038   0.00000  Uiso   1.00
H866   H     0.63622   0.50869   0.94625   0.00000  Uiso   1.00
H867   H     0.62475   0.50099   0.60246   0.00000  Uiso   1.00
H868   H     0.38623   0.53830   0.89136   0.00000  Uiso   1.00
H869   H     0.36620   0.56160   0.97111   0.00000  Uiso   1.00
H870   H     0.65394   0.50347   0.51818   0.00000  Uiso   1.00
H871   H     0.44372   0.55232   0.57936   0.00000  Uiso   1.00
H872   H     0.57738   0.51286   0.90850   0.00000  Uiso   1.00
H873   H     0.56447   0.62916   0.76790   0.00000  Uiso   1.00
H874   H     0.43537   0.37084   0.73242   0.00000  Uiso   1.00
H875   H     0.56448   0.37094   0.76787   0.00000  Uiso   1.00
H876   H     0.43534   0.62908   0.73249   0.00000  Uiso   1.00
H877   H     0.63766   0.44171   0.71608   0.00000  Uiso   1.00
H878   H     0.36220   0.55812   0.78430   0.00000  Uiso   1.00
H879   H     0.38821   0.44146   0.71671   0.00000  Uiso   1.00
H880   H     0.61132   0.55802   0.78445   0.00000  Uiso   1.00
N881   N     0.38093   0.50001   0.75001   0.00000  Uiso   1.00
N882   N     0.61907   0.49999   0.74999   0.00000  Uiso   1.00
O883   O     0.46179   0.56108   0.75001   0.00000  Uiso   1.00
O884   O     0.53821   0.43892   0.75000   0.00000  Uiso   1.00
O885   O     0.53823   0.56107   0.75000   0.00000  Uiso   1.00
O886   O     0.46177   0.43893   0.75000   0.00000  Uiso   1.00
O887   O     0.43994   0.50001   0.81613   0.00000  Uiso   1.00
O888   O     0.56006   0.49999   0.68388   0.00000  Uiso   1.00
O889   O     0.51639   0.50000   0.81612   0.00000  Uiso   1.00
O890   O     0.48361   0.50000   0.68388   0.00000  Uiso   1.00
Zn891  Zn    0.44896   0.50001   0.75000   0.00000  Uiso   1.00
Zn892  Zn    0.55104   0.49999   0.75000   0.00000  Uiso   1.00
C893   C     0.46721   0.48297   0.60869   0.00000  Uiso   1.00
N894   N     0.42904   0.46800   0.62440   0.00000  Uiso   1.00
C895   C     0.51726   0.46233   0.89491   0.00000  Uiso   1.00
N896   N     0.54391   0.43464   0.88218   0.00000  Uiso   1.00
C897   C     0.83333   0.58004   0.75006   0.00000  Uiso   1.00
C898   C     0.83331   0.41996   0.75002   0.00000  Uiso   1.00
C899   C     0.78707   0.54245   0.54384   0.00000  Uiso   1.00
C900   C     0.89721   0.51268   0.94580   0.00000  Uiso   1.00
C901   C     0.75497   0.55097   0.52158   0.00000  Uiso   1.00
C902   C     0.93123   0.51101   0.96723   0.00000  Uiso   1.00
C903   C     0.86967   0.64538   0.75996   0.00000  Uiso   1.00
C904   C     0.79684   0.35462   0.74037   0.00000  Uiso   1.00
C905   C     0.86967   0.35467   0.75994   0.00000  Uiso   1.00
C906   C     0.79683   0.64533   0.74040   0.00000  Uiso   1.00
C907   C     0.83327   0.37582   0.75011   0.00000  Uiso   1.00
C908   C     0.83328   0.62419   0.75015   0.00000  Uiso   1.00
C909   C     0.98326   0.46759   0.73123   0.00000  Uiso   1.00
C910   C     0.68331   0.53230   0.76902   0.00000  Uiso   1.00
C911   C     0.69775   0.46750   0.73149   0.00000  Uiso   1.00
C912   C     0.96868   0.53226   0.76908   0.00000  Uiso   1.00
C913   C     0.80323   0.50013   0.83776   0.00000  Uiso   1.00
C914   C     0.86344   0.49919   0.66202   0.00000  Uiso   1.00
C915   C     0.78579   0.50677   0.88744   0.00000  Uiso   1.00
C916   C     0.88169   0.50051   0.61138   0.00000  Uiso   1.00
C917   C     0.73285   0.54434   0.95420   0.00000  Uiso   1.00
C918   C     0.94860   0.50516   0.53765   0.00000  Uiso   1.00
C919   C     0.74358   0.53019   0.90930   0.00000  Uiso   1.00
C920   C     0.93184   0.50269   0.58566   0.00000  Uiso   1.00
C921   C     0.81695   0.49703   0.91085   0.00000  Uiso   1.00
C922   C     0.84860   0.50158   0.58828   0.00000  Uiso   1.00
C923   C     0.81086   0.51740   0.95246   0.00000  Uiso   1.00
C924   C     0.86515   0.51295   0.54170   0.00000  Uiso   1.00
C925   C     0.76600   0.53777   0.97619   0.00000  Uiso   1.00
C926   C     0.91544   0.51007   0.51534   0.00000  Uiso   1.00
C927   C     0.84701   0.51697   0.97220   0.00000  Uiso   1.00
C928   C     0.83257   0.52362   0.51982   0.00000  Uiso   1.00
H929   H     0.72082   0.56644   0.54038   0.00000  Uiso   1.00
H930   H     0.96955   0.50869   0.94625   0.00000  Uiso   1.00
H931   H     0.95808   0.50099   0.60246   0.00000  Uiso   1.00
H932   H     0.71956   0.53830   0.89136   0.00000  Uiso   1.00
H933   H     0.69953   0.56160   0.97111   0.00000  Uiso   1.00
H934   H     0.98727   0.50347   0.51818   0.00000  Uiso   1.00
H935   H     0.77705   0.55232   0.57936   0.00000  Uiso   1.00
H936   H     0.91071   0.51286   0.90850   0.00000  Uiso   1.00
H937   H     0.89781   0.62916   0.76790   0.00000  Uiso   1.00
H938   H     0.76870   0.37084   0.73242   0.00000  Uiso   1.00
H939   H     0.89781   0.37094   0.76787   0.00000  Uiso   1.00
H940   H     0.76868   0.62908   0.73249   0.00000  Uiso   1.00
H941   H     0.97099   0.44171   0.71608   0.00000  Uiso   1.00
H942   H     0.69554   0.55812   0.78430   0.00000  Uiso   1.00
H943   H     0.72154   0.44146   0.71671   0.00000  Uiso   1.00
H944   H     0.94465   0.55802   0.78445   0.00000  Uiso   1.00
N945   N     0.71426   0.50001   0.75001   0.00000  Uiso   1.00
N946   N     0.95241   0.49999   0.74999   0.00000  Uiso   1.00
O947   O     0.79512   0.56108   0.75001   0.00000  Uiso   1.00
O948   O     0.87154   0.43892   0.75000   0.00000  Uiso   1.00
O949   O     0.87157   0.56107   0.75000   0.00000  Uiso   1.00
O950   O     0.79510   0.43893   0.75000   0.00000  Uiso   1.00
O951   O     0.77328   0.50001   0.81613   0.00000  Uiso   1.00
O952   O     0.89339   0.49999   0.68388   0.00000  Uiso   1.00
O953   O     0.84972   0.50000   0.81612   0.00000  Uiso   1.00
O954   O     0.81695   0.50000   0.68388   0.00000  Uiso   1.00
Zn955  Zn    0.78229   0.50001   0.75000   0.00000  Uiso   1.00
Zn956  Zn    0.88438   0.49999   0.75000   0.00000  Uiso   1.00
C957   C     0.80054   0.48297   0.60869   0.00000  Uiso   1.00
N958   N     0.76237   0.46800   0.62440   0.00000  Uiso   1.00
C959   C     0.85059   0.46233   0.89491   0.00000  Uiso   1.00
N960   N     0.87724   0.43464   0.88218   0.00000  Uiso   1.00
C961   C     0.16666   0.91337   0.75006   0.00000  Uiso   1.00
C962   C     0.16664   0.75329   0.75002   0.00000  Uiso   1.00
C963   C     0.12040   0.87578   0.54384   0.00000  Uiso   1.00
C964   C     0.23054   0.84602   0.94580   0.00000  Uiso   1.00
C965   C     0.08830   0.88431   0.52158   0.00000  Uiso   1.00
C966   C     0.26457   0.84435   0.96723   0.00000  Uiso   1.00
C967   C     0.20300   0.97872   0.75996   0.00000  Uiso   1.00
C968   C     0.13018   0.68795   0.74037   0.00000  Uiso   1.00
C969   C     0.20300   0.68801   0.75994   0.00000  Uiso   1.00
C970   C     0.13017   0.97867   0.74040   0.00000  Uiso   1.00
C971   C     0.16661   0.70915   0.75011   0.00000  Uiso   1.00
C972   C     0.16661   0.95752   0.75015   0.00000  Uiso   1.00
C973   C     0.31659   0.80093   0.73123   0.00000  Uiso   1.00
C974   C     0.01665   0.86563   0.76902   0.00000  Uiso   1.00
C975   C     0.03108   0.80083   0.73149   0.00000  Uiso   1.00
C976   C     0.30201   0.86559   0.76908   0.00000  Uiso   1.00
C977   C     0.13656   0.83346   0.83776   0.00000  Uiso   1.00
C978   C     0.19678   0.83252   0.66202   0.00000  Uiso   1.00
C979   C     0.11912   0.84010   0.88744   0.00000  Uiso   1.00
C980   C     0.21503   0.83385   0.61138   0.00000  Uiso   1.00
C981   C     0.06619   0.87768   0.95420   0.00000  Uiso   1.00
C982   C     0.28193   0.83849   0.53765   0.00000  Uiso   1.00
C983   C     0.07691   0.86352   0.90930   0.00000  Uiso   1.00
C984   C     0.26518   0.83602   0.58566   0.00000  Uiso   1.00
C985   C     0.15028   0.83036   0.91085   0.00000  Uiso   1.00
C986   C     0.18194   0.83491   0.58828   0.00000  Uiso   1.00
C987   C     0.14419   0.85074   0.95246   0.00000  Uiso   1.00
C988   C     0.19848   0.84628   0.54170   0.00000  Uiso   1.00
C989   C     0.09934   0.87111   0.97619   0.00000  Uiso   1.00
C990   C     0.24877   0.84340   0.51534   0.00000  Uiso   1.00
C991   C     0.18035   0.85030   0.97220   0.00000  Uiso   1.00
C992   C     0.16590   0.85696   0.51982   0.00000  Uiso   1.00
H993   H     0.05415   0.89977   0.54038   0.00000  Uiso   1.00
H994   H     0.30288   0.84202   0.94625   0.00000  Uiso   1.00
H995   H     0.29141   0.83432   0.60246   0.00000  Uiso   1.00
H996   H     0.05290   0.87164   0.89136   0.00000  Uiso   1.00
H997   H     0.03287   0.89493   0.97111   0.00000  Uiso   1.00
H998   H     0.32061   0.83681   0.51818   0.00000  Uiso   1.00
H999   H     0.11038   0.88566   0.57936   0.00000  Uiso   1.00
H1000  H     0.24405   0.84619   0.90850   0.00000  Uiso   1.00
H1001  H     0.23114   0.96249   0.76790   0.00000  Uiso   1.00
H1002  H     0.10204   0.70417   0.73242   0.00000  Uiso   1.00
H1003  H     0.23114   0.70427   0.76787   0.00000  Uiso   1.00
H1004  H     0.10201   0.96241   0.73249   0.00000  Uiso   1.00
H1005  H     0.30433   0.77505   0.71608   0.00000  Uiso   1.00
H1006  H     0.02887   0.89145   0.78430   0.00000  Uiso   1.00
H1007  H     0.05488   0.77479   0.71671   0.00000  Uiso   1.00
H1008  H     0.27798   0.89135   0.78445   0.00000  Uiso   1.00
N1009  N     0.04759   0.83334   0.75001   0.00000  Uiso   1.00
N1010  N     0.28574   0.83332   0.74999   0.00000  Uiso   1.00
O1011  O     0.12846   0.89442   0.75001   0.00000  Uiso   1.00
O1012  O     0.20488   0.77225   0.75000   0.00000  Uiso   1.00
O1013  O     0.20490   0.89441   0.75000   0.00000  Uiso   1.00
O1014  O     0.12843   0.77226   0.75000   0.00000  Uiso   1.00
O1015  O     0.10661   0.83334   0.81613   0.00000  Uiso   1.00
O1016  O     0.22672   0.83333   0.68388   0.00000  Uiso   1.00
O1017  O     0.18305   0.83333   0.81612   0.00000  Uiso   1.00
O1018  O     0.15028   0.83334   0.68388   0.00000  Uiso   1.00
Zn1019 Zn    0.11562   0.83334   0.75000   0.00000  Uiso   1.00
Zn1020 Zn    0.21771   0.83333   0.75000   0.00000  Uiso   1.00
C1021  C     0.13388   0.81630   0.60869   0.00000  Uiso   1.00
N1022  N     0.09570   0.80134   0.62440   0.00000  Uiso   1.00
C1023  C     0.18393   0.79566   0.89491   0.00000  Uiso   1.00
N1024  N     0.21058   0.76798   0.88218   0.00000  Uiso   1.00
C1025  C     0.49999   0.91337   0.75006   0.00000  Uiso   1.00
C1026  C     0.49997   0.75329   0.75002   0.00000  Uiso   1.00
C1027  C     0.45373   0.87578   0.54384   0.00000  Uiso   1.00
C1028  C     0.56388   0.84602   0.94580   0.00000  Uiso   1.00
C1029  C     0.42163   0.88431   0.52158   0.00000  Uiso   1.00
C1030  C     0.59790   0.84435   0.96723   0.00000  Uiso   1.00
C1031  C     0.53633   0.97872   0.75996   0.00000  Uiso   1.00
C1032  C     0.46351   0.68795   0.74037   0.00000  Uiso   1.00
C1033  C     0.53633   0.68801   0.75994   0.00000  Uiso   1.00
C1034  C     0.46350   0.97867   0.74040   0.00000  Uiso   1.00
C1035  C     0.49994   0.70915   0.75011   0.00000  Uiso   1.00
C1036  C     0.49994   0.95752   0.75015   0.00000  Uiso   1.00
C1037  C     0.64992   0.80093   0.73123   0.00000  Uiso   1.00
C1038  C     0.34998   0.86563   0.76902   0.00000  Uiso   1.00
C1039  C     0.36442   0.80083   0.73149   0.00000  Uiso   1.00
C1040  C     0.63535   0.86559   0.76908   0.00000  Uiso   1.00
C1041  C     0.46990   0.83346   0.83776   0.00000  Uiso   1.00
C1042  C     0.53011   0.83252   0.66202   0.00000  Uiso   1.00
C1043  C     0.45245   0.84010   0.88744   0.00000  Uiso   1.00
C1044  C     0.54836   0.83385   0.61138   0.00000  Uiso   1.00
C1045  C     0.39952   0.87768   0.95420   0.00000  Uiso   1.00
C1046  C     0.61527   0.83849   0.53765   0.00000  Uiso   1.00
C1047  C     0.41025   0.86352   0.90930   0.00000  Uiso   1.00
C1048  C     0.59851   0.83602   0.58566   0.00000  Uiso   1.00
C1049  C     0.48362   0.83036   0.91085   0.00000  Uiso   1.00
C1050  C     0.51527   0.83491   0.58828   0.00000  Uiso   1.00
C1051  C     0.47752   0.85074   0.95246   0.00000  Uiso   1.00
C1052  C     0.53182   0.84628   0.54170   0.00000  Uiso   1.00
C1053  C     0.43267   0.87111   0.97619   0.00000  Uiso   1.00
C1054  C     0.58210   0.84340   0.51534   0.00000  Uiso   1.00
C1055  C     0.51368   0.85030   0.97220   0.00000  Uiso   1.00
C1056  C     0.49923   0.85696   0.51982   0.00000  Uiso   1.00
H1057  H     0.38749   0.89977   0.54038   0.00000  Uiso   1.00
H1058  H     0.63622   0.84202   0.94625   0.00000  Uiso   1.00
H1059  H     0.62475   0.83432   0.60246   0.00000  Uiso   1.00
H1060  H     0.38623   0.87164   0.89136   0.00000  Uiso   1.00
H1061  H     0.36620   0.89493   0.97111   0.00000  Uiso   1.00
H1062  H     0.65394   0.83681   0.51818   0.00000  Uiso   1.00
H1063  H     0.44372   0.88566   0.57936   0.00000  Uiso   1.00
H1064  H     0.57738   0.84619   0.90850   0.00000  Uiso   1.00
H1065  H     0.56447   0.96249   0.76790   0.00000  Uiso   1.00
H1066  H     0.43537   0.70417   0.73242   0.00000  Uiso   1.00
H1067  H     0.56448   0.70427   0.76787   0.00000  Uiso   1.00
H1068  H     0.43534   0.96241   0.73249   0.00000  Uiso   1.00
H1069  H     0.63766   0.77505   0.71608   0.00000  Uiso   1.00
H1070  H     0.36220   0.89145   0.78430   0.00000  Uiso   1.00
H1071  H     0.38821   0.77479   0.71671   0.00000  Uiso   1.00
H1072  H     0.61132   0.89135   0.78445   0.00000  Uiso   1.00
N1073  N     0.38093   0.83334   0.75001   0.00000  Uiso   1.00
N1074  N     0.61907   0.83332   0.74999   0.00000  Uiso   1.00
O1075  O     0.46179   0.89442   0.75001   0.00000  Uiso   1.00
O1076  O     0.53821   0.77225   0.75000   0.00000  Uiso   1.00
O1077  O     0.53823   0.89441   0.75000   0.00000  Uiso   1.00
O1078  O     0.46177   0.77226   0.75000   0.00000  Uiso   1.00
O1079  O     0.43994   0.83334   0.81613   0.00000  Uiso   1.00
O1080  O     0.56006   0.83333   0.68388   0.00000  Uiso   1.00
O1081  O     0.51639   0.83333   0.81612   0.00000  Uiso   1.00
O1082  O     0.48361   0.83334   0.68388   0.00000  Uiso   1.00
Zn1083 Zn    0.44896   0.83334   0.75000   0.00000  Uiso   1.00
Zn1084 Zn    0.55104   0.83333   0.75000   0.00000  Uiso   1.00
C1085  C     0.46721   0.81630   0.60869   0.00000  Uiso   1.00
N1086  N     0.42904   0.80134   0.62440   0.00000  Uiso   1.00
C1087  C     0.51726   0.79566   0.89491   0.00000  Uiso   1.00
N1088  N     0.54391   0.76798   0.88218   0.00000  Uiso   1.00
C1089  C     0.83333   0.91337   0.75006   0.00000  Uiso   1.00
C1090  C     0.83331   0.75329   0.75002   0.00000  Uiso   1.00
C1091  C     0.78707   0.87578   0.54384   0.00000  Uiso   1.00
C1092  C     0.89721   0.84602   0.94580   0.00000  Uiso   1.00
C1093  C     0.75497   0.88431   0.52158   0.00000  Uiso   1.00
C1094  C     0.93123   0.84435   0.96723   0.00000  Uiso   1.00
C1095  C     0.86967   0.97872   0.75996   0.00000  Uiso   1.00
C1096  C     0.79684   0.68795   0.74037   0.00000  Uiso   1.00
C1097  C     0.86967   0.68801   0.75994   0.00000  Uiso   1.00
C1098  C     0.79683   0.97867   0.74040   0.00000  Uiso   1.00
C1099  C     0.83327   0.70915   0.75011   0.00000  Uiso   1.00
C1100  C     0.83328   0.95752   0.75015   0.00000  Uiso   1.00
C1101  C     0.98326   0.80093   0.73123   0.00000  Uiso   1.00
C1102  C     0.68331   0.86563   0.76902   0.00000  Uiso   1.00
C1103  C     0.69775   0.80083   0.73149   0.00000  Uiso   1.00
C1104  C     0.96868   0.86559   0.76908   0.00000  Uiso   1.00
C1105  C     0.80323   0.83346   0.83776   0.00000  Uiso   1.00
C1106  C     0.86344   0.83252   0.66202   0.00000  Uiso   1.00
C1107  C     0.78579   0.84010   0.88744   0.00000  Uiso   1.00
C1108  C     0.88169   0.83385   0.61138   0.00000  Uiso   1.00
C1109  C     0.73285   0.87768   0.95420   0.00000  Uiso   1.00
C1110  C     0.94860   0.83849   0.53765   0.00000  Uiso   1.00
C1111  C     0.74358   0.86352   0.90930   0.00000  Uiso   1.00
C1112  C     0.93184   0.83602   0.58566   0.00000  Uiso   1.00
C1113  C     0.81695   0.83036   0.91085   0.00000  Uiso   1.00
C1114  C     0.84860   0.83491   0.58828   0.00000  Uiso   1.00
C1115  C     0.81086   0.85074   0.95246   0.00000  Uiso   1.00
C1116  C     0.86515   0.84628   0.54170   0.00000  Uiso   1.00
C1117  C     0.76600   0.87111   0.97619   0.00000  Uiso   1.00
C1118  C     0.91544   0.84340   0.51534   0.00000  Uiso   1.00
C1119  C     0.84701   0.85030   0.97220   0.00000  Uiso   1.00
C1120  C     0.83257   0.85696   0.51982   0.00000  Uiso   1.00
H1121  H     0.72082   0.89977   0.54038   0.00000  Uiso   1.00
H1122  H     0.96955   0.84202   0.94625   0.00000  Uiso   1.00
H1123  H     0.95808   0.83432   0.60246   0.00000  Uiso   1.00
H1124  H     0.71956   0.87164   0.89136   0.00000  Uiso   1.00
H1125  H     0.69953   0.89493   0.97111   0.00000  Uiso   1.00
H1126  H     0.98727   0.83681   0.51818   0.00000  Uiso   1.00
H1127  H     0.77705   0.88566   0.57936   0.00000  Uiso   1.00
H1128  H     0.91071   0.84619   0.90850   0.00000  Uiso   1.00
H1129  H     0.89781   0.96249   0.76790   0.00000  Uiso   1.00
H1130  H     0.76870   0.70417   0.73242   0.00000  Uiso   1.00
H1131  H     0.89781   0.70427   0.76787   0.00000  Uiso   1.00
H1132  H     0.76868   0.96241   0.73249   0.00000  Uiso   1.00
H1133  H     0.97099   0.77505   0.71608   0.00000  Uiso   1.00
H1134  H     0.69554   0.89145   0.78430   0.00000  Uiso   1.00
H1135  H     0.72154   0.77479   0.71671   0.00000  Uiso   1.00
H1136  H     0.94465   0.89135   0.78445   0.00000  Uiso   1.00
N1137  N     0.71426   0.83334   0.75001   0.00000  Uiso   1.00
N1138  N     0.95241   0.83332   0.74999   0.00000  Uiso   1.00
O1139  O     0.79512   0.89442   0.75001   0.00000  Uiso   1.00
O1140  O     0.87154   0.77225   0.75000   0.00000  Uiso   1.00
O1141  O     0.87157   0.89441   0.75000   0.00000  Uiso   1.00
O1142  O     0.79510   0.77226   0.75000   0.00000  Uiso   1.00
O1143  O     0.77328   0.83334   0.81613   0.00000  Uiso   1.00
O1144  O     0.89339   0.83333   0.68388   0.00000  Uiso   1.00
O1145  O     0.84972   0.83333   0.81612   0.00000  Uiso   1.00
O1146  O     0.81695   0.83334   0.68388   0.00000  Uiso   1.00
Zn1147 Zn    0.78229   0.83334   0.75000   0.00000  Uiso   1.00
Zn1148 Zn    0.88438   0.83333   0.75000   0.00000  Uiso   1.00
C1149  C     0.80054   0.81630   0.60869   0.00000  Uiso   1.00
N1150  N     0.76237   0.80134   0.62440   0.00000  Uiso   1.00
C1151  C     0.85059   0.79566   0.89491   0.00000  Uiso   1.00
N1152  N     0.87724   0.76798   0.88218   0.00000  Uiso   1.00
loop_
_geom_bond_atom_site_label_1
_geom_bond_atom_site_label_2
_geom_bond_distance
_geom_bond_site_symmetry_2
_ccdc_geom_bond_type
C1     O51     1.283   .     A
C1     C12     1.419   .     S
C1     O53     1.283   .     A
C2     O52     1.283   .     A
C2     C11     1.419   .     S
C2     O54     1.283   .     A
C3     C5      1.391   .     A
C3     H39     1.083   .     S
C3     C32     1.413   .     A
C4     C31     1.415   .     A
C4     C6      1.396   .     A
C4     H40     1.082   .     S
C5     H33     1.084   .     S
C5     C605    1.395   1_554 S
C6     H34     1.083   .     S
C6     C606    1.397   .     S
C7     C12     1.397   .     A
C7     H41     1.084   .     S
C7     C201    1.370   .     S
C8     C11     1.397   .     A
C8     H42     1.084   .     S
C8     C394    1.370   1_545 S
C9     C11     1.397   .     A
C9     H43     1.084   .     S
C9     C391    1.370   1_545 S
C10    C12     1.397   .     A
C10    H44     1.084   .     S
C10    C200    1.370   .     S
C13    H45     1.082   .     S
C13    N50     1.366   .     A
C13    C79     1.415   .     S
C14    H46     1.082   .     S
C14    N49     1.366   .     A
C14    C144    1.416   1_455 S
C15    N49     1.366   .     A
C15    H47     1.081   .     S
C15    C141    1.415   1_455 S
C16    H48     1.082   .     S
C16    N50     1.366   .     A
C16    C78     1.416   .     S
C17    O55     1.293   .     A
C17    C19     1.457   .     S
C17    O57     1.290   .     A
C18    C20     1.469   .     S
C18    O56     1.298   .     A
C18    O58     1.291   .     A
C19    C23     1.401   .     A
C19    C25     1.403   .     A
C20    C24     1.405   .     A
C20    C26     1.410   .     A
C21    C23     1.392   .     A
C21    H37     1.084   .     S
C21    C29     1.401   .     A
C22    C24     1.395   .     A
C22    C30     1.401   .     A
C22    H38     1.081   .     S
C23    H36     1.083   .     S
C24    H35     1.083   .     S
C25    C63     1.455   .     S
C25    C27     1.403   .     A
C26    C28     1.400   .     A
C26    C61     1.455   .     S
C27    C29     1.419   .     A
C27    C31     1.413   .     A
C28    C30     1.413   .     A
C28    C32     1.410   .     A
C29    C581    1.395   .     S
C30    C582    1.397   1_554 S
C31    C608    1.402   .     S
C32    C607    1.402   1_554 S
N49    Zn59    2.009   .     S
N50    Zn60    2.009   .     S
O51    Zn59    1.999   .     S
O52    Zn60    1.999   .     S
O53    Zn60    2.000   .     S
O54    Zn59    2.000   .     S
O55    Zn59    1.978   .     S
O56    Zn60    1.978   .     S
O57    Zn60    1.936   .     S
O58    Zn59    1.936   .     S
C61    N62     1.157   .     T
C63    N64     1.158   .     T
C65    O115    1.283   .     A
C65    C76     1.419   .     S
C65    O117    1.283   .     A
C66    O116    1.283   .     A
C66    C75     1.419   .     S
C66    O118    1.283   .     A
C67    C69     1.391   .     A
C67    H103    1.083   .     S
C67    C96     1.413   .     A
C68    C95     1.415   .     A
C68    C70     1.396   .     A
C68    H104    1.082   .     S
C69    H97     1.084   .     S
C69    C669    1.395   1_554 S
C70    H98     1.083   .     S
C70    C670    1.397   .     S
C71    C76     1.397   .     A
C71    H105    1.084   .     S
C71    C265    1.370   .     S
C72    C75     1.397   .     A
C72    H106    1.084   .     S
C72    C458    1.370   1_545 S
C73    C75     1.397   .     A
C73    H107    1.084   .     S
C73    C455    1.370   1_545 S
C74    C76     1.397   .     A
C74    H108    1.084   .     S
C74    C264    1.370   .     S
C77    H109    1.082   .     S
C77    N114    1.366   .     A
C77    C143    1.415   .     S
C78    H110    1.082   .     S
C78    N113    1.366   .     A
C79    N113    1.366   .     A
C79    H111    1.081   .     S
C80    H112    1.082   .     S
C80    N114    1.366   .     A
C80    C142    1.416   .     S
C81    O119    1.293   .     A
C81    C83     1.457   .     S
C81    O121    1.290   .     A
C82    C84     1.469   .     S
C82    O120    1.298   .     A
C82    O122    1.291   .     A
C83    C87     1.401   .     A
C83    C89     1.403   .     A
C84    C88     1.405   .     A
C84    C90     1.410   .     A
C85    C87     1.392   .     A
C85    H101    1.084   .     S
C85    C93     1.401   .     A
C86    C88     1.395   .     A
C86    C94     1.401   .     A
C86    H102    1.081   .     S
C87    H100    1.083   .     S
C88    H99     1.083   .     S
C89    C127    1.455   .     S
C89    C91     1.403   .     A
C90    C92     1.400   .     A
C90    C125    1.455   .     S
C91    C93     1.419   .     A
C91    C95     1.413   .     A
C92    C94     1.413   .     A
C92    C96     1.410   .     A
C93    C645    1.395   .     S
C94    C646    1.397   1_554 S
C95    C672    1.402   .     S
C96    C671    1.402   1_554 S
N113   Zn123   2.009   .     S
N114   Zn124   2.009   .     S
O115   Zn123   1.999   .     S
O116   Zn124   1.999   .     S
O117   Zn124   2.000   .     S
O118   Zn123   2.000   .     S
O119   Zn123   1.978   .     S
O120   Zn124   1.978   .     S
O121   Zn124   1.936   .     S
O122   Zn123   1.936   .     S
C125   N126    1.157   .     T
C127   N128    1.158   .     T
C129   O179    1.283   .     A
C129   C140    1.419   .     S
C129   O181    1.283   .     A
C130   O180    1.283   .     A
C130   C139    1.419   .     S
C130   O182    1.283   .     A
C131   C133    1.391   .     A
C131   H167    1.083   .     S
C131   C160    1.413   .     A
C132   C159    1.415   .     A
C132   C134    1.396   .     A
C132   H168    1.082   .     S
C133   H161    1.084   .     S
C133   C733    1.395   1_554 S
C134   H162    1.083   .     S
C134   C734    1.397   .     S
C135   C140    1.397   .     A
C135   H169    1.084   .     S
C135   C329    1.370   .     S
C136   C139    1.397   .     A
C136   H170    1.084   .     S
C136   C522    1.370   1_545 S
C137   C139    1.397   .     A
C137   H171    1.084   .     S
C137   C519    1.370   1_545 S
C138   C140    1.397   .     A
C138   H172    1.084   .     S
C138   C328    1.370   .     S
C141   H173    1.082   .     S
C141   N178    1.366   .     A
C141   C15     1.415   1_655 S
C142   H174    1.082   .     S
C142   N177    1.366   .     A
C143   N177    1.366   .     A
C143   H175    1.081   .     S
C144   H176    1.082   .     S
C144   N178    1.366   .     A
C144   C14     1.416   1_655 S
C145   O183    1.293   .     A
C145   C147    1.457   .     S
C145   O185    1.290   .     A
C146   C148    1.469   .     S
C146   O184    1.298   .     A
C146   O186    1.291   .     A
C147   C151    1.401   .     A
C147   C153    1.403   .     A
C148   C152    1.405   .     A
C148   C154    1.410   .     A
C149   C151    1.392   .     A
C149   H165    1.084   .     S
C149   C157    1.401   .     A
C150   C152    1.395   .     A
C150   C158    1.401   .     A
C150   H166    1.081   .     S
C151   H164    1.083   .     S
C152   H163    1.083   .     S
C153   C191    1.455   .     S
C153   C155    1.403   .     A
C154   C156    1.400   .     A
C154   C189    1.455   .     S
C155   C157    1.419   .     A
C155   C159    1.413   .     A
C156   C158    1.413   .     A
C156   C160    1.410   .     A
C157   C709    1.395   .     S
C158   C710    1.397   1_554 S
C159   C736    1.402   .     S
C160   C735    1.402   1_554 S
N177   Zn187   2.009   .     S
N178   Zn188   2.009   .     S
O179   Zn187   1.999   .     S
O180   Zn188   1.999   .     S
O181   Zn188   2.000   .     S
O182   Zn187   2.000   .     S
O183   Zn187   1.978   .     S
O184   Zn188   1.978   .     S
O185   Zn188   1.936   .     S
O186   Zn187   1.936   .     S
C189   N190    1.157   .     T
C191   N192    1.158   .     T
C193   O243    1.283   .     A
C193   C204    1.419   .     S
C193   O245    1.283   .     A
C194   O244    1.283   .     A
C194   C203    1.419   .     S
C194   O246    1.283   .     A
C195   C197    1.391   .     A
C195   H231    1.083   .     S
C195   C224    1.413   .     A
C196   C223    1.415   .     A
C196   C198    1.396   .     A
C196   H232    1.082   .     S
C197   H225    1.084   .     S
C197   C797    1.395   1_554 S
C198   H226    1.083   .     S
C198   C798    1.397   .     S
C199   C204    1.397   .     A
C199   H233    1.084   .     S
C199   C393    1.370   .     S
C200   C203    1.397   .     A
C200   H234    1.084   .     S
C201   C203    1.397   .     A
C201   H235    1.084   .     S
C202   C204    1.397   .     A
C202   H236    1.084   .     S
C202   C392    1.370   .     S
C205   H237    1.082   .     S
C205   N242    1.366   .     A
C205   C271    1.415   .     S
C206   H238    1.082   .     S
C206   N241    1.366   .     A
C206   C336    1.416   1_455 S
C207   N241    1.366   .     A
C207   H239    1.081   .     S
C207   C333    1.415   1_455 S
C208   H240    1.082   .     S
C208   N242    1.366   .     A
C208   C270    1.416   .     S
C209   O247    1.293   .     A
C209   C211    1.457   .     S
C209   O249    1.290   .     A
C210   C212    1.469   .     S
C210   O248    1.298   .     A
C210   O250    1.291   .     A
C211   C215    1.401   .     A
C211   C217    1.403   .     A
C212   C216    1.405   .     A
C212   C218    1.410   .     A
C213   C215    1.392   .     A
C213   H229    1.084   .     S
C213   C221    1.401   .     A
C214   C216    1.395   .     A
C214   C222    1.401   .     A
C214   H230    1.081   .     S
C215   H228    1.083   .     S
C216   H227    1.083   .     S
C217   C255    1.455   .     S
C217   C219    1.403   .     A
C218   C220    1.400   .     A
C218   C253    1.455   .     S
C219   C221    1.419   .     A
C219   C223    1.413   .     A
C220   C222    1.413   .     A
C220   C224    1.410   .     A
C221   C773    1.395   .     S
C222   C774    1.397   1_554 S
C223   C800    1.402   .     S
C224   C799    1.402   1_554 S
N241   Zn251   2.009   .     S
N242   Zn252   2.009   .     S
O243   Zn251   1.999   .     S
O244   Zn252   1.999   .     S
O245   Zn252   2.000   .     S
O246   Zn251   2.000   .     S
O247   Zn251   1.978   .     S
O248   Zn252   1.978   .     S
O249   Zn252   1.936   .     S
O250   Zn251   1.936   .     S
C253   N254    1.157   .     T
C255   N256    1.158   .     T
C257   O307    1.283   .     A
C257   C268    1.419   .     S
C257   O309    1.283   .     A
C258   O308    1.283   .     A
C258   C267    1.419   .     S
C258   O310    1.283   .     A
C259   C261    1.391   .     A
C259   H295    1.083   .     S
C259   C288    1.413   .     A
C260   C287    1.415   .     A
C260   C262    1.396   .     A
C260   H296    1.082   .     S
C261   H289    1.084   .     S
C261   C861    1.395   1_554 S
C262   H290    1.083   .     S
C262   C862    1.397   .     S
C263   C268    1.397   .     A
C263   H297    1.084   .     S
C263   C457    1.370   .     S
C264   C267    1.397   .     A
C264   H298    1.084   .     S
C265   C267    1.397   .     A
C265   H299    1.084   .     S
C266   C268    1.397   .     A
C266   H300    1.084   .     S
C266   C456    1.370   .     S
C269   H301    1.082   .     S
C269   N306    1.366   .     A
C269   C335    1.415   .     S
C270   H302    1.082   .     S
C270   N305    1.366   .     A
C271   N305    1.366   .     A
C271   H303    1.081   .     S
C272   H304    1.082   .     S
C272   N306    1.366   .     A
C272   C334    1.416   .     S
C273   O311    1.293   .     A
C273   C275    1.457   .     S
C273   O313    1.290   .     A
C274   C276    1.469   .     S
C274   O312    1.298   .     A
C274   O314    1.291   .     A
C275   C279    1.401   .     A
C275   C281    1.403   .     A
C276   C280    1.405   .     A
C276   C282    1.410   .     A
C277   C279    1.392   .     A
C277   H293    1.084   .     S
C277   C285    1.401   .     A
C278   C280    1.395   .     A
C278   C286    1.401   .     A
C278   H294    1.081   .     S
C279   H292    1.083   .     S
C280   H291    1.083   .     S
C281   C319    1.455   .     S
C281   C283    1.403   .     A
C282   C284    1.400   .     A
C282   C317    1.455   .     S
C283   C285    1.419   .     A
C283   C287    1.413   .     A
C284   C286    1.413   .     A
C284   C288    1.410   .     A
C285   C837    1.395   .     S
C286   C838    1.397   1_554 S
C287   C864    1.402   .     S
C288   C863    1.402   1_554 S
N305   Zn315   2.009   .     S
N306   Zn316   2.009   .     S
O307   Zn315   1.999   .     S
O308   Zn316   1.999   .     S
O309   Zn316   2.000   .     S
O310   Zn315   2.000   .     S
O311   Zn315   1.978   .     S
O312   Zn316   1.978   .     S
O313   Zn316   1.936   .     S
O314   Zn315   1.936   .     S
C317   N318    1.157   .     T
C319   N320    1.158   .     T
C321   O371    1.283   .     A
C321   C332    1.419   .     S
C321   O373    1.283   .     A
C322   O372    1.283   .     A
C322   C331    1.419   .     S
C322   O374    1.283   .     A
C323   C325    1.391   .     A
C323   H359    1.083   .     S
C323   C352    1.413   .     A
C324   C351    1.415   .     A
C324   C326    1.396   .     A
C324   H360    1.082   .     S
C325   H353    1.084   .     S
C325   C925    1.395   1_554 S
C326   H354    1.083   .     S
C326   C926    1.397   .     S
C327   C332    1.397   .     A
C327   H361    1.084   .     S
C327   C521    1.370   .     S
C328   C331    1.397   .     A
C328   H362    1.084   .     S
C329   C331    1.397   .     A
C329   H363    1.084   .     S
C330   C332    1.397   .     A
C330   H364    1.084   .     S
C330   C520    1.370   .     S
C333   H365    1.082   .     S
C333   N370    1.366   .     A
C333   C207    1.415   1_655 S
C334   H366    1.082   .     S
C334   N369    1.366   .     A
C335   N369    1.366   .     A
C335   H367    1.081   .     S
C336   H368    1.082   .     S
C336   N370    1.366   .     A
C336   C206    1.416   1_655 S
C337   O375    1.293   .     A
C337   C339    1.457   .     S
C337   O377    1.290   .     A
C338   C340    1.469   .     S
C338   O376    1.298   .     A
C338   O378    1.291   .     A
C339   C343    1.401   .     A
C339   C345    1.403   .     A
C340   C344    1.405   .     A
C340   C346    1.410   .     A
C341   C343    1.392   .     A
C341   H357    1.084   .     S
C341   C349    1.401   .     A
C342   C344    1.395   .     A
C342   C350    1.401   .     A
C342   H358    1.081   .     S
C343   H356    1.083   .     S
C344   H355    1.083   .     S
C345   C383    1.455   .     S
C345   C347    1.403   .     A
C346   C348    1.400   .     A
C346   C381    1.455   .     S
C347   C349    1.419   .     A
C347   C351    1.413   .     A
C348   C350    1.413   .     A
C348   C352    1.410   .     A
C349   C901    1.395   .     S
C350   C902    1.397   1_554 S
C351   C928    1.402   .     S
C352   C927    1.402   1_554 S
N369   Zn379   2.009   .     S
N370   Zn380   2.009   .     S
O371   Zn379   1.999   .     S
O372   Zn380   1.999   .     S
O373   Zn380   2.000   .     S
O374   Zn379   2.000   .     S
O375   Zn379   1.978   .     S
O376   Zn380   1.978   .     S
O377   Zn380   1.936   .     S
O378   Zn379   1.936   .     S
C381   N382    1.157   .     T
C383   N384    1.158   .     T
C385   O435    1.283   .     A
C385   C396    1.419   .     S
C385   O437    1.283   .     A
C386   O436    1.283   .     A
C386   C395    1.419   .     S
C386   O438    1.283   .     A
C387   C389    1.391   .     A
C387   H423    1.083   .     S
C387   C416    1.413   .     A
C388   C415    1.415   .     A
C388   C390    1.396   .     A
C388   H424    1.082   .     S
C389   H417    1.084   .     S
C389   C989    1.395   1_554 S
C390   H418    1.083   .     S
C390   C990    1.397   .     S
C391   C396    1.397   .     A
C391   H425    1.084   .     S
C391   C9      1.370   1_565 S
C392   C395    1.397   .     A
C392   H426    1.084   .     S
C393   C395    1.397   .     A
C393   H427    1.084   .     S
C394   C396    1.397   .     A
C394   H428    1.084   .     S
C394   C8      1.370   1_565 S
C397   H429    1.082   .     S
C397   N434    1.366   .     A
C397   C463    1.415   .     S
C398   H430    1.082   .     S
C398   N433    1.366   .     A
C398   C528    1.416   1_455 S
C399   N433    1.366   .     A
C399   H431    1.081   .     S
C399   C525    1.415   1_455 S
C400   H432    1.082   .     S
C400   N434    1.366   .     A
C400   C462    1.416   .     S
C401   O439    1.293   .     A
C401   C403    1.457   .     S
C401   O441    1.290   .     A
C402   C404    1.469   .     S
C402   O440    1.298   .     A
C402   O442    1.291   .     A
C403   C407    1.401   .     A
C403   C409    1.403   .     A
C404   C408    1.405   .     A
C404   C410    1.410   .     A
C405   C407    1.392   .     A
C405   H421    1.084   .     S
C405   C413    1.401   .     A
C406   C408    1.395   .     A
C406   C414    1.401   .     A
C406   H422    1.081   .     S
C407   H420    1.083   .     S
C408   H419    1.083   .     S
C409   C447    1.455   .     S
C409   C411    1.403   .     A
C410   C412    1.400   .     A
C410   C445    1.455   .     S
C411   C413    1.419   .     A
C411   C415    1.413   .     A
C412   C414    1.413   .     A
C412   C416    1.410   .     A
C413   C965    1.395   .     S
C414   C966    1.397   1_554 S
C415   C992    1.402   .     S
C416   C991    1.402   1_554 S
N433   Zn443   2.009   .     S
N434   Zn444   2.009   .     S
O435   Zn443   1.999   .     S
O436   Zn444   1.999   .     S
O437   Zn444   2.000   .     S
O438   Zn443   2.000   .     S
O439   Zn443   1.978   .     S
O440   Zn444   1.978   .     S
O441   Zn444   1.936   .     S
O442   Zn443   1.936   .     S
C445   N446    1.157   .     T
C447   N448    1.158   .     T
C449   O499    1.283   .     A
C449   C460    1.419   .     S
C449   O501    1.283   .     A
C450   O500    1.283   .     A
C450   C459    1.419   .     S
C450   O502    1.283   .     A
C451   C453    1.391   .     A
C451   H487    1.083   .     S
C451   C480    1.413   .     A
C452   C479    1.415   .     A
C452   C454    1.396   .     A
C452   H488    1.082   .     S
C453   H481    1.084   .     S
C453   C1053   1.395   1_554 S
C454   H482    1.083   .     S
C454   C1054   1.397   .     S
C455   C460    1.397   .     A
C455   H489    1.084   .     S
C455   C73     1.370   1_565 S
C456   C459    1.397   .     A
C456   H490    1.084   .     S
C457   C459    1.397   .     A
C457   H491    1.084   .     S
C458   C460    1.397   .     A
C458   H492    1.084   .     S
C458   C72     1.370   1_565 S
C461   H493    1.082   .     S
C461   N498    1.366   .     A
C461   C527    1.415   .     S
C462   H494    1.082   .     S
C462   N497    1.366   .     A
C463   N497    1.366   .     A
C463   H495    1.081   .     S
C464   H496    1.082   .     S
C464   N498    1.366   .     A
C464   C526    1.416   .     S
C465   O503    1.293   .     A
C465   C467    1.457   .     S
C465   O505    1.290   .     A
C466   C468    1.469   .     S
C466   O504    1.298   .     A
C466   O506    1.291   .     A
C467   C471    1.401   .     A
C467   C473    1.403   .     A
C468   C472    1.405   .     A
C468   C474    1.410   .     A
C469   C471    1.392   .     A
C469   H485    1.084   .     S
C469   C477    1.401   .     A
C470   C472    1.395   .     A
C470   C478    1.401   .     A
C470   H486    1.081   .     S
C471   H484    1.083   .     S
C472   H483    1.083   .     S
C473   C511    1.455   .     S
C473   C475    1.403   .     A
C474   C476    1.400   .     A
C474   C509    1.455   .     S
C475   C477    1.419   .     A
C475   C479    1.413   .     A
C476   C478    1.413   .     A
C476   C480    1.410   .     A
C477   C1029   1.395   .     S
C478   C1030   1.397   1_554 S
C479   C1056   1.402   .     S
C480   C1055   1.402   1_554 S
N497   Zn507   2.009   .     S
N498   Zn508   2.009   .     S
O499   Zn507   1.999   .     S
O500   Zn508   1.999   .     S
O501   Zn508   2.000   .     S
O502   Zn507   2.000   .     S
O503   Zn507   1.978   .     S
O504   Zn508   1.978   .     S
O505   Zn508   1.936   .     S
O506   Zn507   1.936   .     S
C509   N510    1.157   .     T
C511   N512    1.158   .     T
C513   O563    1.283   .     A
C513   C524    1.419   .     S
C513   O565    1.283   .     A
C514   O564    1.283   .     A
C514   C523    1.419   .     S
C514   O566    1.283   .     A
C515   C517    1.391   .     A
C515   H551    1.083   .     S
C515   C544    1.413   .     A
C516   C543    1.415   .     A
C516   C518    1.396   .     A
C516   H552    1.082   .     S
C517   H545    1.084   .     S
C517   C1117   1.395   1_554 S
C518   H546    1.083   .     S
C518   C1118   1.397   .     S
C519   C524    1.397   .     A
C519   H553    1.084   .     S
C519   C137    1.370   1_565 S
C520   C523    1.397   .     A
C520   H554    1.084   .     S
C521   C523    1.397   .     A
C521   H555    1.084   .     S
C522   C524    1.397   .     A
C522   H556    1.084   .     S
C522   C136    1.370   1_565 S
C525   H557    1.082   .     S
C525   N562    1.366   .     A
C525   C399    1.415   1_655 S
C526   H558    1.082   .     S
C526   N561    1.366   .     A
C527   N561    1.366   .     A
C527   H559    1.081   .     S
C528   H560    1.082   .     S
C528   N562    1.366   .     A
C528   C398    1.416   1_655 S
C529   O567    1.293   .     A
C529   C531    1.457   .     S
C529   O569    1.290   .     A
C530   C532    1.469   .     S
C530   O568    1.298   .     A
C530   O570    1.291   .     A
C531   C535    1.401   .     A
C531   C537    1.403   .     A
C532   C536    1.405   .     A
C532   C538    1.410   .     A
C533   C535    1.392   .     A
C533   H549    1.084   .     S
C533   C541    1.401   .     A
C534   C536    1.395   .     A
C534   C542    1.401   .     A
C534   H550    1.081   .     S
C535   H548    1.083   .     S
C536   H547    1.083   .     S
C537   C575    1.455   .     S
C537   C539    1.403   .     A
C538   C540    1.400   .     A
C538   C573    1.455   .     S
C539   C541    1.419   .     A
C539   C543    1.413   .     A
C540   C542    1.413   .     A
C540   C544    1.410   .     A
C541   C1093   1.395   .     S
C542   C1094   1.397   1_554 S
C543   C1120   1.402   .     S
C544   C1119   1.402   1_554 S
N561   Zn571   2.009   .     S
N562   Zn572   2.009   .     S
O563   Zn571   1.999   .     S
O564   Zn572   1.999   .     S
O565   Zn572   2.000   .     S
O566   Zn571   2.000   .     S
O567   Zn571   1.978   .     S
O568   Zn572   1.978   .     S
O569   Zn572   1.936   .     S
O570   Zn571   1.936   .     S
C573   N574    1.157   .     T
C575   N576    1.158   .     T
C577   O627    1.283   .     A
C577   C588    1.419   .     S
C577   O629    1.283   .     A
C578   O628    1.283   .     A
C578   C587    1.419   .     S
C578   O630    1.283   .     A
C579   C581    1.391   .     A
C579   H615    1.083   .     S
C579   C608    1.413   .     A
C580   C607    1.415   .     A
C580   C582    1.396   .     A
C580   H616    1.082   .     S
C581   H609    1.084   .     S
C582   H610    1.083   .     S
C582   C30     1.397   1_556 S
C583   C588    1.397   .     A
C583   H617    1.084   .     S
C583   C777    1.370   .     S
C584   C587    1.397   .     A
C584   H618    1.084   .     S
C584   C970    1.370   1_545 S
C585   C587    1.397   .     A
C585   H619    1.084   .     S
C585   C967    1.370   1_545 S
C586   C588    1.397   .     A
C586   H620    1.084   .     S
C586   C776    1.370   .     S
C589   H621    1.082   .     S
C589   N626    1.366   .     A
C589   C655    1.415   .     S
C590   H622    1.082   .     S
C590   N625    1.366   .     A
C590   C720    1.416   1_455 S
C591   N625    1.366   .     A
C591   H623    1.081   .     S
C591   C717    1.415   1_455 S
C592   H624    1.082   .     S
C592   N626    1.366   .     A
C592   C654    1.416   .     S
C593   O631    1.293   .     A
C593   C595    1.457   .     S
C593   O633    1.290   .     A
C594   C596    1.469   .     S
C594   O632    1.298   .     A
C594   O634    1.291   .     A
C595   C599    1.401   .     A
C595   C601    1.403   .     A
C596   C600    1.405   .     A
C596   C602    1.410   .     A
C597   C599    1.392   .     A
C597   H613    1.084   .     S
C597   C605    1.401   .     A
C598   C600    1.395   .     A
C598   C606    1.401   .     A
C598   H614    1.081   .     S
C599   H612    1.083   .     S
C600   H611    1.083   .     S
C601   C639    1.455   .     S
C601   C603    1.403   .     A
C602   C604    1.400   .     A
C602   C637    1.455   .     S
C603   C605    1.419   .     A
C603   C607    1.413   .     A
C604   C606    1.413   .     A
C604   C608    1.410   .     A
C605   C5      1.395   1_556 S
C607   C32     1.402   1_556 S
N625   Zn635   2.009   .     S
N626   Zn636   2.009   .     S
O627   Zn635   1.999   .     S
O628   Zn636   1.999   .     S
O629   Zn636   2.000   .     S
O630   Zn635   2.000   .     S
O631   Zn635   1.978   .     S
O632   Zn636   1.978   .     S
O633   Zn636   1.936   .     S
O634   Zn635   1.936   .     S
C637   N638    1.157   .     T
C639   N640    1.158   .     T
C641   O691    1.283   .     A
C641   C652    1.419   .     S
C641   O693    1.283   .     A
C642   O692    1.283   .     A
C642   C651    1.419   .     S
C642   O694    1.283   .     A
C643   C645    1.391   .     A
C643   H679    1.083   .     S
C643   C672    1.413   .     A
C644   C671    1.415   .     A
C644   C646    1.396   .     A
C644   H680    1.082   .     S
C645   H673    1.084   .     S
C646   H674    1.083   .     S
C646   C94     1.397   1_556 S
C647   C652    1.397   .     A
C647   H681    1.084   .     S
C647   C841    1.370   .     S
C648   C651    1.397   .     A
C648   H682    1.084   .     S
C648   C1034   1.370   1_545 S
C649   C651    1.397   .     A
C649   H683    1.084   .     S
C649   C1031   1.370   1_545 S
C650   C652    1.397   .     A
C650   H684    1.084   .     S
C650   C840    1.370   .     S
C653   H685    1.082   .     S
C653   N690    1.366   .     A
C653   C719    1.415   .     S
C654   H686    1.082   .     S
C654   N689    1.366   .     A
C655   N689    1.366   .     A
C655   H687    1.081   .     S
C656   H688    1.082   .     S
C656   N690    1.366   .     A
C656   C718    1.416   .     S
C657   O695    1.293   .     A
C657   C659    1.457   .     S
C657   O697    1.290   .     A
C658   C660    1.469   .     S
C658   O696    1.298   .     A
C658   O698    1.291   .     A
C659   C663    1.401   .     A
C659   C665    1.403   .     A
C660   C664    1.405   .     A
C660   C666    1.410   .     A
C661   C663    1.392   .     A
C661   H677    1.084   .     S
C661   C669    1.401   .     A
C662   C664    1.395   .     A
C662   C670    1.401   .     A
C662   H678    1.081   .     S
C663   H676    1.083   .     S
C664   H675    1.083   .     S
C665   C703    1.455   .     S
C665   C667    1.403   .     A
C666   C668    1.400   .     A
C666   C701    1.455   .     S
C667   C669    1.419   .     A
C667   C671    1.413   .     A
C668   C670    1.413   .     A
C668   C672    1.410   .     A
C669   C69     1.395   1_556 S
C671   C96     1.402   1_556 S
N689   Zn699   2.009   .     S
N690   Zn700   2.009   .     S
O691   Zn699   1.999   .     S
O692   Zn700   1.999   .     S
O693   Zn700   2.000   .     S
O694   Zn699   2.000   .     S
O695   Zn699   1.978   .     S
O696   Zn700   1.978   .     S
O697   Zn700   1.936   .     S
O698   Zn699   1.936   .     S
C701   N702    1.157   .     T
C703   N704    1.158   .     T
C705   O755    1.283   .     A
C705   C716    1.419   .     S
C705   O757    1.283   .     A
C706   O756    1.283   .     A
C706   C715    1.419   .     S
C706   O758    1.283   .     A
C707   C709    1.391   .     A
C707   H743    1.083   .     S
C707   C736    1.413   .     A
C708   C735    1.415   .     A
C708   C710    1.396   .     A
C708   H744    1.082   .     S
C709   H737    1.084   .     S
C710   H738    1.083   .     S
C710   C158    1.397   1_556 S
C711   C716    1.397   .     A
C711   H745    1.084   .     S
C711   C905    1.370   .     S
C712   C715    1.397   .     A
C712   H746    1.084   .     S
C712   C1098   1.370   1_545 S
C713   C715    1.397   .     A
C713   H747    1.084   .     S
C713   C1095   1.370   1_545 S
C714   C716    1.397   .     A
C714   H748    1.084   .     S
C714   C904    1.370   .     S
C717   H749    1.082   .     S
C717   N754    1.366   .     A
C717   C591    1.415   1_655 S
C718   H750    1.082   .     S
C718   N753    1.366   .     A
C719   N753    1.366   .     A
C719   H751    1.081   .     S
C720   H752    1.082   .     S
C720   N754    1.366   .     A
C720   C590    1.416   1_655 S
C721   O759    1.293   .     A
C721   C723    1.457   .     S
C721   O761    1.290   .     A
C722   C724    1.469   .     S
C722   O760    1.298   .     A
C722   O762    1.291   .     A
C723   C727    1.401   .     A
C723   C729    1.403   .     A
C724   C728    1.405   .     A
C724   C730    1.410   .     A
C725   C727    1.392   .     A
C725   H741    1.084   .     S
C725   C733    1.401   .     A
C726   C728    1.395   .     A
C726   C734    1.401   .     A
C726   H742    1.081   .     S
C727   H740    1.083   .     S
C728   H739    1.083   .     S
C729   C767    1.455   .     S
C729   C731    1.403   .     A
C730   C732    1.400   .     A
C730   C765    1.455   .     S
C731   C733    1.419   .     A
C731   C735    1.413   .     A
C732   C734    1.413   .     A
C732   C736    1.410   .     A
C733   C133    1.395   1_556 S
C735   C160    1.402   1_556 S
N753   Zn763   2.009   .     S
N754   Zn764   2.009   .     S
O755   Zn763   1.999   .     S
O756   Zn764   1.999   .     S
O757   Zn764   2.000   .     S
O758   Zn763   2.000   .     S
O759   Zn763   1.978   .     S
O760   Zn764   1.978   .     S
O761   Zn764   1.936   .     S
O762   Zn763   1.936   .     S
C765   N766    1.157   .     T
C767   N768    1.158   .     T
C769   O819    1.283   .     A
C769   C780    1.419   .     S
C769   O821    1.283   .     A
C770   O820    1.283   .     A
C770   C779    1.419   .     S
C770   O822    1.283   .     A
C771   C773    1.391   .     A
C771   H807    1.083   .     S
C771   C800    1.413   .     A
C772   C799    1.415   .     A
C772   C774    1.396   .     A
C772   H808    1.082   .     S
C773   H801    1.084   .     S
C774   H802    1.083   .     S
C774   C222    1.397   1_556 S
C775   C780    1.397   .     A
C775   H809    1.084   .     S
C775   C969    1.370   .     S
C776   C779    1.397   .     A
C776   H810    1.084   .     S
C777   C779    1.397   .     A
C777   H811    1.084   .     S
C778   C780    1.397   .     A
C778   H812    1.084   .     S
C778   C968    1.370   .     S
C781   H813    1.082   .     S
C781   N818    1.366   .     A
C781   C847    1.415   .     S
C782   H814    1.082   .     S
C782   N817    1.366   .     A
C782   C912    1.416   1_455 S
C783   N817    1.366   .     A
C783   H815    1.081   .     S
C783   C909    1.415   1_455 S
C784   H816    1.082   .     S
C784   N818    1.366   .     A
C784   C846    1.416   .     S
C785   O823    1.293   .     A
C785   C787    1.457   .     S
C785   O825    1.290   .     A
C786   C788    1.469   .     S
C786   O824    1.298   .     A
C786   O826    1.291   .     A
C787   C791    1.401   .     A
C787   C793    1.403   .     A
C788   C792    1.405   .     A
C788   C794    1.410   .     A
C789   C791    1.392   .     A
C789   H805    1.084   .     S
C789   C797    1.401   .     A
C790   C792    1.395   .     A
C790   C798    1.401   .     A
C790   H806    1.081   .     S
C791   H804    1.083   .     S
C792   H803    1.083   .     S
C793   C831    1.455   .     S
C793   C795    1.403   .     A
C794   C796    1.400   .     A
C794   C829    1.455   .     S
C795   C797    1.419   .     A
C795   C799    1.413   .     A
C796   C798    1.413   .     A
C796   C800    1.410   .     A
C797   C197    1.395   1_556 S
C799   C224    1.402   1_556 S
N817   Zn827   2.009   .     S
N818   Zn828   2.009   .     S
O819   Zn827   1.999   .     S
O820   Zn828   1.999   .     S
O821   Zn828   2.000   .     S
O822   Zn827   2.000   .     S
O823   Zn827   1.978   .     S
O824   Zn828   1.978   .     S
O825   Zn828   1.936   .     S
O826   Zn827   1.936   .     S
C829   N830    1.157   .     T
C831   N832    1.158   .     T
C833   O883    1.283   .     A
C833   C844    1.419   .     S
C833   O885    1.283   .     A
C834   O884    1.283   .     A
C834   C843    1.419   .     S
C834   O886    1.283   .     A
C835   C837    1.391   .     A
C835   H871    1.083   .     S
C835   C864    1.413   .     A
C836   C863    1.415   .     A
C836   C838    1.396   .     A
C836   H872    1.082   .     S
C837   H865    1.084   .     S
C838   H866    1.083   .     S
C838   C286    1.397   1_556 S
C839   C844    1.397   .     A
C839   H873    1.084   .     S
C839   C1033   1.370   .     S
C840   C843    1.397   .     A
C840   H874    1.084   .     S
C841   C843    1.397   .     A
C841   H875    1.084   .     S
C842   C844    1.397   .     A
C842   H876    1.084   .     S
C842   C1032   1.370   .     S
C845   H877    1.082   .     S
C845   N882    1.366   .     A
C845   C911    1.415   .     S
C846   H878    1.082   .     S
C846   N881    1.366   .     A
C847   N881    1.366   .     A
C847   H879    1.081   .     S
C848   H880    1.082   .     S
C848   N882    1.366   .     A
C848   C910    1.416   .     S
C849   O887    1.293   .     A
C849   C851    1.457   .     S
C849   O889    1.290   .     A
C850   C852    1.469   .     S
C850   O888    1.298   .     A
C850   O890    1.291   .     A
C851   C855    1.401   .     A
C851   C857    1.403   .     A
C852   C856    1.405   .     A
C852   C858    1.410   .     A
C853   C855    1.392   .     A
C853   H869    1.084   .     S
C853   C861    1.401   .     A
C854   C856    1.395   .     A
C854   C862    1.401   .     A
C854   H870    1.081   .     S
C855   H868    1.083   .     S
C856   H867    1.083   .     S
C857   C895    1.455   .     S
C857   C859    1.403   .     A
C858   C860    1.400   .     A
C858   C893    1.455   .     S
C859   C861    1.419   .     A
C859   C863    1.413   .     A
C860   C862    1.413   .     A
C860   C864    1.410   .     A
C861   C261    1.395   1_556 S
C863   C288    1.402   1_556 S
N881   Zn891   2.009   .     S
N882   Zn892   2.009   .     S
O883   Zn891   1.999   .     S
O884   Zn892   1.999   .     S
O885   Zn892   2.000   .     S
O886   Zn891   2.000   .     S
O887   Zn891   1.978   .     S
O888   Zn892   1.978   .     S
O889   Zn892   1.936   .     S
O890   Zn891   1.936   .     S
C893   N894    1.157   .     T
C895   N896    1.158   .     T
C897   O947    1.283   .     A
C897   C908    1.419   .     S
C897   O949    1.283   .     A
C898   O948    1.283   .     A
C898   C907    1.419   .     S
C898   O950    1.283   .     A
C899   C901    1.391   .     A
C899   H935    1.083   .     S
C899   C928    1.413   .     A
C900   C927    1.415   .     A
C900   C902    1.396   .     A
C900   H936    1.082   .     S
C901   H929    1.084   .     S
C902   H930    1.083   .     S
C902   C350    1.397   1_556 S
C903   C908    1.397   .     A
C903   H937    1.084   .     S
C903   C1097   1.370   .     S
C904   C907    1.397   .     A
C904   H938    1.084   .     S
C905   C907    1.397   .     A
C905   H939    1.084   .     S
C906   C908    1.397   .     A
C906   H940    1.084   .     S
C906   C1096   1.370   .     S
C909   H941    1.082   .     S
C909   N946    1.366   .     A
C909   C783    1.415   1_655 S
C910   H942    1.082   .     S
C910   N945    1.366   .     A
C911   N945    1.366   .     A
C911   H943    1.081   .     S
C912   H944    1.082   .     S
C912   N946    1.366   .     A
C912   C782    1.416   1_655 S
C913   O951    1.293   .     A
C913   C915    1.457   .     S
C913   O953    1.290   .     A
C914   C916    1.469   .     S
C914   O952    1.298   .     A
C914   O954    1.291   .     A
C915   C919    1.401   .     A
C915   C921    1.403   .     A
C916   C920    1.405   .     A
C916   C922    1.410   .     A
C917   C919    1.392   .     A
C917   H933    1.084   .     S
C917   C925    1.401   .     A
C918   C920    1.395   .     A
C918   C926    1.401   .     A
C918   H934    1.081   .     S
C919   H932    1.083   .     S
C920   H931    1.083   .     S
C921   C959    1.455   .     S
C921   C923    1.403   .     A
C922   C924    1.400   .     A
C922   C957    1.455   .     S
C923   C925    1.419   .     A
C923   C927    1.413   .     A
C924   C926    1.413   .     A
C924   C928    1.410   .     A
C925   C325    1.395   1_556 S
C927   C352    1.402   1_556 S
N945   Zn955   2.009   .     S
N946   Zn956   2.009   .     S
O947   Zn955   1.999   .     S
O948   Zn956   1.999   .     S
O949   Zn956   2.000   .     S
O950   Zn955   2.000   .     S
O951   Zn955   1.978   .     S
O952   Zn956   1.978   .     S
O953   Zn956   1.936   .     S
O954   Zn955   1.936   .     S
C957   N958    1.157   .     T
C959   N960    1.158   .     T
C961   O1011   1.283   .     A
C961   C972    1.419   .     S
C961   O1013   1.283   .     A
C962   O1012   1.283   .     A
C962   C971    1.419   .     S
C962   O1014   1.283   .     A
C963   C965    1.391   .     A
C963   H999    1.083   .     S
C963   C992    1.413   .     A
C964   C991    1.415   .     A
C964   C966    1.396   .     A
C964   H1000   1.082   .     S
C965   H993    1.084   .     S
C966   H994    1.083   .     S
C966   C414    1.397   1_556 S
C967   C972    1.397   .     A
C967   H1001   1.084   .     S
C967   C585    1.370   1_565 S
C968   C971    1.397   .     A
C968   H1002   1.084   .     S
C969   C971    1.397   .     A
C969   H1003   1.084   .     S
C970   C972    1.397   .     A
C970   H1004   1.084   .     S
C970   C584    1.370   1_565 S
C973   H1005   1.082   .     S
C973   N1010   1.366   .     A
C973   C1039   1.415   .     S
C974   H1006   1.082   .     S
C974   N1009   1.366   .     A
C974   C1104   1.416   1_455 S
C975   N1009   1.366   .     A
C975   H1007   1.081   .     S
C975   C1101   1.415   1_455 S
C976   H1008   1.082   .     S
C976   N1010   1.366   .     A
C976   C1038   1.416   .     S
C977   O1015   1.293   .     A
C977   C979    1.457   .     S
C977   O1017   1.290   .     A
C978   C980    1.469   .     S
C978   O1016   1.298   .     A
C978   O1018   1.291   .     A
C979   C983    1.401   .     A
C979   C985    1.403   .     A
C980   C984    1.405   .     A
C980   C986    1.410   .     A
C981   C983    1.392   .     A
C981   H997    1.084   .     S
C981   C989    1.401   .     A
C982   C984    1.395   .     A
C982   C990    1.401   .     A
C982   H998    1.081   .     S
C983   H996    1.083   .     S
C984   H995    1.083   .     S
C985   C1023   1.455   .     S
C985   C987    1.403   .     A
C986   C988    1.400   .     A
C986   C1021   1.455   .     S
C987   C989    1.419   .     A
C987   C991    1.413   .     A
C988   C990    1.413   .     A
C988   C992    1.410   .     A
C989   C389    1.395   1_556 S
C991   C416    1.402   1_556 S
N1009  Zn1019  2.009   .     S
N1010  Zn1020  2.009   .     S
O1011  Zn1019  1.999   .     S
O1012  Zn1020  1.999   .     S
O1013  Zn1020  2.000   .     S
O1014  Zn1019  2.000   .     S
O1015  Zn1019  1.978   .     S
O1016  Zn1020  1.978   .     S
O1017  Zn1020  1.936   .     S
O1018  Zn1019  1.936   .     S
C1021  N1022   1.157   .     T
C1023  N1024   1.158   .     T
C1025  O1075   1.283   .     A
C1025  C1036   1.419   .     S
C1025  O1077   1.283   .     A
C1026  O1076   1.283   .     A
C1026  C1035   1.419   .     S
C1026  O1078   1.283   .     A
C1027  C1029   1.391   .     A
C1027  H1063   1.083   .     S
C1027  C1056   1.413   .     A
C1028  C1055   1.415   .     A
C1028  C1030   1.396   .     A
C1028  H1064   1.082   .     S
C1029  H1057   1.084   .     S
C1030  H1058   1.083   .     S
C1030  C478    1.397   1_556 S
C1031  C1036   1.397   .     A
C1031  H1065   1.084   .     S
C1031  C649    1.370   1_565 S
C1032  C1035   1.397   .     A
C1032  H1066   1.084   .     S
C1033  C1035   1.397   .     A
C1033  H1067   1.084   .     S
C1034  C1036   1.397   .     A
C1034  H1068   1.084   .     S
C1034  C648    1.370   1_565 S
C1037  H1069   1.082   .     S
C1037  N1074   1.366   .     A
C1037  C1103   1.415   .     S
C1038  H1070   1.082   .     S
C1038  N1073   1.366   .     A
C1039  N1073   1.366   .     A
C1039  H1071   1.081   .     S
C1040  H1072   1.082   .     S
C1040  N1074   1.366   .     A
C1040  C1102   1.416   .     S
C1041  O1079   1.293   .     A
C1041  C1043   1.457   .     S
C1041  O1081   1.290   .     A
C1042  C1044   1.469   .     S
C1042  O1080   1.298   .     A
C1042  O1082   1.291   .     A
C1043  C1047   1.401   .     A
C1043  C1049   1.403   .     A
C1044  C1048   1.405   .     A
C1044  C1050   1.410   .     A
C1045  C1047   1.392   .     A
C1045  H1061   1.084   .     S
C1045  C1053   1.401   .     A
C1046  C1048   1.395   .     A
C1046  C1054   1.401   .     A
C1046  H1062   1.081   .     S
C1047  H1060   1.083   .     S
C1048  H1059   1.083   .     S
C1049  C1087   1.455   .     S
C1049  C1051   1.403   .     A
C1050  C1052   1.400   .     A
C1050  C1085   1.455   .     S
C1051  C1053   1.419   .     A
C1051  C1055   1.413   .     A
C1052  C1054   1.413   .     A
C1052  C1056   1.410   .     A
C1053  C453    1.395   1_556 S
C1055  C480    1.402   1_556 S
N1073  Zn1083  2.009   .     S
N1074  Zn1084  2.009   .     S
O1075  Zn1083  1.999   .     S
O1076  Zn1084  1.999   .     S
O1077  Zn1084  2.000   .     S
O1078  Zn1083  2.000   .     S
O1079  Zn1083  1.978   .     S
O1080  Zn1084  1.978   .     S
O1081  Zn1084  1.936   .     S
O1082  Zn1083  1.936   .     S
C1085  N1086   1.157   .     T
C1087  N1088   1.158   .     T
C1089  O1139   1.283   .     A
C1089  C1100   1.419   .     S
C1089  O1141   1.283   .     A
C1090  O1140   1.283   .     A
C1090  C1099   1.419   .     S
C1090  O1142   1.283   .     A
C1091  C1093   1.391   .     A
C1091  H1127   1.083   .     S
C1091  C1120   1.413   .     A
C1092  C1119   1.415   .     A
C1092  C1094   1.396   .     A
C1092  H1128   1.082   .     S
C1093  H1121   1.084   .     S
C1094  H1122   1.083   .     S
C1094  C542    1.397   1_556 S
C1095  C1100   1.397   .     A
C1095  H1129   1.084   .     S
C1095  C713    1.370   1_565 S
C1096  C1099   1.397   .     A
C1096  H1130   1.084   .     S
C1097  C1099   1.397   .     A
C1097  H1131   1.084   .     S
C1098  C1100   1.397   .     A
C1098  H1132   1.084   .     S
C1098  C712    1.370   1_565 S
C1101  H1133   1.082   .     S
C1101  N1138   1.366   .     A
C1101  C975    1.415   1_655 S
C1102  H1134   1.082   .     S
C1102  N1137   1.366   .     A
C1103  N1137   1.366   .     A
C1103  H1135   1.081   .     S
C1104  H1136   1.082   .     S
C1104  N1138   1.366   .     A
C1104  C974    1.416   1_655 S
C1105  O1143   1.293   .     A
C1105  C1107   1.457   .     S
C1105  O1145   1.290   .     A
C1106  C1108   1.469   .     S
C1106  O1144   1.298   .     A
C1106  O1146   1.291   .     A
C1107  C1111   1.401   .     A
C1107  C1113   1.403   .     A
C1108  C1112   1.405   .     A
C1108  C1114   1.410   .     A
C1109  C1111   1.392   .     A
C1109  H1125   1.084   .     S
C1109  C1117   1.401   .     A
C1110  C1112   1.395   .     A
C1110  C1118   1.401   .     A
C1110  H1126   1.081   .     S
C1111  H1124   1.083   .     S
C1112  H1123   1.083   .     S
C1113  C1151   1.455   .     S
C1113  C1115   1.403   .     A
C1114  C1116   1.400   .     A
C1114  C1149   1.455   .     S
C1115  C1117   1.419   .     A
C1115  C1119   1.413   .     A
C1116  C1118   1.413   .     A
C1116  C1120   1.410   .     A
C1117  C517    1.395   1_556 S
C1119  C544    1.402   1_556 S
N1137  Zn1147  2.009   .     S
N1138  Zn1148  2.009   .     S
O1139  Zn1147  1.999   .     S
O1140  Zn1148  1.999   .     S
O1141  Zn1148  2.000   .     S
O1142  Zn1147  2.000   .     S
O1143  Zn1147  1.978   .     S
O1144  Zn1148  1.978   .     S
O1145  Zn1148  1.936   .     S
O1146  Zn1147  1.936   .     S
C1149  N1150   1.157   .     T
C1151  N1152   1.158   .     T
