data_str_m3_o1_o10_pcu_sym.177
_audit_creation_date              2020-01-03
_audit_creation_method            'Materials Studio'
_symmetry_space_group_name_H-M    'P1'
_symmetry_Int_Tables_number       1
_symmetry_cell_setting            triclinic
loop_
_symmetry_equiv_pos_as_xyz
  x,y,z
_cell_length_a                    25.7397
_cell_length_b                    32.1151
_cell_length_c                    29.6825
_cell_angle_alpha                 88.8918
_cell_angle_beta                  97.9835
_cell_angle_gamma                 91.4367
loop_
_atom_site_label
_atom_site_type_symbol
_atom_site_fract_x
_atom_site_fract_y
_atom_site_fract_z
_atom_site_U_iso_or_equiv
_atom_site_adp_type
_atom_site_occupancy
C1     C     0.16430   0.08675   0.16680   0.00000  Uiso   1.00
C2     C     0.16893   0.24661   0.16650   0.00000  Uiso   1.00
C3     C     0.06717   0.16659   0.15486   0.00000  Uiso   1.00
C4     C     0.26615   0.16635   0.17849   0.00000  Uiso   1.00
C5     C     0.01223   0.16531   0.14852   0.00000  Uiso   1.00
C6     C     0.32109   0.16709   0.18486   0.00000  Uiso   1.00
C7     C     0.19930   0.02423   0.14256   0.00000  Uiso   1.00
C8     C     0.13345   0.30917   0.19048   0.00000  Uiso   1.00
C9     C     0.20249   0.31491   0.14161   0.00000  Uiso   1.00
C10    C     0.13003   0.01853   0.19120   0.00000  Uiso   1.00
C11    C     0.16889   0.29083   0.16583   0.00000  Uiso   1.00
C12    C     0.16398   0.04256   0.16729   0.00000  Uiso   1.00
C13    C     0.20906   0.18217   0.02865   0.00000  Uiso   1.00
C14    C     0.12427   0.15118   0.30468   0.00000  Uiso   1.00
C15    C     0.20869   0.18214   0.31389   0.00000  Uiso   1.00
C16    C     0.12465   0.15120   0.01944   0.00000  Uiso   1.00
H17    H     0.32542   0.16255   0.11400   0.00000  Uiso   1.00
H18    H     0.00788   0.16986   0.21938   0.00000  Uiso   1.00
H19    H     0.22503   0.04352   0.12447   0.00000  Uiso   1.00
H20    H     0.10780   0.28989   0.20867   0.00000  Uiso   1.00
H21    H     0.24208   0.19454   0.29911   0.00000  Uiso   1.00
H22    H     0.09126   0.13877   0.03421   0.00000  Uiso   1.00
N23    N     0.16665   0.16666   0.28573   0.00000  Uiso   1.00
N24    N     0.16668   0.16668   0.04760   0.00000  Uiso   1.00
O25    O     0.16666   0.10558   0.20487   0.00000  Uiso   1.00
O26    O     0.16667   0.22775   0.12846   0.00000  Uiso   1.00
O27    O     0.16666   0.10559   0.12843   0.00000  Uiso   1.00
O28    O     0.16667   0.22774   0.20490   0.00000  Uiso   1.00
O29    O     0.09058   0.16666   0.19595   0.00000  Uiso   1.00
O30    O     0.24275   0.16667   0.13739   0.00000  Uiso   1.00
O31    O     0.09058   0.16667   0.11950   0.00000  Uiso   1.00
O32    O     0.24275   0.16666   0.21383   0.00000  Uiso   1.00
Zn33   Zn    0.16667   0.16666   0.21771   0.00000  Uiso   1.00
Zn34   Zn    0.16667   0.16667   0.11563   0.00000  Uiso   1.00
S35    S     0.24938   0.29382   0.11068   0.00000  Uiso   1.00
O36    O     0.22148   0.27900   0.06585   0.00000  Uiso   1.00
O37    O     0.28998   0.32630   0.10180   0.00000  Uiso   1.00
O38    O     0.27962   0.25378   0.13953   0.00000  Uiso   1.00
H39    H     0.29612   0.26568   0.16876   0.00000  Uiso   1.00
S40    S     0.08285   0.03961   0.22185   0.00000  Uiso   1.00
O41    O     0.05881   0.07748   0.19781   0.00000  Uiso   1.00
O42    O     0.04009   0.00773   0.22677   0.00000  Uiso   1.00
O43    O     0.11322   0.05240   0.27376   0.00000  Uiso   1.00
H44    H     0.08607   0.04902   0.29424   0.00000  Uiso   1.00
O45    O     0.25187   0.19766   0.05679   0.00000  Uiso   1.00
H46    H     0.27910   0.20730   0.03814   0.00000  Uiso   1.00
O47    O     0.08147   0.13570   0.27654   0.00000  Uiso   1.00
H48    H     0.05400   0.12651   0.29514   0.00000  Uiso   1.00
C49    C     0.49763   0.08675   0.16680   0.00000  Uiso   1.00
C50    C     0.50227   0.24661   0.16650   0.00000  Uiso   1.00
C51    C     0.40050   0.16659   0.15486   0.00000  Uiso   1.00
C52    C     0.59948   0.16635   0.17849   0.00000  Uiso   1.00
C53    C     0.34556   0.16531   0.14852   0.00000  Uiso   1.00
C54    C     0.65442   0.16709   0.18486   0.00000  Uiso   1.00
C55    C     0.53264   0.02423   0.14256   0.00000  Uiso   1.00
C56    C     0.46678   0.30917   0.19048   0.00000  Uiso   1.00
C57    C     0.53583   0.31491   0.14161   0.00000  Uiso   1.00
C58    C     0.46337   0.01853   0.19120   0.00000  Uiso   1.00
C59    C     0.50223   0.29083   0.16583   0.00000  Uiso   1.00
C60    C     0.49731   0.04256   0.16729   0.00000  Uiso   1.00
C61    C     0.54240   0.18217   0.02865   0.00000  Uiso   1.00
C62    C     0.45760   0.15118   0.30468   0.00000  Uiso   1.00
C63    C     0.54202   0.18214   0.31389   0.00000  Uiso   1.00
C64    C     0.45798   0.15120   0.01944   0.00000  Uiso   1.00
H65    H     0.65875   0.16255   0.11400   0.00000  Uiso   1.00
H66    H     0.34122   0.16986   0.21938   0.00000  Uiso   1.00
H67    H     0.55837   0.04352   0.12447   0.00000  Uiso   1.00
H68    H     0.44114   0.28989   0.20867   0.00000  Uiso   1.00
H69    H     0.57541   0.19454   0.29911   0.00000  Uiso   1.00
H70    H     0.42460   0.13877   0.03421   0.00000  Uiso   1.00
N71    N     0.49999   0.16666   0.28573   0.00000  Uiso   1.00
N72    N     0.50001   0.16668   0.04760   0.00000  Uiso   1.00
O73    O     0.50000   0.10558   0.20487   0.00000  Uiso   1.00
O74    O     0.50000   0.22775   0.12846   0.00000  Uiso   1.00
O75    O     0.50000   0.10559   0.12843   0.00000  Uiso   1.00
O76    O     0.50000   0.22774   0.20490   0.00000  Uiso   1.00
O77    O     0.42392   0.16666   0.19595   0.00000  Uiso   1.00
O78    O     0.57608   0.16667   0.13739   0.00000  Uiso   1.00
O79    O     0.42392   0.16667   0.11950   0.00000  Uiso   1.00
O80    O     0.57608   0.16666   0.21383   0.00000  Uiso   1.00
Zn81   Zn    0.50000   0.16666   0.21771   0.00000  Uiso   1.00
Zn82   Zn    0.50000   0.16667   0.11563   0.00000  Uiso   1.00
S83    S     0.58271   0.29382   0.11068   0.00000  Uiso   1.00
O84    O     0.55481   0.27900   0.06585   0.00000  Uiso   1.00
O85    O     0.62332   0.32630   0.10180   0.00000  Uiso   1.00
O86    O     0.61296   0.25378   0.13953   0.00000  Uiso   1.00
H87    H     0.62945   0.26568   0.16876   0.00000  Uiso   1.00
S88    S     0.41619   0.03961   0.22185   0.00000  Uiso   1.00
O89    O     0.39215   0.07748   0.19781   0.00000  Uiso   1.00
O90    O     0.37342   0.00773   0.22677   0.00000  Uiso   1.00
O91    O     0.44655   0.05240   0.27376   0.00000  Uiso   1.00
H92    H     0.41940   0.04902   0.29424   0.00000  Uiso   1.00
O93    O     0.58521   0.19766   0.05679   0.00000  Uiso   1.00
H94    H     0.61243   0.20730   0.03814   0.00000  Uiso   1.00
O95    O     0.41480   0.13570   0.27654   0.00000  Uiso   1.00
H96    H     0.38734   0.12651   0.29514   0.00000  Uiso   1.00
C97    C     0.83096   0.08675   0.16680   0.00000  Uiso   1.00
C98    C     0.83560   0.24661   0.16650   0.00000  Uiso   1.00
C99    C     0.73384   0.16659   0.15486   0.00000  Uiso   1.00
C100   C     0.93282   0.16635   0.17849   0.00000  Uiso   1.00
C101   C     0.67890   0.16531   0.14852   0.00000  Uiso   1.00
C102   C     0.98776   0.16709   0.18486   0.00000  Uiso   1.00
C103   C     0.86597   0.02423   0.14256   0.00000  Uiso   1.00
C104   C     0.80012   0.30917   0.19048   0.00000  Uiso   1.00
C105   C     0.86916   0.31491   0.14161   0.00000  Uiso   1.00
C106   C     0.79670   0.01853   0.19120   0.00000  Uiso   1.00
C107   C     0.83556   0.29083   0.16583   0.00000  Uiso   1.00
C108   C     0.83064   0.04256   0.16729   0.00000  Uiso   1.00
C109   C     0.87573   0.18217   0.02865   0.00000  Uiso   1.00
C110   C     0.79093   0.15118   0.30468   0.00000  Uiso   1.00
C111   C     0.87535   0.18214   0.31389   0.00000  Uiso   1.00
C112   C     0.79131   0.15120   0.01944   0.00000  Uiso   1.00
H113   H     0.99208   0.16255   0.11400   0.00000  Uiso   1.00
H114   H     0.67455   0.16986   0.21938   0.00000  Uiso   1.00
H115   H     0.89170   0.04352   0.12447   0.00000  Uiso   1.00
H116   H     0.77447   0.28989   0.20867   0.00000  Uiso   1.00
H117   H     0.90875   0.19454   0.29911   0.00000  Uiso   1.00
H118   H     0.75793   0.13877   0.03421   0.00000  Uiso   1.00
N119   N     0.83332   0.16666   0.28573   0.00000  Uiso   1.00
N120   N     0.83335   0.16668   0.04760   0.00000  Uiso   1.00
O121   O     0.83333   0.10558   0.20487   0.00000  Uiso   1.00
O122   O     0.83334   0.22775   0.12846   0.00000  Uiso   1.00
O123   O     0.83333   0.10559   0.12843   0.00000  Uiso   1.00
O124   O     0.83334   0.22774   0.20490   0.00000  Uiso   1.00
O125   O     0.75725   0.16666   0.19595   0.00000  Uiso   1.00
O126   O     0.90942   0.16667   0.13739   0.00000  Uiso   1.00
O127   O     0.75725   0.16667   0.11950   0.00000  Uiso   1.00
O128   O     0.90942   0.16666   0.21383   0.00000  Uiso   1.00
Zn129  Zn    0.83333   0.16666   0.21771   0.00000  Uiso   1.00
Zn130  Zn    0.83333   0.16667   0.11563   0.00000  Uiso   1.00
S131   S     0.91605   0.29382   0.11068   0.00000  Uiso   1.00
O132   O     0.88814   0.27900   0.06585   0.00000  Uiso   1.00
O133   O     0.95665   0.32630   0.10180   0.00000  Uiso   1.00
O134   O     0.94629   0.25378   0.13953   0.00000  Uiso   1.00
H135   H     0.96278   0.26568   0.16876   0.00000  Uiso   1.00
S136   S     0.74952   0.03961   0.22185   0.00000  Uiso   1.00
O137   O     0.72548   0.07748   0.19781   0.00000  Uiso   1.00
O138   O     0.70676   0.00773   0.22677   0.00000  Uiso   1.00
O139   O     0.77988   0.05240   0.27376   0.00000  Uiso   1.00
H140   H     0.75273   0.04902   0.29424   0.00000  Uiso   1.00
O141   O     0.91854   0.19766   0.05679   0.00000  Uiso   1.00
H142   H     0.94576   0.20730   0.03814   0.00000  Uiso   1.00
O143   O     0.74813   0.13570   0.27654   0.00000  Uiso   1.00
H144   H     0.72067   0.12651   0.29514   0.00000  Uiso   1.00
C145   C     0.16430   0.42008   0.16680   0.00000  Uiso   1.00
C146   C     0.16893   0.57995   0.16650   0.00000  Uiso   1.00
C147   C     0.06717   0.49993   0.15486   0.00000  Uiso   1.00
C148   C     0.26615   0.49968   0.17849   0.00000  Uiso   1.00
C149   C     0.01223   0.49864   0.14852   0.00000  Uiso   1.00
C150   C     0.32109   0.50042   0.18486   0.00000  Uiso   1.00
C151   C     0.19930   0.35756   0.14256   0.00000  Uiso   1.00
C152   C     0.13345   0.64251   0.19048   0.00000  Uiso   1.00
C153   C     0.20249   0.64824   0.14161   0.00000  Uiso   1.00
C154   C     0.13003   0.35186   0.19120   0.00000  Uiso   1.00
C155   C     0.16889   0.62417   0.16583   0.00000  Uiso   1.00
C156   C     0.16398   0.37589   0.16729   0.00000  Uiso   1.00
C157   C     0.20906   0.51550   0.02865   0.00000  Uiso   1.00
C158   C     0.12427   0.48452   0.30468   0.00000  Uiso   1.00
C159   C     0.20869   0.51547   0.31389   0.00000  Uiso   1.00
C160   C     0.12465   0.48453   0.01944   0.00000  Uiso   1.00
H161   H     0.32542   0.49588   0.11400   0.00000  Uiso   1.00
H162   H     0.00788   0.50320   0.21938   0.00000  Uiso   1.00
H163   H     0.22503   0.37685   0.12447   0.00000  Uiso   1.00
H164   H     0.10780   0.62322   0.20867   0.00000  Uiso   1.00
H165   H     0.24208   0.52787   0.29911   0.00000  Uiso   1.00
H166   H     0.09126   0.47210   0.03421   0.00000  Uiso   1.00
N167   N     0.16665   0.49999   0.28573   0.00000  Uiso   1.00
N168   N     0.16668   0.50001   0.04760   0.00000  Uiso   1.00
O169   O     0.16666   0.43892   0.20487   0.00000  Uiso   1.00
O170   O     0.16667   0.56108   0.12846   0.00000  Uiso   1.00
O171   O     0.16666   0.43893   0.12843   0.00000  Uiso   1.00
O172   O     0.16667   0.56107   0.20490   0.00000  Uiso   1.00
O173   O     0.09058   0.50000   0.19595   0.00000  Uiso   1.00
O174   O     0.24275   0.50000   0.13739   0.00000  Uiso   1.00
O175   O     0.09058   0.50000   0.11950   0.00000  Uiso   1.00
O176   O     0.24275   0.50000   0.21383   0.00000  Uiso   1.00
Zn177  Zn    0.16667   0.49999   0.21771   0.00000  Uiso   1.00
Zn178  Zn    0.16667   0.50001   0.11563   0.00000  Uiso   1.00
S179   S     0.24938   0.62715   0.11068   0.00000  Uiso   1.00
O180   O     0.22148   0.61233   0.06585   0.00000  Uiso   1.00
O181   O     0.28998   0.65964   0.10180   0.00000  Uiso   1.00
O182   O     0.27962   0.58711   0.13953   0.00000  Uiso   1.00
H183   H     0.29612   0.59901   0.16876   0.00000  Uiso   1.00
S184   S     0.08285   0.37294   0.22185   0.00000  Uiso   1.00
O185   O     0.05881   0.41082   0.19781   0.00000  Uiso   1.00
O186   O     0.04009   0.34106   0.22677   0.00000  Uiso   1.00
O187   O     0.11322   0.38573   0.27376   0.00000  Uiso   1.00
H188   H     0.08607   0.38235   0.29424   0.00000  Uiso   1.00
O189   O     0.25187   0.53099   0.05679   0.00000  Uiso   1.00
H190   H     0.27910   0.54063   0.03814   0.00000  Uiso   1.00
O191   O     0.08147   0.46904   0.27654   0.00000  Uiso   1.00
H192   H     0.05400   0.45984   0.29514   0.00000  Uiso   1.00
C193   C     0.49763   0.42008   0.16680   0.00000  Uiso   1.00
C194   C     0.50227   0.57995   0.16650   0.00000  Uiso   1.00
C195   C     0.40050   0.49993   0.15486   0.00000  Uiso   1.00
C196   C     0.59948   0.49968   0.17849   0.00000  Uiso   1.00
C197   C     0.34556   0.49864   0.14852   0.00000  Uiso   1.00
C198   C     0.65442   0.50042   0.18486   0.00000  Uiso   1.00
C199   C     0.53264   0.35756   0.14256   0.00000  Uiso   1.00
C200   C     0.46678   0.64251   0.19048   0.00000  Uiso   1.00
C201   C     0.53583   0.64824   0.14161   0.00000  Uiso   1.00
C202   C     0.46337   0.35186   0.19120   0.00000  Uiso   1.00
C203   C     0.50223   0.62417   0.16583   0.00000  Uiso   1.00
C204   C     0.49731   0.37589   0.16729   0.00000  Uiso   1.00
C205   C     0.54240   0.51550   0.02865   0.00000  Uiso   1.00
C206   C     0.45760   0.48452   0.30468   0.00000  Uiso   1.00
C207   C     0.54202   0.51547   0.31389   0.00000  Uiso   1.00
C208   C     0.45798   0.48453   0.01944   0.00000  Uiso   1.00
H209   H     0.65875   0.49588   0.11400   0.00000  Uiso   1.00
H210   H     0.34122   0.50320   0.21938   0.00000  Uiso   1.00
H211   H     0.55837   0.37685   0.12447   0.00000  Uiso   1.00
H212   H     0.44114   0.62322   0.20867   0.00000  Uiso   1.00
H213   H     0.57541   0.52787   0.29911   0.00000  Uiso   1.00
H214   H     0.42460   0.47210   0.03421   0.00000  Uiso   1.00
N215   N     0.49999   0.49999   0.28573   0.00000  Uiso   1.00
N216   N     0.50001   0.50001   0.04760   0.00000  Uiso   1.00
O217   O     0.50000   0.43892   0.20487   0.00000  Uiso   1.00
O218   O     0.50000   0.56108   0.12846   0.00000  Uiso   1.00
O219   O     0.50000   0.43893   0.12843   0.00000  Uiso   1.00
O220   O     0.50000   0.56107   0.20490   0.00000  Uiso   1.00
O221   O     0.42392   0.50000   0.19595   0.00000  Uiso   1.00
O222   O     0.57608   0.50000   0.13739   0.00000  Uiso   1.00
O223   O     0.42392   0.50000   0.11950   0.00000  Uiso   1.00
O224   O     0.57608   0.50000   0.21383   0.00000  Uiso   1.00
Zn225  Zn    0.50000   0.49999   0.21771   0.00000  Uiso   1.00
Zn226  Zn    0.50000   0.50001   0.11563   0.00000  Uiso   1.00
S227   S     0.58271   0.62715   0.11068   0.00000  Uiso   1.00
O228   O     0.55481   0.61233   0.06585   0.00000  Uiso   1.00
O229   O     0.62332   0.65964   0.10180   0.00000  Uiso   1.00
O230   O     0.61296   0.58711   0.13953   0.00000  Uiso   1.00
H231   H     0.62945   0.59901   0.16876   0.00000  Uiso   1.00
S232   S     0.41619   0.37294   0.22185   0.00000  Uiso   1.00
O233   O     0.39215   0.41082   0.19781   0.00000  Uiso   1.00
O234   O     0.37342   0.34106   0.22677   0.00000  Uiso   1.00
O235   O     0.44655   0.38573   0.27376   0.00000  Uiso   1.00
H236   H     0.41940   0.38235   0.29424   0.00000  Uiso   1.00
O237   O     0.58521   0.53099   0.05679   0.00000  Uiso   1.00
H238   H     0.61243   0.54063   0.03814   0.00000  Uiso   1.00
O239   O     0.41480   0.46904   0.27654   0.00000  Uiso   1.00
H240   H     0.38734   0.45984   0.29514   0.00000  Uiso   1.00
C241   C     0.83096   0.42008   0.16680   0.00000  Uiso   1.00
C242   C     0.83560   0.57995   0.16650   0.00000  Uiso   1.00
C243   C     0.73384   0.49993   0.15486   0.00000  Uiso   1.00
C244   C     0.93282   0.49968   0.17849   0.00000  Uiso   1.00
C245   C     0.67890   0.49864   0.14852   0.00000  Uiso   1.00
C246   C     0.98776   0.50042   0.18486   0.00000  Uiso   1.00
C247   C     0.86597   0.35756   0.14256   0.00000  Uiso   1.00
C248   C     0.80012   0.64251   0.19048   0.00000  Uiso   1.00
C249   C     0.86916   0.64824   0.14161   0.00000  Uiso   1.00
C250   C     0.79670   0.35186   0.19120   0.00000  Uiso   1.00
C251   C     0.83556   0.62417   0.16583   0.00000  Uiso   1.00
C252   C     0.83064   0.37589   0.16729   0.00000  Uiso   1.00
C253   C     0.87573   0.51550   0.02865   0.00000  Uiso   1.00
C254   C     0.79093   0.48452   0.30468   0.00000  Uiso   1.00
C255   C     0.87535   0.51547   0.31389   0.00000  Uiso   1.00
C256   C     0.79131   0.48453   0.01944   0.00000  Uiso   1.00
H257   H     0.99208   0.49588   0.11400   0.00000  Uiso   1.00
H258   H     0.67455   0.50320   0.21938   0.00000  Uiso   1.00
H259   H     0.89170   0.37685   0.12447   0.00000  Uiso   1.00
H260   H     0.77447   0.62322   0.20867   0.00000  Uiso   1.00
H261   H     0.90875   0.52787   0.29911   0.00000  Uiso   1.00
H262   H     0.75793   0.47210   0.03421   0.00000  Uiso   1.00
N263   N     0.83332   0.49999   0.28573   0.00000  Uiso   1.00
N264   N     0.83335   0.50001   0.04760   0.00000  Uiso   1.00
O265   O     0.83333   0.43892   0.20487   0.00000  Uiso   1.00
O266   O     0.83334   0.56108   0.12846   0.00000  Uiso   1.00
O267   O     0.83333   0.43893   0.12843   0.00000  Uiso   1.00
O268   O     0.83334   0.56107   0.20490   0.00000  Uiso   1.00
O269   O     0.75725   0.50000   0.19595   0.00000  Uiso   1.00
O270   O     0.90942   0.50000   0.13739   0.00000  Uiso   1.00
O271   O     0.75725   0.50000   0.11950   0.00000  Uiso   1.00
O272   O     0.90942   0.50000   0.21383   0.00000  Uiso   1.00
Zn273  Zn    0.83333   0.49999   0.21771   0.00000  Uiso   1.00
Zn274  Zn    0.83333   0.50001   0.11563   0.00000  Uiso   1.00
S275   S     0.91605   0.62715   0.11068   0.00000  Uiso   1.00
O276   O     0.88814   0.61233   0.06585   0.00000  Uiso   1.00
O277   O     0.95665   0.65964   0.10180   0.00000  Uiso   1.00
O278   O     0.94629   0.58711   0.13953   0.00000  Uiso   1.00
H279   H     0.96278   0.59901   0.16876   0.00000  Uiso   1.00
S280   S     0.74952   0.37294   0.22185   0.00000  Uiso   1.00
O281   O     0.72548   0.41082   0.19781   0.00000  Uiso   1.00
O282   O     0.70676   0.34106   0.22677   0.00000  Uiso   1.00
O283   O     0.77988   0.38573   0.27376   0.00000  Uiso   1.00
H284   H     0.75273   0.38235   0.29424   0.00000  Uiso   1.00
O285   O     0.91854   0.53099   0.05679   0.00000  Uiso   1.00
H286   H     0.94576   0.54063   0.03814   0.00000  Uiso   1.00
O287   O     0.74813   0.46904   0.27654   0.00000  Uiso   1.00
H288   H     0.72067   0.45984   0.29514   0.00000  Uiso   1.00
C289   C     0.16430   0.75341   0.16680   0.00000  Uiso   1.00
C290   C     0.16893   0.91328   0.16650   0.00000  Uiso   1.00
C291   C     0.06717   0.83326   0.15486   0.00000  Uiso   1.00
C292   C     0.26615   0.83301   0.17849   0.00000  Uiso   1.00
C293   C     0.01223   0.83197   0.14852   0.00000  Uiso   1.00
C294   C     0.32109   0.83376   0.18486   0.00000  Uiso   1.00
C295   C     0.19930   0.69090   0.14256   0.00000  Uiso   1.00
C296   C     0.13345   0.97584   0.19048   0.00000  Uiso   1.00
C297   C     0.20249   0.98158   0.14161   0.00000  Uiso   1.00
C298   C     0.13003   0.68519   0.19120   0.00000  Uiso   1.00
C299   C     0.16889   0.95750   0.16583   0.00000  Uiso   1.00
C300   C     0.16398   0.70923   0.16729   0.00000  Uiso   1.00
C301   C     0.20906   0.84883   0.02865   0.00000  Uiso   1.00
C302   C     0.12427   0.81785   0.30468   0.00000  Uiso   1.00
C303   C     0.20869   0.84880   0.31389   0.00000  Uiso   1.00
C304   C     0.12465   0.81786   0.01944   0.00000  Uiso   1.00
H305   H     0.32542   0.82922   0.11400   0.00000  Uiso   1.00
H306   H     0.00788   0.83653   0.21938   0.00000  Uiso   1.00
H307   H     0.22503   0.71019   0.12447   0.00000  Uiso   1.00
H308   H     0.10780   0.95656   0.20867   0.00000  Uiso   1.00
H309   H     0.24208   0.86120   0.29911   0.00000  Uiso   1.00
H310   H     0.09126   0.80544   0.03421   0.00000  Uiso   1.00
N311   N     0.16665   0.83332   0.28573   0.00000  Uiso   1.00
N312   N     0.16668   0.83334   0.04760   0.00000  Uiso   1.00
O313   O     0.16666   0.77225   0.20487   0.00000  Uiso   1.00
O314   O     0.16667   0.89442   0.12846   0.00000  Uiso   1.00
O315   O     0.16666   0.77226   0.12843   0.00000  Uiso   1.00
O316   O     0.16667   0.89441   0.20490   0.00000  Uiso   1.00
O317   O     0.09058   0.83333   0.19595   0.00000  Uiso   1.00
O318   O     0.24275   0.83334   0.13739   0.00000  Uiso   1.00
O319   O     0.09058   0.83334   0.11950   0.00000  Uiso   1.00
O320   O     0.24275   0.83333   0.21383   0.00000  Uiso   1.00
Zn321  Zn    0.16667   0.83333   0.21771   0.00000  Uiso   1.00
Zn322  Zn    0.16667   0.83334   0.11563   0.00000  Uiso   1.00
S323   S     0.24938   0.96049   0.11068   0.00000  Uiso   1.00
O324   O     0.22148   0.94567   0.06585   0.00000  Uiso   1.00
O325   O     0.28998   0.99297   0.10180   0.00000  Uiso   1.00
O326   O     0.27962   0.92045   0.13953   0.00000  Uiso   1.00
H327   H     0.29612   0.93235   0.16876   0.00000  Uiso   1.00
S328   S     0.08285   0.70627   0.22185   0.00000  Uiso   1.00
O329   O     0.05881   0.74415   0.19781   0.00000  Uiso   1.00
O330   O     0.04009   0.67440   0.22677   0.00000  Uiso   1.00
O331   O     0.11322   0.71906   0.27376   0.00000  Uiso   1.00
H332   H     0.08607   0.71569   0.29424   0.00000  Uiso   1.00
O333   O     0.25187   0.86432   0.05679   0.00000  Uiso   1.00
H334   H     0.27910   0.87397   0.03814   0.00000  Uiso   1.00
O335   O     0.08147   0.80237   0.27654   0.00000  Uiso   1.00
H336   H     0.05400   0.79317   0.29514   0.00000  Uiso   1.00
C337   C     0.49763   0.75341   0.16680   0.00000  Uiso   1.00
C338   C     0.50227   0.91328   0.16650   0.00000  Uiso   1.00
C339   C     0.40050   0.83326   0.15486   0.00000  Uiso   1.00
C340   C     0.59948   0.83301   0.17849   0.00000  Uiso   1.00
C341   C     0.34556   0.83197   0.14852   0.00000  Uiso   1.00
C342   C     0.65442   0.83376   0.18486   0.00000  Uiso   1.00
C343   C     0.53264   0.69090   0.14256   0.00000  Uiso   1.00
C344   C     0.46678   0.97584   0.19048   0.00000  Uiso   1.00
C345   C     0.53583   0.98158   0.14161   0.00000  Uiso   1.00
C346   C     0.46337   0.68519   0.19120   0.00000  Uiso   1.00
C347   C     0.50223   0.95750   0.16583   0.00000  Uiso   1.00
C348   C     0.49731   0.70923   0.16729   0.00000  Uiso   1.00
C349   C     0.54240   0.84883   0.02865   0.00000  Uiso   1.00
C350   C     0.45760   0.81785   0.30468   0.00000  Uiso   1.00
C351   C     0.54202   0.84880   0.31389   0.00000  Uiso   1.00
C352   C     0.45798   0.81786   0.01944   0.00000  Uiso   1.00
H353   H     0.65875   0.82922   0.11400   0.00000  Uiso   1.00
H354   H     0.34122   0.83653   0.21938   0.00000  Uiso   1.00
H355   H     0.55837   0.71019   0.12447   0.00000  Uiso   1.00
H356   H     0.44114   0.95656   0.20867   0.00000  Uiso   1.00
H357   H     0.57541   0.86120   0.29911   0.00000  Uiso   1.00
H358   H     0.42460   0.80544   0.03421   0.00000  Uiso   1.00
N359   N     0.49999   0.83332   0.28573   0.00000  Uiso   1.00
N360   N     0.50001   0.83334   0.04760   0.00000  Uiso   1.00
O361   O     0.50000   0.77225   0.20487   0.00000  Uiso   1.00
O362   O     0.50000   0.89442   0.12846   0.00000  Uiso   1.00
O363   O     0.50000   0.77226   0.12843   0.00000  Uiso   1.00
O364   O     0.50000   0.89441   0.20490   0.00000  Uiso   1.00
O365   O     0.42392   0.83333   0.19595   0.00000  Uiso   1.00
O366   O     0.57608   0.83334   0.13739   0.00000  Uiso   1.00
O367   O     0.42392   0.83334   0.11950   0.00000  Uiso   1.00
O368   O     0.57608   0.83333   0.21383   0.00000  Uiso   1.00
Zn369  Zn    0.50000   0.83333   0.21771   0.00000  Uiso   1.00
Zn370  Zn    0.50000   0.83334   0.11563   0.00000  Uiso   1.00
S371   S     0.58271   0.96049   0.11068   0.00000  Uiso   1.00
O372   O     0.55481   0.94567   0.06585   0.00000  Uiso   1.00
O373   O     0.62332   0.99297   0.10180   0.00000  Uiso   1.00
O374   O     0.61296   0.92045   0.13953   0.00000  Uiso   1.00
H375   H     0.62945   0.93235   0.16876   0.00000  Uiso   1.00
S376   S     0.41619   0.70627   0.22185   0.00000  Uiso   1.00
O377   O     0.39215   0.74415   0.19781   0.00000  Uiso   1.00
O378   O     0.37342   0.67440   0.22677   0.00000  Uiso   1.00
O379   O     0.44655   0.71906   0.27376   0.00000  Uiso   1.00
H380   H     0.41940   0.71569   0.29424   0.00000  Uiso   1.00
O381   O     0.58521   0.86432   0.05679   0.00000  Uiso   1.00
H382   H     0.61243   0.87397   0.03814   0.00000  Uiso   1.00
O383   O     0.41480   0.80237   0.27654   0.00000  Uiso   1.00
H384   H     0.38734   0.79317   0.29514   0.00000  Uiso   1.00
C385   C     0.83096   0.75341   0.16680   0.00000  Uiso   1.00
C386   C     0.83560   0.91328   0.16650   0.00000  Uiso   1.00
C387   C     0.73384   0.83326   0.15486   0.00000  Uiso   1.00
C388   C     0.93282   0.83301   0.17849   0.00000  Uiso   1.00
C389   C     0.67890   0.83197   0.14852   0.00000  Uiso   1.00
C390   C     0.98776   0.83376   0.18486   0.00000  Uiso   1.00
C391   C     0.86597   0.69090   0.14256   0.00000  Uiso   1.00
C392   C     0.80012   0.97584   0.19048   0.00000  Uiso   1.00
C393   C     0.86916   0.98158   0.14161   0.00000  Uiso   1.00
C394   C     0.79670   0.68519   0.19120   0.00000  Uiso   1.00
C395   C     0.83556   0.95750   0.16583   0.00000  Uiso   1.00
C396   C     0.83064   0.70923   0.16729   0.00000  Uiso   1.00
C397   C     0.87573   0.84883   0.02865   0.00000  Uiso   1.00
C398   C     0.79093   0.81785   0.30468   0.00000  Uiso   1.00
C399   C     0.87535   0.84880   0.31389   0.00000  Uiso   1.00
C400   C     0.79131   0.81786   0.01944   0.00000  Uiso   1.00
H401   H     0.99208   0.82922   0.11400   0.00000  Uiso   1.00
H402   H     0.67455   0.83653   0.21938   0.00000  Uiso   1.00
H403   H     0.89170   0.71019   0.12447   0.00000  Uiso   1.00
H404   H     0.77447   0.95656   0.20867   0.00000  Uiso   1.00
H405   H     0.90875   0.86120   0.29911   0.00000  Uiso   1.00
H406   H     0.75793   0.80544   0.03421   0.00000  Uiso   1.00
N407   N     0.83332   0.83332   0.28573   0.00000  Uiso   1.00
N408   N     0.83335   0.83334   0.04760   0.00000  Uiso   1.00
O409   O     0.83333   0.77225   0.20487   0.00000  Uiso   1.00
O410   O     0.83334   0.89442   0.12846   0.00000  Uiso   1.00
O411   O     0.83333   0.77226   0.12843   0.00000  Uiso   1.00
O412   O     0.83334   0.89441   0.20490   0.00000  Uiso   1.00
O413   O     0.75725   0.83333   0.19595   0.00000  Uiso   1.00
O414   O     0.90942   0.83334   0.13739   0.00000  Uiso   1.00
O415   O     0.75725   0.83334   0.11950   0.00000  Uiso   1.00
O416   O     0.90942   0.83333   0.21383   0.00000  Uiso   1.00
Zn417  Zn    0.83333   0.83333   0.21771   0.00000  Uiso   1.00
Zn418  Zn    0.83333   0.83334   0.11563   0.00000  Uiso   1.00
S419   S     0.91605   0.96049   0.11068   0.00000  Uiso   1.00
O420   O     0.88814   0.94567   0.06585   0.00000  Uiso   1.00
O421   O     0.95665   0.99297   0.10180   0.00000  Uiso   1.00
O422   O     0.94629   0.92045   0.13953   0.00000  Uiso   1.00
H423   H     0.96278   0.93235   0.16876   0.00000  Uiso   1.00
S424   S     0.74952   0.70627   0.22185   0.00000  Uiso   1.00
O425   O     0.72548   0.74415   0.19781   0.00000  Uiso   1.00
O426   O     0.70676   0.67440   0.22677   0.00000  Uiso   1.00
O427   O     0.77988   0.71906   0.27376   0.00000  Uiso   1.00
H428   H     0.75273   0.71569   0.29424   0.00000  Uiso   1.00
O429   O     0.91854   0.86432   0.05679   0.00000  Uiso   1.00
H430   H     0.94576   0.87397   0.03814   0.00000  Uiso   1.00
O431   O     0.74813   0.80237   0.27654   0.00000  Uiso   1.00
H432   H     0.72067   0.79317   0.29514   0.00000  Uiso   1.00
C433   C     0.16430   0.08675   0.50014   0.00000  Uiso   1.00
C434   C     0.16893   0.24661   0.49983   0.00000  Uiso   1.00
C435   C     0.06717   0.16659   0.48819   0.00000  Uiso   1.00
C436   C     0.26615   0.16635   0.51182   0.00000  Uiso   1.00
C437   C     0.01223   0.16531   0.48185   0.00000  Uiso   1.00
C438   C     0.32109   0.16709   0.51819   0.00000  Uiso   1.00
C439   C     0.19930   0.02423   0.47590   0.00000  Uiso   1.00
C440   C     0.13345   0.30917   0.52381   0.00000  Uiso   1.00
C441   C     0.20249   0.31491   0.47494   0.00000  Uiso   1.00
C442   C     0.13003   0.01853   0.52454   0.00000  Uiso   1.00
C443   C     0.16889   0.29083   0.49917   0.00000  Uiso   1.00
C444   C     0.16398   0.04256   0.50063   0.00000  Uiso   1.00
C445   C     0.20906   0.18217   0.36198   0.00000  Uiso   1.00
C446   C     0.12427   0.15118   0.63802   0.00000  Uiso   1.00
C447   C     0.20869   0.18214   0.64722   0.00000  Uiso   1.00
C448   C     0.12465   0.15120   0.35278   0.00000  Uiso   1.00
H449   H     0.32542   0.16255   0.44733   0.00000  Uiso   1.00
H450   H     0.00788   0.16986   0.55271   0.00000  Uiso   1.00
H451   H     0.22503   0.04352   0.45780   0.00000  Uiso   1.00
H452   H     0.10780   0.28989   0.54200   0.00000  Uiso   1.00
H453   H     0.24208   0.19454   0.63245   0.00000  Uiso   1.00
H454   H     0.09126   0.13877   0.36754   0.00000  Uiso   1.00
N455   N     0.16665   0.16666   0.61907   0.00000  Uiso   1.00
N456   N     0.16668   0.16668   0.38093   0.00000  Uiso   1.00
O457   O     0.16666   0.10558   0.53821   0.00000  Uiso   1.00
O458   O     0.16667   0.22775   0.46179   0.00000  Uiso   1.00
O459   O     0.16666   0.10559   0.46176   0.00000  Uiso   1.00
O460   O     0.16667   0.22774   0.53824   0.00000  Uiso   1.00
O461   O     0.09058   0.16666   0.52928   0.00000  Uiso   1.00
O462   O     0.24275   0.16667   0.47072   0.00000  Uiso   1.00
O463   O     0.09058   0.16667   0.45284   0.00000  Uiso   1.00
O464   O     0.24275   0.16666   0.54716   0.00000  Uiso   1.00
Zn465  Zn    0.16667   0.16666   0.55104   0.00000  Uiso   1.00
Zn466  Zn    0.16667   0.16667   0.44896   0.00000  Uiso   1.00
S467   S     0.24938   0.29382   0.44401   0.00000  Uiso   1.00
O468   O     0.22148   0.27900   0.39918   0.00000  Uiso   1.00
O469   O     0.28998   0.32630   0.43514   0.00000  Uiso   1.00
O470   O     0.27962   0.25378   0.47287   0.00000  Uiso   1.00
H471   H     0.29612   0.26568   0.50209   0.00000  Uiso   1.00
S472   S     0.08285   0.03961   0.55518   0.00000  Uiso   1.00
O473   O     0.05881   0.07748   0.53114   0.00000  Uiso   1.00
O474   O     0.04009   0.00773   0.56010   0.00000  Uiso   1.00
O475   O     0.11322   0.05240   0.60710   0.00000  Uiso   1.00
H476   H     0.08607   0.04902   0.62757   0.00000  Uiso   1.00
O477   O     0.25187   0.19766   0.39012   0.00000  Uiso   1.00
H478   H     0.27910   0.20730   0.37147   0.00000  Uiso   1.00
O479   O     0.08147   0.13570   0.60987   0.00000  Uiso   1.00
H480   H     0.05400   0.12651   0.62847   0.00000  Uiso   1.00
C481   C     0.49763   0.08675   0.50014   0.00000  Uiso   1.00
C482   C     0.50227   0.24661   0.49983   0.00000  Uiso   1.00
C483   C     0.40050   0.16659   0.48819   0.00000  Uiso   1.00
C484   C     0.59948   0.16635   0.51182   0.00000  Uiso   1.00
C485   C     0.34556   0.16531   0.48185   0.00000  Uiso   1.00
C486   C     0.65442   0.16709   0.51819   0.00000  Uiso   1.00
C487   C     0.53264   0.02423   0.47590   0.00000  Uiso   1.00
C488   C     0.46678   0.30917   0.52381   0.00000  Uiso   1.00
C489   C     0.53583   0.31491   0.47494   0.00000  Uiso   1.00
C490   C     0.46337   0.01853   0.52454   0.00000  Uiso   1.00
C491   C     0.50223   0.29083   0.49917   0.00000  Uiso   1.00
C492   C     0.49731   0.04256   0.50063   0.00000  Uiso   1.00
C493   C     0.54240   0.18217   0.36198   0.00000  Uiso   1.00
C494   C     0.45760   0.15118   0.63802   0.00000  Uiso   1.00
C495   C     0.54202   0.18214   0.64722   0.00000  Uiso   1.00
C496   C     0.45798   0.15120   0.35278   0.00000  Uiso   1.00
H497   H     0.65875   0.16255   0.44733   0.00000  Uiso   1.00
H498   H     0.34122   0.16986   0.55271   0.00000  Uiso   1.00
H499   H     0.55837   0.04352   0.45780   0.00000  Uiso   1.00
H500   H     0.44114   0.28989   0.54200   0.00000  Uiso   1.00
H501   H     0.57541   0.19454   0.63245   0.00000  Uiso   1.00
H502   H     0.42460   0.13877   0.36754   0.00000  Uiso   1.00
N503   N     0.49999   0.16666   0.61907   0.00000  Uiso   1.00
N504   N     0.50001   0.16668   0.38093   0.00000  Uiso   1.00
O505   O     0.50000   0.10558   0.53821   0.00000  Uiso   1.00
O506   O     0.50000   0.22775   0.46179   0.00000  Uiso   1.00
O507   O     0.50000   0.10559   0.46176   0.00000  Uiso   1.00
O508   O     0.50000   0.22774   0.53824   0.00000  Uiso   1.00
O509   O     0.42392   0.16666   0.52928   0.00000  Uiso   1.00
O510   O     0.57608   0.16667   0.47072   0.00000  Uiso   1.00
O511   O     0.42392   0.16667   0.45284   0.00000  Uiso   1.00
O512   O     0.57608   0.16666   0.54716   0.00000  Uiso   1.00
Zn513  Zn    0.50000   0.16666   0.55104   0.00000  Uiso   1.00
Zn514  Zn    0.50000   0.16667   0.44896   0.00000  Uiso   1.00
S515   S     0.58271   0.29382   0.44401   0.00000  Uiso   1.00
O516   O     0.55481   0.27900   0.39918   0.00000  Uiso   1.00
O517   O     0.62332   0.32630   0.43514   0.00000  Uiso   1.00
O518   O     0.61296   0.25378   0.47287   0.00000  Uiso   1.00
H519   H     0.62945   0.26568   0.50209   0.00000  Uiso   1.00
S520   S     0.41619   0.03961   0.55518   0.00000  Uiso   1.00
O521   O     0.39215   0.07748   0.53114   0.00000  Uiso   1.00
O522   O     0.37342   0.00773   0.56010   0.00000  Uiso   1.00
O523   O     0.44655   0.05240   0.60710   0.00000  Uiso   1.00
H524   H     0.41940   0.04902   0.62757   0.00000  Uiso   1.00
O525   O     0.58521   0.19766   0.39012   0.00000  Uiso   1.00
H526   H     0.61243   0.20730   0.37147   0.00000  Uiso   1.00
O527   O     0.41480   0.13570   0.60987   0.00000  Uiso   1.00
H528   H     0.38734   0.12651   0.62847   0.00000  Uiso   1.00
C529   C     0.83096   0.08675   0.50014   0.00000  Uiso   1.00
C530   C     0.83560   0.24661   0.49983   0.00000  Uiso   1.00
C531   C     0.73384   0.16659   0.48819   0.00000  Uiso   1.00
C532   C     0.93282   0.16635   0.51182   0.00000  Uiso   1.00
C533   C     0.67890   0.16531   0.48185   0.00000  Uiso   1.00
C534   C     0.98776   0.16709   0.51819   0.00000  Uiso   1.00
C535   C     0.86597   0.02423   0.47590   0.00000  Uiso   1.00
C536   C     0.80012   0.30917   0.52381   0.00000  Uiso   1.00
C537   C     0.86916   0.31491   0.47494   0.00000  Uiso   1.00
C538   C     0.79670   0.01853   0.52454   0.00000  Uiso   1.00
C539   C     0.83556   0.29083   0.49917   0.00000  Uiso   1.00
C540   C     0.83064   0.04256   0.50063   0.00000  Uiso   1.00
C541   C     0.87573   0.18217   0.36198   0.00000  Uiso   1.00
C542   C     0.79093   0.15118   0.63802   0.00000  Uiso   1.00
C543   C     0.87535   0.18214   0.64722   0.00000  Uiso   1.00
C544   C     0.79131   0.15120   0.35278   0.00000  Uiso   1.00
H545   H     0.99208   0.16255   0.44733   0.00000  Uiso   1.00
H546   H     0.67455   0.16986   0.55271   0.00000  Uiso   1.00
H547   H     0.89170   0.04352   0.45780   0.00000  Uiso   1.00
H548   H     0.77447   0.28989   0.54200   0.00000  Uiso   1.00
H549   H     0.90875   0.19454   0.63245   0.00000  Uiso   1.00
H550   H     0.75793   0.13877   0.36754   0.00000  Uiso   1.00
N551   N     0.83332   0.16666   0.61907   0.00000  Uiso   1.00
N552   N     0.83335   0.16668   0.38093   0.00000  Uiso   1.00
O553   O     0.83333   0.10558   0.53821   0.00000  Uiso   1.00
O554   O     0.83334   0.22775   0.46179   0.00000  Uiso   1.00
O555   O     0.83333   0.10559   0.46176   0.00000  Uiso   1.00
O556   O     0.83334   0.22774   0.53824   0.00000  Uiso   1.00
O557   O     0.75725   0.16666   0.52928   0.00000  Uiso   1.00
O558   O     0.90942   0.16667   0.47072   0.00000  Uiso   1.00
O559   O     0.75725   0.16667   0.45284   0.00000  Uiso   1.00
O560   O     0.90942   0.16666   0.54716   0.00000  Uiso   1.00
Zn561  Zn    0.83333   0.16666   0.55104   0.00000  Uiso   1.00
Zn562  Zn    0.83333   0.16667   0.44896   0.00000  Uiso   1.00
S563   S     0.91605   0.29382   0.44401   0.00000  Uiso   1.00
O564   O     0.88814   0.27900   0.39918   0.00000  Uiso   1.00
O565   O     0.95665   0.32630   0.43514   0.00000  Uiso   1.00
O566   O     0.94629   0.25378   0.47287   0.00000  Uiso   1.00
H567   H     0.96278   0.26568   0.50209   0.00000  Uiso   1.00
S568   S     0.74952   0.03961   0.55518   0.00000  Uiso   1.00
O569   O     0.72548   0.07748   0.53114   0.00000  Uiso   1.00
O570   O     0.70676   0.00773   0.56010   0.00000  Uiso   1.00
O571   O     0.77988   0.05240   0.60710   0.00000  Uiso   1.00
H572   H     0.75273   0.04902   0.62757   0.00000  Uiso   1.00
O573   O     0.91854   0.19766   0.39012   0.00000  Uiso   1.00
H574   H     0.94576   0.20730   0.37147   0.00000  Uiso   1.00
O575   O     0.74813   0.13570   0.60987   0.00000  Uiso   1.00
H576   H     0.72067   0.12651   0.62847   0.00000  Uiso   1.00
C577   C     0.16430   0.42008   0.50014   0.00000  Uiso   1.00
C578   C     0.16893   0.57995   0.49983   0.00000  Uiso   1.00
C579   C     0.06717   0.49993   0.48819   0.00000  Uiso   1.00
C580   C     0.26615   0.49968   0.51182   0.00000  Uiso   1.00
C581   C     0.01223   0.49864   0.48185   0.00000  Uiso   1.00
C582   C     0.32109   0.50042   0.51819   0.00000  Uiso   1.00
C583   C     0.19930   0.35756   0.47590   0.00000  Uiso   1.00
C584   C     0.13345   0.64251   0.52381   0.00000  Uiso   1.00
C585   C     0.20249   0.64824   0.47494   0.00000  Uiso   1.00
C586   C     0.13003   0.35186   0.52454   0.00000  Uiso   1.00
C587   C     0.16889   0.62417   0.49917   0.00000  Uiso   1.00
C588   C     0.16398   0.37589   0.50063   0.00000  Uiso   1.00
C589   C     0.20906   0.51550   0.36198   0.00000  Uiso   1.00
C590   C     0.12427   0.48452   0.63802   0.00000  Uiso   1.00
C591   C     0.20869   0.51547   0.64722   0.00000  Uiso   1.00
C592   C     0.12465   0.48453   0.35278   0.00000  Uiso   1.00
H593   H     0.32542   0.49588   0.44733   0.00000  Uiso   1.00
H594   H     0.00788   0.50320   0.55271   0.00000  Uiso   1.00
H595   H     0.22503   0.37685   0.45780   0.00000  Uiso   1.00
H596   H     0.10780   0.62322   0.54200   0.00000  Uiso   1.00
H597   H     0.24208   0.52787   0.63245   0.00000  Uiso   1.00
H598   H     0.09126   0.47210   0.36754   0.00000  Uiso   1.00
N599   N     0.16665   0.49999   0.61907   0.00000  Uiso   1.00
N600   N     0.16668   0.50001   0.38093   0.00000  Uiso   1.00
O601   O     0.16666   0.43892   0.53821   0.00000  Uiso   1.00
O602   O     0.16667   0.56108   0.46179   0.00000  Uiso   1.00
O603   O     0.16666   0.43893   0.46176   0.00000  Uiso   1.00
O604   O     0.16667   0.56107   0.53824   0.00000  Uiso   1.00
O605   O     0.09058   0.50000   0.52928   0.00000  Uiso   1.00
O606   O     0.24275   0.50000   0.47072   0.00000  Uiso   1.00
O607   O     0.09058   0.50000   0.45284   0.00000  Uiso   1.00
O608   O     0.24275   0.50000   0.54716   0.00000  Uiso   1.00
Zn609  Zn    0.16667   0.49999   0.55104   0.00000  Uiso   1.00
Zn610  Zn    0.16667   0.50001   0.44896   0.00000  Uiso   1.00
S611   S     0.24938   0.62715   0.44401   0.00000  Uiso   1.00
O612   O     0.22148   0.61233   0.39918   0.00000  Uiso   1.00
O613   O     0.28998   0.65964   0.43514   0.00000  Uiso   1.00
O614   O     0.27962   0.58711   0.47287   0.00000  Uiso   1.00
H615   H     0.29612   0.59901   0.50209   0.00000  Uiso   1.00
S616   S     0.08285   0.37294   0.55518   0.00000  Uiso   1.00
O617   O     0.05881   0.41082   0.53114   0.00000  Uiso   1.00
O618   O     0.04009   0.34106   0.56010   0.00000  Uiso   1.00
O619   O     0.11322   0.38573   0.60710   0.00000  Uiso   1.00
H620   H     0.08607   0.38235   0.62757   0.00000  Uiso   1.00
O621   O     0.25187   0.53099   0.39012   0.00000  Uiso   1.00
H622   H     0.27910   0.54063   0.37147   0.00000  Uiso   1.00
O623   O     0.08147   0.46904   0.60987   0.00000  Uiso   1.00
H624   H     0.05400   0.45984   0.62847   0.00000  Uiso   1.00
C625   C     0.49763   0.42008   0.50014   0.00000  Uiso   1.00
C626   C     0.50227   0.57995   0.49983   0.00000  Uiso   1.00
C627   C     0.40050   0.49993   0.48819   0.00000  Uiso   1.00
C628   C     0.59948   0.49968   0.51182   0.00000  Uiso   1.00
C629   C     0.34556   0.49864   0.48185   0.00000  Uiso   1.00
C630   C     0.65442   0.50042   0.51819   0.00000  Uiso   1.00
C631   C     0.53264   0.35756   0.47590   0.00000  Uiso   1.00
C632   C     0.46678   0.64251   0.52381   0.00000  Uiso   1.00
C633   C     0.53583   0.64824   0.47494   0.00000  Uiso   1.00
C634   C     0.46337   0.35186   0.52454   0.00000  Uiso   1.00
C635   C     0.50223   0.62417   0.49917   0.00000  Uiso   1.00
C636   C     0.49731   0.37589   0.50063   0.00000  Uiso   1.00
C637   C     0.54240   0.51550   0.36198   0.00000  Uiso   1.00
C638   C     0.45760   0.48452   0.63802   0.00000  Uiso   1.00
C639   C     0.54202   0.51547   0.64722   0.00000  Uiso   1.00
C640   C     0.45798   0.48453   0.35278   0.00000  Uiso   1.00
H641   H     0.65875   0.49588   0.44733   0.00000  Uiso   1.00
H642   H     0.34122   0.50320   0.55271   0.00000  Uiso   1.00
H643   H     0.55837   0.37685   0.45780   0.00000  Uiso   1.00
H644   H     0.44114   0.62322   0.54200   0.00000  Uiso   1.00
H645   H     0.57541   0.52787   0.63245   0.00000  Uiso   1.00
H646   H     0.42460   0.47210   0.36754   0.00000  Uiso   1.00
N647   N     0.49999   0.49999   0.61907   0.00000  Uiso   1.00
N648   N     0.50001   0.50001   0.38093   0.00000  Uiso   1.00
O649   O     0.50000   0.43892   0.53821   0.00000  Uiso   1.00
O650   O     0.50000   0.56108   0.46179   0.00000  Uiso   1.00
O651   O     0.50000   0.43893   0.46176   0.00000  Uiso   1.00
O652   O     0.50000   0.56107   0.53824   0.00000  Uiso   1.00
O653   O     0.42392   0.50000   0.52928   0.00000  Uiso   1.00
O654   O     0.57608   0.50000   0.47072   0.00000  Uiso   1.00
O655   O     0.42392   0.50000   0.45284   0.00000  Uiso   1.00
O656   O     0.57608   0.50000   0.54716   0.00000  Uiso   1.00
Zn657  Zn    0.50000   0.49999   0.55104   0.00000  Uiso   1.00
Zn658  Zn    0.50000   0.50001   0.44896   0.00000  Uiso   1.00
S659   S     0.58271   0.62715   0.44401   0.00000  Uiso   1.00
O660   O     0.55481   0.61233   0.39918   0.00000  Uiso   1.00
O661   O     0.62332   0.65964   0.43514   0.00000  Uiso   1.00
O662   O     0.61296   0.58711   0.47287   0.00000  Uiso   1.00
H663   H     0.62945   0.59901   0.50209   0.00000  Uiso   1.00
S664   S     0.41619   0.37294   0.55518   0.00000  Uiso   1.00
O665   O     0.39215   0.41082   0.53114   0.00000  Uiso   1.00
O666   O     0.37342   0.34106   0.56010   0.00000  Uiso   1.00
O667   O     0.44655   0.38573   0.60710   0.00000  Uiso   1.00
H668   H     0.41940   0.38235   0.62757   0.00000  Uiso   1.00
O669   O     0.58521   0.53099   0.39012   0.00000  Uiso   1.00
H670   H     0.61243   0.54063   0.37147   0.00000  Uiso   1.00
O671   O     0.41480   0.46904   0.60987   0.00000  Uiso   1.00
H672   H     0.38734   0.45984   0.62847   0.00000  Uiso   1.00
C673   C     0.83096   0.42008   0.50014   0.00000  Uiso   1.00
C674   C     0.83560   0.57995   0.49983   0.00000  Uiso   1.00
C675   C     0.73384   0.49993   0.48819   0.00000  Uiso   1.00
C676   C     0.93282   0.49968   0.51182   0.00000  Uiso   1.00
C677   C     0.67890   0.49864   0.48185   0.00000  Uiso   1.00
C678   C     0.98776   0.50042   0.51819   0.00000  Uiso   1.00
C679   C     0.86597   0.35756   0.47590   0.00000  Uiso   1.00
C680   C     0.80012   0.64251   0.52381   0.00000  Uiso   1.00
C681   C     0.86916   0.64824   0.47494   0.00000  Uiso   1.00
C682   C     0.79670   0.35186   0.52454   0.00000  Uiso   1.00
C683   C     0.83556   0.62417   0.49917   0.00000  Uiso   1.00
C684   C     0.83064   0.37589   0.50063   0.00000  Uiso   1.00
C685   C     0.87573   0.51550   0.36198   0.00000  Uiso   1.00
C686   C     0.79093   0.48452   0.63802   0.00000  Uiso   1.00
C687   C     0.87535   0.51547   0.64722   0.00000  Uiso   1.00
C688   C     0.79131   0.48453   0.35278   0.00000  Uiso   1.00
H689   H     0.99208   0.49588   0.44733   0.00000  Uiso   1.00
H690   H     0.67455   0.50320   0.55271   0.00000  Uiso   1.00
H691   H     0.89170   0.37685   0.45780   0.00000  Uiso   1.00
H692   H     0.77447   0.62322   0.54200   0.00000  Uiso   1.00
H693   H     0.90875   0.52787   0.63245   0.00000  Uiso   1.00
H694   H     0.75793   0.47210   0.36754   0.00000  Uiso   1.00
N695   N     0.83332   0.49999   0.61907   0.00000  Uiso   1.00
N696   N     0.83335   0.50001   0.38093   0.00000  Uiso   1.00
O697   O     0.83333   0.43892   0.53821   0.00000  Uiso   1.00
O698   O     0.83334   0.56108   0.46179   0.00000  Uiso   1.00
O699   O     0.83333   0.43893   0.46176   0.00000  Uiso   1.00
O700   O     0.83334   0.56107   0.53824   0.00000  Uiso   1.00
O701   O     0.75725   0.50000   0.52928   0.00000  Uiso   1.00
O702   O     0.90942   0.50000   0.47072   0.00000  Uiso   1.00
O703   O     0.75725   0.50000   0.45284   0.00000  Uiso   1.00
O704   O     0.90942   0.50000   0.54716   0.00000  Uiso   1.00
Zn705  Zn    0.83333   0.49999   0.55104   0.00000  Uiso   1.00
Zn706  Zn    0.83333   0.50001   0.44896   0.00000  Uiso   1.00
S707   S     0.91605   0.62715   0.44401   0.00000  Uiso   1.00
O708   O     0.88814   0.61233   0.39918   0.00000  Uiso   1.00
O709   O     0.95665   0.65964   0.43514   0.00000  Uiso   1.00
O710   O     0.94629   0.58711   0.47287   0.00000  Uiso   1.00
H711   H     0.96278   0.59901   0.50209   0.00000  Uiso   1.00
S712   S     0.74952   0.37294   0.55518   0.00000  Uiso   1.00
O713   O     0.72548   0.41082   0.53114   0.00000  Uiso   1.00
O714   O     0.70676   0.34106   0.56010   0.00000  Uiso   1.00
O715   O     0.77988   0.38573   0.60710   0.00000  Uiso   1.00
H716   H     0.75273   0.38235   0.62757   0.00000  Uiso   1.00
O717   O     0.91854   0.53099   0.39012   0.00000  Uiso   1.00
H718   H     0.94576   0.54063   0.37147   0.00000  Uiso   1.00
O719   O     0.74813   0.46904   0.60987   0.00000  Uiso   1.00
H720   H     0.72067   0.45984   0.62847   0.00000  Uiso   1.00
C721   C     0.16430   0.75341   0.50014   0.00000  Uiso   1.00
C722   C     0.16893   0.91328   0.49983   0.00000  Uiso   1.00
C723   C     0.06717   0.83326   0.48819   0.00000  Uiso   1.00
C724   C     0.26615   0.83301   0.51182   0.00000  Uiso   1.00
C725   C     0.01223   0.83197   0.48185   0.00000  Uiso   1.00
C726   C     0.32109   0.83376   0.51819   0.00000  Uiso   1.00
C727   C     0.19930   0.69090   0.47590   0.00000  Uiso   1.00
C728   C     0.13345   0.97584   0.52381   0.00000  Uiso   1.00
C729   C     0.20249   0.98158   0.47494   0.00000  Uiso   1.00
C730   C     0.13003   0.68519   0.52454   0.00000  Uiso   1.00
C731   C     0.16889   0.95750   0.49917   0.00000  Uiso   1.00
C732   C     0.16398   0.70923   0.50063   0.00000  Uiso   1.00
C733   C     0.20906   0.84883   0.36198   0.00000  Uiso   1.00
C734   C     0.12427   0.81785   0.63802   0.00000  Uiso   1.00
C735   C     0.20869   0.84880   0.64722   0.00000  Uiso   1.00
C736   C     0.12465   0.81786   0.35278   0.00000  Uiso   1.00
H737   H     0.32542   0.82922   0.44733   0.00000  Uiso   1.00
H738   H     0.00788   0.83653   0.55271   0.00000  Uiso   1.00
H739   H     0.22503   0.71019   0.45780   0.00000  Uiso   1.00
H740   H     0.10780   0.95656   0.54200   0.00000  Uiso   1.00
H741   H     0.24208   0.86120   0.63245   0.00000  Uiso   1.00
H742   H     0.09126   0.80544   0.36754   0.00000  Uiso   1.00
N743   N     0.16665   0.83332   0.61907   0.00000  Uiso   1.00
N744   N     0.16668   0.83334   0.38093   0.00000  Uiso   1.00
O745   O     0.16666   0.77225   0.53821   0.00000  Uiso   1.00
O746   O     0.16667   0.89442   0.46179   0.00000  Uiso   1.00
O747   O     0.16666   0.77226   0.46176   0.00000  Uiso   1.00
O748   O     0.16667   0.89441   0.53824   0.00000  Uiso   1.00
O749   O     0.09058   0.83333   0.52928   0.00000  Uiso   1.00
O750   O     0.24275   0.83334   0.47072   0.00000  Uiso   1.00
O751   O     0.09058   0.83334   0.45284   0.00000  Uiso   1.00
O752   O     0.24275   0.83333   0.54716   0.00000  Uiso   1.00
Zn753  Zn    0.16667   0.83333   0.55104   0.00000  Uiso   1.00
Zn754  Zn    0.16667   0.83334   0.44896   0.00000  Uiso   1.00
S755   S     0.24938   0.96049   0.44401   0.00000  Uiso   1.00
O756   O     0.22148   0.94567   0.39918   0.00000  Uiso   1.00
O757   O     0.28998   0.99297   0.43514   0.00000  Uiso   1.00
O758   O     0.27962   0.92045   0.47287   0.00000  Uiso   1.00
H759   H     0.29612   0.93235   0.50209   0.00000  Uiso   1.00
S760   S     0.08285   0.70627   0.55518   0.00000  Uiso   1.00
O761   O     0.05881   0.74415   0.53114   0.00000  Uiso   1.00
O762   O     0.04009   0.67440   0.56010   0.00000  Uiso   1.00
O763   O     0.11322   0.71906   0.60710   0.00000  Uiso   1.00
H764   H     0.08607   0.71569   0.62757   0.00000  Uiso   1.00
O765   O     0.25187   0.86432   0.39012   0.00000  Uiso   1.00
H766   H     0.27910   0.87397   0.37147   0.00000  Uiso   1.00
O767   O     0.08147   0.80237   0.60987   0.00000  Uiso   1.00
H768   H     0.05400   0.79317   0.62847   0.00000  Uiso   1.00
C769   C     0.49763   0.75341   0.50014   0.00000  Uiso   1.00
C770   C     0.50227   0.91328   0.49983   0.00000  Uiso   1.00
C771   C     0.40050   0.83326   0.48819   0.00000  Uiso   1.00
C772   C     0.59948   0.83301   0.51182   0.00000  Uiso   1.00
C773   C     0.34556   0.83197   0.48185   0.00000  Uiso   1.00
C774   C     0.65442   0.83376   0.51819   0.00000  Uiso   1.00
C775   C     0.53264   0.69090   0.47590   0.00000  Uiso   1.00
C776   C     0.46678   0.97584   0.52381   0.00000  Uiso   1.00
C777   C     0.53583   0.98158   0.47494   0.00000  Uiso   1.00
C778   C     0.46337   0.68519   0.52454   0.00000  Uiso   1.00
C779   C     0.50223   0.95750   0.49917   0.00000  Uiso   1.00
C780   C     0.49731   0.70923   0.50063   0.00000  Uiso   1.00
C781   C     0.54240   0.84883   0.36198   0.00000  Uiso   1.00
C782   C     0.45760   0.81785   0.63802   0.00000  Uiso   1.00
C783   C     0.54202   0.84880   0.64722   0.00000  Uiso   1.00
C784   C     0.45798   0.81786   0.35278   0.00000  Uiso   1.00
H785   H     0.65875   0.82922   0.44733   0.00000  Uiso   1.00
H786   H     0.34122   0.83653   0.55271   0.00000  Uiso   1.00
H787   H     0.55837   0.71019   0.45780   0.00000  Uiso   1.00
H788   H     0.44114   0.95656   0.54200   0.00000  Uiso   1.00
H789   H     0.57541   0.86120   0.63245   0.00000  Uiso   1.00
H790   H     0.42460   0.80544   0.36754   0.00000  Uiso   1.00
N791   N     0.49999   0.83332   0.61907   0.00000  Uiso   1.00
N792   N     0.50001   0.83334   0.38093   0.00000  Uiso   1.00
O793   O     0.50000   0.77225   0.53821   0.00000  Uiso   1.00
O794   O     0.50000   0.89442   0.46179   0.00000  Uiso   1.00
O795   O     0.50000   0.77226   0.46176   0.00000  Uiso   1.00
O796   O     0.50000   0.89441   0.53824   0.00000  Uiso   1.00
O797   O     0.42392   0.83333   0.52928   0.00000  Uiso   1.00
O798   O     0.57608   0.83334   0.47072   0.00000  Uiso   1.00
O799   O     0.42392   0.83334   0.45284   0.00000  Uiso   1.00
O800   O     0.57608   0.83333   0.54716   0.00000  Uiso   1.00
Zn801  Zn    0.50000   0.83333   0.55104   0.00000  Uiso   1.00
Zn802  Zn    0.50000   0.83334   0.44896   0.00000  Uiso   1.00
S803   S     0.58271   0.96049   0.44401   0.00000  Uiso   1.00
O804   O     0.55481   0.94567   0.39918   0.00000  Uiso   1.00
O805   O     0.62332   0.99297   0.43514   0.00000  Uiso   1.00
O806   O     0.61296   0.92045   0.47287   0.00000  Uiso   1.00
H807   H     0.62945   0.93235   0.50209   0.00000  Uiso   1.00
S808   S     0.41619   0.70627   0.55518   0.00000  Uiso   1.00
O809   O     0.39215   0.74415   0.53114   0.00000  Uiso   1.00
O810   O     0.37342   0.67440   0.56010   0.00000  Uiso   1.00
O811   O     0.44655   0.71906   0.60710   0.00000  Uiso   1.00
H812   H     0.41940   0.71569   0.62757   0.00000  Uiso   1.00
O813   O     0.58521   0.86432   0.39012   0.00000  Uiso   1.00
H814   H     0.61243   0.87397   0.37147   0.00000  Uiso   1.00
O815   O     0.41480   0.80237   0.60987   0.00000  Uiso   1.00
H816   H     0.38734   0.79317   0.62847   0.00000  Uiso   1.00
C817   C     0.83096   0.75341   0.50014   0.00000  Uiso   1.00
C818   C     0.83560   0.91328   0.49983   0.00000  Uiso   1.00
C819   C     0.73384   0.83326   0.48819   0.00000  Uiso   1.00
C820   C     0.93282   0.83301   0.51182   0.00000  Uiso   1.00
C821   C     0.67890   0.83197   0.48185   0.00000  Uiso   1.00
C822   C     0.98776   0.83376   0.51819   0.00000  Uiso   1.00
C823   C     0.86597   0.69090   0.47590   0.00000  Uiso   1.00
C824   C     0.80012   0.97584   0.52381   0.00000  Uiso   1.00
C825   C     0.86916   0.98158   0.47494   0.00000  Uiso   1.00
C826   C     0.79670   0.68519   0.52454   0.00000  Uiso   1.00
C827   C     0.83556   0.95750   0.49917   0.00000  Uiso   1.00
C828   C     0.83064   0.70923   0.50063   0.00000  Uiso   1.00
C829   C     0.87573   0.84883   0.36198   0.00000  Uiso   1.00
C830   C     0.79093   0.81785   0.63802   0.00000  Uiso   1.00
C831   C     0.87535   0.84880   0.64722   0.00000  Uiso   1.00
C832   C     0.79131   0.81786   0.35278   0.00000  Uiso   1.00
H833   H     0.99208   0.82922   0.44733   0.00000  Uiso   1.00
H834   H     0.67455   0.83653   0.55271   0.00000  Uiso   1.00
H835   H     0.89170   0.71019   0.45780   0.00000  Uiso   1.00
H836   H     0.77447   0.95656   0.54200   0.00000  Uiso   1.00
H837   H     0.90875   0.86120   0.63245   0.00000  Uiso   1.00
H838   H     0.75793   0.80544   0.36754   0.00000  Uiso   1.00
N839   N     0.83332   0.83332   0.61907   0.00000  Uiso   1.00
N840   N     0.83335   0.83334   0.38093   0.00000  Uiso   1.00
O841   O     0.83333   0.77225   0.53821   0.00000  Uiso   1.00
O842   O     0.83334   0.89442   0.46179   0.00000  Uiso   1.00
O843   O     0.83333   0.77226   0.46176   0.00000  Uiso   1.00
O844   O     0.83334   0.89441   0.53824   0.00000  Uiso   1.00
O845   O     0.75725   0.83333   0.52928   0.00000  Uiso   1.00
O846   O     0.90942   0.83334   0.47072   0.00000  Uiso   1.00
O847   O     0.75725   0.83334   0.45284   0.00000  Uiso   1.00
O848   O     0.90942   0.83333   0.54716   0.00000  Uiso   1.00
Zn849  Zn    0.83333   0.83333   0.55104   0.00000  Uiso   1.00
Zn850  Zn    0.83333   0.83334   0.44896   0.00000  Uiso   1.00
S851   S     0.91605   0.96049   0.44401   0.00000  Uiso   1.00
O852   O     0.88814   0.94567   0.39918   0.00000  Uiso   1.00
O853   O     0.95665   0.99297   0.43514   0.00000  Uiso   1.00
O854   O     0.94629   0.92045   0.47287   0.00000  Uiso   1.00
H855   H     0.96278   0.93235   0.50209   0.00000  Uiso   1.00
S856   S     0.74952   0.70627   0.55518   0.00000  Uiso   1.00
O857   O     0.72548   0.74415   0.53114   0.00000  Uiso   1.00
O858   O     0.70676   0.67440   0.56010   0.00000  Uiso   1.00
O859   O     0.77988   0.71906   0.60710   0.00000  Uiso   1.00
H860   H     0.75273   0.71569   0.62757   0.00000  Uiso   1.00
O861   O     0.91854   0.86432   0.39012   0.00000  Uiso   1.00
H862   H     0.94576   0.87397   0.37147   0.00000  Uiso   1.00
O863   O     0.74813   0.80237   0.60987   0.00000  Uiso   1.00
H864   H     0.72067   0.79317   0.62847   0.00000  Uiso   1.00
C865   C     0.16430   0.08675   0.83347   0.00000  Uiso   1.00
C866   C     0.16893   0.24661   0.83317   0.00000  Uiso   1.00
C867   C     0.06717   0.16659   0.82153   0.00000  Uiso   1.00
C868   C     0.26615   0.16635   0.84515   0.00000  Uiso   1.00
C869   C     0.01223   0.16531   0.81519   0.00000  Uiso   1.00
C870   C     0.32109   0.16709   0.85153   0.00000  Uiso   1.00
C871   C     0.19930   0.02423   0.80923   0.00000  Uiso   1.00
C872   C     0.13345   0.30917   0.85714   0.00000  Uiso   1.00
C873   C     0.20249   0.31491   0.80827   0.00000  Uiso   1.00
C874   C     0.13003   0.01853   0.85787   0.00000  Uiso   1.00
C875   C     0.16889   0.29083   0.83250   0.00000  Uiso   1.00
C876   C     0.16398   0.04256   0.83396   0.00000  Uiso   1.00
C877   C     0.20906   0.18217   0.69531   0.00000  Uiso   1.00
C878   C     0.12427   0.15118   0.97135   0.00000  Uiso   1.00
C879   C     0.20869   0.18214   0.98055   0.00000  Uiso   1.00
C880   C     0.12465   0.15120   0.68611   0.00000  Uiso   1.00
H881   H     0.32542   0.16255   0.78066   0.00000  Uiso   1.00
H882   H     0.00788   0.16986   0.88605   0.00000  Uiso   1.00
H883   H     0.22503   0.04352   0.79114   0.00000  Uiso   1.00
H884   H     0.10780   0.28989   0.87533   0.00000  Uiso   1.00
H885   H     0.24208   0.19454   0.96578   0.00000  Uiso   1.00
H886   H     0.09126   0.13877   0.70088   0.00000  Uiso   1.00
N887   N     0.16665   0.16666   0.95240   0.00000  Uiso   1.00
N888   N     0.16668   0.16668   0.71427   0.00000  Uiso   1.00
O889   O     0.16666   0.10558   0.87154   0.00000  Uiso   1.00
O890   O     0.16667   0.22775   0.79513   0.00000  Uiso   1.00
O891   O     0.16666   0.10559   0.79510   0.00000  Uiso   1.00
O892   O     0.16667   0.22774   0.87157   0.00000  Uiso   1.00
O893   O     0.09058   0.16666   0.86261   0.00000  Uiso   1.00
O894   O     0.24275   0.16667   0.80405   0.00000  Uiso   1.00
O895   O     0.09058   0.16667   0.78617   0.00000  Uiso   1.00
O896   O     0.24275   0.16666   0.88050   0.00000  Uiso   1.00
Zn897  Zn    0.16667   0.16666   0.88437   0.00000  Uiso   1.00
Zn898  Zn    0.16667   0.16667   0.78229   0.00000  Uiso   1.00
S899   S     0.24938   0.29382   0.77734   0.00000  Uiso   1.00
O900   O     0.22148   0.27900   0.73252   0.00000  Uiso   1.00
O901   O     0.28998   0.32630   0.76847   0.00000  Uiso   1.00
O902   O     0.27962   0.25378   0.80620   0.00000  Uiso   1.00
H903   H     0.29612   0.26568   0.83543   0.00000  Uiso   1.00
S904   S     0.08285   0.03961   0.88852   0.00000  Uiso   1.00
O905   O     0.05881   0.07748   0.86448   0.00000  Uiso   1.00
O906   O     0.04009   0.00773   0.89343   0.00000  Uiso   1.00
O907   O     0.11322   0.05240   0.94043   0.00000  Uiso   1.00
H908   H     0.08607   0.04902   0.96091   0.00000  Uiso   1.00
O909   O     0.25187   0.19766   0.72345   0.00000  Uiso   1.00
H910   H     0.27910   0.20730   0.70481   0.00000  Uiso   1.00
O911   O     0.08147   0.13570   0.94320   0.00000  Uiso   1.00
H912   H     0.05400   0.12651   0.96180   0.00000  Uiso   1.00
C913   C     0.49763   0.08675   0.83347   0.00000  Uiso   1.00
C914   C     0.50227   0.24661   0.83317   0.00000  Uiso   1.00
C915   C     0.40050   0.16659   0.82153   0.00000  Uiso   1.00
C916   C     0.59948   0.16635   0.84515   0.00000  Uiso   1.00
C917   C     0.34556   0.16531   0.81519   0.00000  Uiso   1.00
C918   C     0.65442   0.16709   0.85153   0.00000  Uiso   1.00
C919   C     0.53264   0.02423   0.80923   0.00000  Uiso   1.00
C920   C     0.46678   0.30917   0.85714   0.00000  Uiso   1.00
C921   C     0.53583   0.31491   0.80827   0.00000  Uiso   1.00
C922   C     0.46337   0.01853   0.85787   0.00000  Uiso   1.00
C923   C     0.50223   0.29083   0.83250   0.00000  Uiso   1.00
C924   C     0.49731   0.04256   0.83396   0.00000  Uiso   1.00
C925   C     0.54240   0.18217   0.69531   0.00000  Uiso   1.00
C926   C     0.45760   0.15118   0.97135   0.00000  Uiso   1.00
C927   C     0.54202   0.18214   0.98055   0.00000  Uiso   1.00
C928   C     0.45798   0.15120   0.68611   0.00000  Uiso   1.00
H929   H     0.65875   0.16255   0.78066   0.00000  Uiso   1.00
H930   H     0.34122   0.16986   0.88605   0.00000  Uiso   1.00
H931   H     0.55837   0.04352   0.79114   0.00000  Uiso   1.00
H932   H     0.44114   0.28989   0.87533   0.00000  Uiso   1.00
H933   H     0.57541   0.19454   0.96578   0.00000  Uiso   1.00
H934   H     0.42460   0.13877   0.70088   0.00000  Uiso   1.00
N935   N     0.49999   0.16666   0.95240   0.00000  Uiso   1.00
N936   N     0.50001   0.16668   0.71427   0.00000  Uiso   1.00
O937   O     0.50000   0.10558   0.87154   0.00000  Uiso   1.00
O938   O     0.50000   0.22775   0.79513   0.00000  Uiso   1.00
O939   O     0.50000   0.10559   0.79510   0.00000  Uiso   1.00
O940   O     0.50000   0.22774   0.87157   0.00000  Uiso   1.00
O941   O     0.42392   0.16666   0.86261   0.00000  Uiso   1.00
O942   O     0.57608   0.16667   0.80405   0.00000  Uiso   1.00
O943   O     0.42392   0.16667   0.78617   0.00000  Uiso   1.00
O944   O     0.57608   0.16666   0.88050   0.00000  Uiso   1.00
Zn945  Zn    0.50000   0.16666   0.88437   0.00000  Uiso   1.00
Zn946  Zn    0.50000   0.16667   0.78229   0.00000  Uiso   1.00
S947   S     0.58271   0.29382   0.77734   0.00000  Uiso   1.00
O948   O     0.55481   0.27900   0.73252   0.00000  Uiso   1.00
O949   O     0.62332   0.32630   0.76847   0.00000  Uiso   1.00
O950   O     0.61296   0.25378   0.80620   0.00000  Uiso   1.00
H951   H     0.62945   0.26568   0.83543   0.00000  Uiso   1.00
S952   S     0.41619   0.03961   0.88852   0.00000  Uiso   1.00
O953   O     0.39215   0.07748   0.86448   0.00000  Uiso   1.00
O954   O     0.37342   0.00773   0.89343   0.00000  Uiso   1.00
O955   O     0.44655   0.05240   0.94043   0.00000  Uiso   1.00
H956   H     0.41940   0.04902   0.96091   0.00000  Uiso   1.00
O957   O     0.58521   0.19766   0.72345   0.00000  Uiso   1.00
H958   H     0.61243   0.20730   0.70481   0.00000  Uiso   1.00
O959   O     0.41480   0.13570   0.94320   0.00000  Uiso   1.00
H960   H     0.38734   0.12651   0.96180   0.00000  Uiso   1.00
C961   C     0.83096   0.08675   0.83347   0.00000  Uiso   1.00
C962   C     0.83560   0.24661   0.83317   0.00000  Uiso   1.00
C963   C     0.73384   0.16659   0.82153   0.00000  Uiso   1.00
C964   C     0.93282   0.16635   0.84515   0.00000  Uiso   1.00
C965   C     0.67890   0.16531   0.81519   0.00000  Uiso   1.00
C966   C     0.98776   0.16709   0.85153   0.00000  Uiso   1.00
C967   C     0.86597   0.02423   0.80923   0.00000  Uiso   1.00
C968   C     0.80012   0.30917   0.85714   0.00000  Uiso   1.00
C969   C     0.86916   0.31491   0.80827   0.00000  Uiso   1.00
C970   C     0.79670   0.01853   0.85787   0.00000  Uiso   1.00
C971   C     0.83556   0.29083   0.83250   0.00000  Uiso   1.00
C972   C     0.83064   0.04256   0.83396   0.00000  Uiso   1.00
C973   C     0.87573   0.18217   0.69531   0.00000  Uiso   1.00
C974   C     0.79093   0.15118   0.97135   0.00000  Uiso   1.00
C975   C     0.87535   0.18214   0.98055   0.00000  Uiso   1.00
C976   C     0.79131   0.15120   0.68611   0.00000  Uiso   1.00
H977   H     0.99208   0.16255   0.78066   0.00000  Uiso   1.00
H978   H     0.67455   0.16986   0.88605   0.00000  Uiso   1.00
H979   H     0.89170   0.04352   0.79114   0.00000  Uiso   1.00
H980   H     0.77447   0.28989   0.87533   0.00000  Uiso   1.00
H981   H     0.90875   0.19454   0.96578   0.00000  Uiso   1.00
H982   H     0.75793   0.13877   0.70088   0.00000  Uiso   1.00
N983   N     0.83332   0.16666   0.95240   0.00000  Uiso   1.00
N984   N     0.83335   0.16668   0.71427   0.00000  Uiso   1.00
O985   O     0.83333   0.10558   0.87154   0.00000  Uiso   1.00
O986   O     0.83334   0.22775   0.79513   0.00000  Uiso   1.00
O987   O     0.83333   0.10559   0.79510   0.00000  Uiso   1.00
O988   O     0.83334   0.22774   0.87157   0.00000  Uiso   1.00
O989   O     0.75725   0.16666   0.86261   0.00000  Uiso   1.00
O990   O     0.90942   0.16667   0.80405   0.00000  Uiso   1.00
O991   O     0.75725   0.16667   0.78617   0.00000  Uiso   1.00
O992   O     0.90942   0.16666   0.88050   0.00000  Uiso   1.00
Zn993  Zn    0.83333   0.16666   0.88437   0.00000  Uiso   1.00
Zn994  Zn    0.83333   0.16667   0.78229   0.00000  Uiso   1.00
S995   S     0.91605   0.29382   0.77734   0.00000  Uiso   1.00
O996   O     0.88814   0.27900   0.73252   0.00000  Uiso   1.00
O997   O     0.95665   0.32630   0.76847   0.00000  Uiso   1.00
O998   O     0.94629   0.25378   0.80620   0.00000  Uiso   1.00
H999   H     0.96278   0.26568   0.83543   0.00000  Uiso   1.00
S1000  S     0.74952   0.03961   0.88852   0.00000  Uiso   1.00
O1001  O     0.72548   0.07748   0.86448   0.00000  Uiso   1.00
O1002  O     0.70676   0.00773   0.89343   0.00000  Uiso   1.00
O1003  O     0.77988   0.05240   0.94043   0.00000  Uiso   1.00
H1004  H     0.75273   0.04902   0.96091   0.00000  Uiso   1.00
O1005  O     0.91854   0.19766   0.72345   0.00000  Uiso   1.00
H1006  H     0.94576   0.20730   0.70481   0.00000  Uiso   1.00
O1007  O     0.74813   0.13570   0.94320   0.00000  Uiso   1.00
H1008  H     0.72067   0.12651   0.96180   0.00000  Uiso   1.00
C1009  C     0.16430   0.42008   0.83347   0.00000  Uiso   1.00
C1010  C     0.16893   0.57995   0.83317   0.00000  Uiso   1.00
C1011  C     0.06717   0.49993   0.82153   0.00000  Uiso   1.00
C1012  C     0.26615   0.49968   0.84515   0.00000  Uiso   1.00
C1013  C     0.01223   0.49864   0.81519   0.00000  Uiso   1.00
C1014  C     0.32109   0.50042   0.85153   0.00000  Uiso   1.00
C1015  C     0.19930   0.35756   0.80923   0.00000  Uiso   1.00
C1016  C     0.13345   0.64251   0.85714   0.00000  Uiso   1.00
C1017  C     0.20249   0.64824   0.80827   0.00000  Uiso   1.00
C1018  C     0.13003   0.35186   0.85787   0.00000  Uiso   1.00
C1019  C     0.16889   0.62417   0.83250   0.00000  Uiso   1.00
C1020  C     0.16398   0.37589   0.83396   0.00000  Uiso   1.00
C1021  C     0.20906   0.51550   0.69531   0.00000  Uiso   1.00
C1022  C     0.12427   0.48452   0.97135   0.00000  Uiso   1.00
C1023  C     0.20869   0.51547   0.98055   0.00000  Uiso   1.00
C1024  C     0.12465   0.48453   0.68611   0.00000  Uiso   1.00
H1025  H     0.32542   0.49588   0.78066   0.00000  Uiso   1.00
H1026  H     0.00788   0.50320   0.88605   0.00000  Uiso   1.00
H1027  H     0.22503   0.37685   0.79114   0.00000  Uiso   1.00
H1028  H     0.10780   0.62322   0.87533   0.00000  Uiso   1.00
H1029  H     0.24208   0.52787   0.96578   0.00000  Uiso   1.00
H1030  H     0.09126   0.47210   0.70088   0.00000  Uiso   1.00
N1031  N     0.16665   0.49999   0.95240   0.00000  Uiso   1.00
N1032  N     0.16668   0.50001   0.71427   0.00000  Uiso   1.00
O1033  O     0.16666   0.43892   0.87154   0.00000  Uiso   1.00
O1034  O     0.16667   0.56108   0.79513   0.00000  Uiso   1.00
O1035  O     0.16666   0.43893   0.79510   0.00000  Uiso   1.00
O1036  O     0.16667   0.56107   0.87157   0.00000  Uiso   1.00
O1037  O     0.09058   0.50000   0.86261   0.00000  Uiso   1.00
O1038  O     0.24275   0.50000   0.80405   0.00000  Uiso   1.00
O1039  O     0.09058   0.50000   0.78617   0.00000  Uiso   1.00
O1040  O     0.24275   0.50000   0.88050   0.00000  Uiso   1.00
Zn1041 Zn    0.16667   0.49999   0.88437   0.00000  Uiso   1.00
Zn1042 Zn    0.16667   0.50001   0.78229   0.00000  Uiso   1.00
S1043  S     0.24938   0.62715   0.77734   0.00000  Uiso   1.00
O1044  O     0.22148   0.61233   0.73252   0.00000  Uiso   1.00
O1045  O     0.28998   0.65964   0.76847   0.00000  Uiso   1.00
O1046  O     0.27962   0.58711   0.80620   0.00000  Uiso   1.00
H1047  H     0.29612   0.59901   0.83543   0.00000  Uiso   1.00
S1048  S     0.08285   0.37294   0.88852   0.00000  Uiso   1.00
O1049  O     0.05881   0.41082   0.86448   0.00000  Uiso   1.00
O1050  O     0.04009   0.34106   0.89343   0.00000  Uiso   1.00
O1051  O     0.11322   0.38573   0.94043   0.00000  Uiso   1.00
H1052  H     0.08607   0.38235   0.96091   0.00000  Uiso   1.00
O1053  O     0.25187   0.53099   0.72345   0.00000  Uiso   1.00
H1054  H     0.27910   0.54063   0.70481   0.00000  Uiso   1.00
O1055  O     0.08147   0.46904   0.94320   0.00000  Uiso   1.00
H1056  H     0.05400   0.45984   0.96180   0.00000  Uiso   1.00
C1057  C     0.49763   0.42008   0.83347   0.00000  Uiso   1.00
C1058  C     0.50227   0.57995   0.83317   0.00000  Uiso   1.00
C1059  C     0.40050   0.49993   0.82153   0.00000  Uiso   1.00
C1060  C     0.59948   0.49968   0.84515   0.00000  Uiso   1.00
C1061  C     0.34556   0.49864   0.81519   0.00000  Uiso   1.00
C1062  C     0.65442   0.50042   0.85153   0.00000  Uiso   1.00
C1063  C     0.53264   0.35756   0.80923   0.00000  Uiso   1.00
C1064  C     0.46678   0.64251   0.85714   0.00000  Uiso   1.00
C1065  C     0.53583   0.64824   0.80827   0.00000  Uiso   1.00
C1066  C     0.46337   0.35186   0.85787   0.00000  Uiso   1.00
C1067  C     0.50223   0.62417   0.83250   0.00000  Uiso   1.00
C1068  C     0.49731   0.37589   0.83396   0.00000  Uiso   1.00
C1069  C     0.54240   0.51550   0.69531   0.00000  Uiso   1.00
C1070  C     0.45760   0.48452   0.97135   0.00000  Uiso   1.00
C1071  C     0.54202   0.51547   0.98055   0.00000  Uiso   1.00
C1072  C     0.45798   0.48453   0.68611   0.00000  Uiso   1.00
H1073  H     0.65875   0.49588   0.78066   0.00000  Uiso   1.00
H1074  H     0.34122   0.50320   0.88605   0.00000  Uiso   1.00
H1075  H     0.55837   0.37685   0.79114   0.00000  Uiso   1.00
H1076  H     0.44114   0.62322   0.87533   0.00000  Uiso   1.00
H1077  H     0.57541   0.52787   0.96578   0.00000  Uiso   1.00
H1078  H     0.42460   0.47210   0.70088   0.00000  Uiso   1.00
N1079  N     0.49999   0.49999   0.95240   0.00000  Uiso   1.00
N1080  N     0.50001   0.50001   0.71427   0.00000  Uiso   1.00
O1081  O     0.50000   0.43892   0.87154   0.00000  Uiso   1.00
O1082  O     0.50000   0.56108   0.79513   0.00000  Uiso   1.00
O1083  O     0.50000   0.43893   0.79510   0.00000  Uiso   1.00
O1084  O     0.50000   0.56107   0.87157   0.00000  Uiso   1.00
O1085  O     0.42392   0.50000   0.86261   0.00000  Uiso   1.00
O1086  O     0.57608   0.50000   0.80405   0.00000  Uiso   1.00
O1087  O     0.42392   0.50000   0.78617   0.00000  Uiso   1.00
O1088  O     0.57608   0.50000   0.88050   0.00000  Uiso   1.00
Zn1089 Zn    0.50000   0.49999   0.88437   0.00000  Uiso   1.00
Zn1090 Zn    0.50000   0.50001   0.78229   0.00000  Uiso   1.00
S1091  S     0.58271   0.62715   0.77734   0.00000  Uiso   1.00
O1092  O     0.55481   0.61233   0.73252   0.00000  Uiso   1.00
O1093  O     0.62332   0.65964   0.76847   0.00000  Uiso   1.00
O1094  O     0.61296   0.58711   0.80620   0.00000  Uiso   1.00
H1095  H     0.62945   0.59901   0.83543   0.00000  Uiso   1.00
S1096  S     0.41619   0.37294   0.88852   0.00000  Uiso   1.00
O1097  O     0.39215   0.41082   0.86448   0.00000  Uiso   1.00
O1098  O     0.37342   0.34106   0.89343   0.00000  Uiso   1.00
O1099  O     0.44655   0.38573   0.94043   0.00000  Uiso   1.00
H1100  H     0.41940   0.38235   0.96091   0.00000  Uiso   1.00
O1101  O     0.58521   0.53099   0.72345   0.00000  Uiso   1.00
H1102  H     0.61243   0.54063   0.70481   0.00000  Uiso   1.00
O1103  O     0.41480   0.46904   0.94320   0.00000  Uiso   1.00
H1104  H     0.38734   0.45984   0.96180   0.00000  Uiso   1.00
C1105  C     0.83096   0.42008   0.83347   0.00000  Uiso   1.00
C1106  C     0.83560   0.57995   0.83317   0.00000  Uiso   1.00
C1107  C     0.73384   0.49993   0.82153   0.00000  Uiso   1.00
C1108  C     0.93282   0.49968   0.84515   0.00000  Uiso   1.00
C1109  C     0.67890   0.49864   0.81519   0.00000  Uiso   1.00
C1110  C     0.98776   0.50042   0.85153   0.00000  Uiso   1.00
C1111  C     0.86597   0.35756   0.80923   0.00000  Uiso   1.00
C1112  C     0.80012   0.64251   0.85714   0.00000  Uiso   1.00
C1113  C     0.86916   0.64824   0.80827   0.00000  Uiso   1.00
C1114  C     0.79670   0.35186   0.85787   0.00000  Uiso   1.00
C1115  C     0.83556   0.62417   0.83250   0.00000  Uiso   1.00
C1116  C     0.83064   0.37589   0.83396   0.00000  Uiso   1.00
C1117  C     0.87573   0.51550   0.69531   0.00000  Uiso   1.00
C1118  C     0.79093   0.48452   0.97135   0.00000  Uiso   1.00
C1119  C     0.87535   0.51547   0.98055   0.00000  Uiso   1.00
C1120  C     0.79131   0.48453   0.68611   0.00000  Uiso   1.00
H1121  H     0.99208   0.49588   0.78066   0.00000  Uiso   1.00
H1122  H     0.67455   0.50320   0.88605   0.00000  Uiso   1.00
H1123  H     0.89170   0.37685   0.79114   0.00000  Uiso   1.00
H1124  H     0.77447   0.62322   0.87533   0.00000  Uiso   1.00
H1125  H     0.90875   0.52787   0.96578   0.00000  Uiso   1.00
H1126  H     0.75793   0.47210   0.70088   0.00000  Uiso   1.00
N1127  N     0.83332   0.49999   0.95240   0.00000  Uiso   1.00
N1128  N     0.83335   0.50001   0.71427   0.00000  Uiso   1.00
O1129  O     0.83333   0.43892   0.87154   0.00000  Uiso   1.00
O1130  O     0.83334   0.56108   0.79513   0.00000  Uiso   1.00
O1131  O     0.83333   0.43893   0.79510   0.00000  Uiso   1.00
O1132  O     0.83334   0.56107   0.87157   0.00000  Uiso   1.00
O1133  O     0.75725   0.50000   0.86261   0.00000  Uiso   1.00
O1134  O     0.90942   0.50000   0.80405   0.00000  Uiso   1.00
O1135  O     0.75725   0.50000   0.78617   0.00000  Uiso   1.00
O1136  O     0.90942   0.50000   0.88050   0.00000  Uiso   1.00
Zn1137 Zn    0.83333   0.49999   0.88437   0.00000  Uiso   1.00
Zn1138 Zn    0.83333   0.50001   0.78229   0.00000  Uiso   1.00
S1139  S     0.91605   0.62715   0.77734   0.00000  Uiso   1.00
O1140  O     0.88814   0.61233   0.73252   0.00000  Uiso   1.00
O1141  O     0.95665   0.65964   0.76847   0.00000  Uiso   1.00
O1142  O     0.94629   0.58711   0.80620   0.00000  Uiso   1.00
H1143  H     0.96278   0.59901   0.83543   0.00000  Uiso   1.00
S1144  S     0.74952   0.37294   0.88852   0.00000  Uiso   1.00
O1145  O     0.72548   0.41082   0.86448   0.00000  Uiso   1.00
O1146  O     0.70676   0.34106   0.89343   0.00000  Uiso   1.00
O1147  O     0.77988   0.38573   0.94043   0.00000  Uiso   1.00
H1148  H     0.75273   0.38235   0.96091   0.00000  Uiso   1.00
O1149  O     0.91854   0.53099   0.72345   0.00000  Uiso   1.00
H1150  H     0.94576   0.54063   0.70481   0.00000  Uiso   1.00
O1151  O     0.74813   0.46904   0.94320   0.00000  Uiso   1.00
H1152  H     0.72067   0.45984   0.96180   0.00000  Uiso   1.00
C1153  C     0.16430   0.75341   0.83347   0.00000  Uiso   1.00
C1154  C     0.16893   0.91328   0.83317   0.00000  Uiso   1.00
C1155  C     0.06717   0.83326   0.82153   0.00000  Uiso   1.00
C1156  C     0.26615   0.83301   0.84515   0.00000  Uiso   1.00
C1157  C     0.01223   0.83197   0.81519   0.00000  Uiso   1.00
C1158  C     0.32109   0.83376   0.85153   0.00000  Uiso   1.00
C1159  C     0.19930   0.69090   0.80923   0.00000  Uiso   1.00
C1160  C     0.13345   0.97584   0.85714   0.00000  Uiso   1.00
C1161  C     0.20249   0.98158   0.80827   0.00000  Uiso   1.00
C1162  C     0.13003   0.68519   0.85787   0.00000  Uiso   1.00
C1163  C     0.16889   0.95750   0.83250   0.00000  Uiso   1.00
C1164  C     0.16398   0.70923   0.83396   0.00000  Uiso   1.00
C1165  C     0.20906   0.84883   0.69531   0.00000  Uiso   1.00
C1166  C     0.12427   0.81785   0.97135   0.00000  Uiso   1.00
C1167  C     0.20869   0.84880   0.98055   0.00000  Uiso   1.00
C1168  C     0.12465   0.81786   0.68611   0.00000  Uiso   1.00
H1169  H     0.32542   0.82922   0.78066   0.00000  Uiso   1.00
H1170  H     0.00788   0.83653   0.88605   0.00000  Uiso   1.00
H1171  H     0.22503   0.71019   0.79114   0.00000  Uiso   1.00
H1172  H     0.10780   0.95656   0.87533   0.00000  Uiso   1.00
H1173  H     0.24208   0.86120   0.96578   0.00000  Uiso   1.00
H1174  H     0.09126   0.80544   0.70088   0.00000  Uiso   1.00
N1175  N     0.16665   0.83332   0.95240   0.00000  Uiso   1.00
N1176  N     0.16668   0.83334   0.71427   0.00000  Uiso   1.00
O1177  O     0.16666   0.77225   0.87154   0.00000  Uiso   1.00
O1178  O     0.16667   0.89442   0.79513   0.00000  Uiso   1.00
O1179  O     0.16666   0.77226   0.79510   0.00000  Uiso   1.00
O1180  O     0.16667   0.89441   0.87157   0.00000  Uiso   1.00
O1181  O     0.09058   0.83333   0.86261   0.00000  Uiso   1.00
O1182  O     0.24275   0.83334   0.80405   0.00000  Uiso   1.00
O1183  O     0.09058   0.83334   0.78617   0.00000  Uiso   1.00
O1184  O     0.24275   0.83333   0.88050   0.00000  Uiso   1.00
Zn1185 Zn    0.16667   0.83333   0.88437   0.00000  Uiso   1.00
Zn1186 Zn    0.16667   0.83334   0.78229   0.00000  Uiso   1.00
S1187  S     0.24938   0.96049   0.77734   0.00000  Uiso   1.00
O1188  O     0.22148   0.94567   0.73252   0.00000  Uiso   1.00
O1189  O     0.28998   0.99297   0.76847   0.00000  Uiso   1.00
O1190  O     0.27962   0.92045   0.80620   0.00000  Uiso   1.00
H1191  H     0.29612   0.93235   0.83543   0.00000  Uiso   1.00
S1192  S     0.08285   0.70627   0.88852   0.00000  Uiso   1.00
O1193  O     0.05881   0.74415   0.86448   0.00000  Uiso   1.00
O1194  O     0.04009   0.67440   0.89343   0.00000  Uiso   1.00
O1195  O     0.11322   0.71906   0.94043   0.00000  Uiso   1.00
H1196  H     0.08607   0.71569   0.96091   0.00000  Uiso   1.00
O1197  O     0.25187   0.86432   0.72345   0.00000  Uiso   1.00
H1198  H     0.27910   0.87397   0.70481   0.00000  Uiso   1.00
O1199  O     0.08147   0.80237   0.94320   0.00000  Uiso   1.00
H1200  H     0.05400   0.79317   0.96180   0.00000  Uiso   1.00
C1201  C     0.49763   0.75341   0.83347   0.00000  Uiso   1.00
C1202  C     0.50227   0.91328   0.83317   0.00000  Uiso   1.00
C1203  C     0.40050   0.83326   0.82153   0.00000  Uiso   1.00
C1204  C     0.59948   0.83301   0.84515   0.00000  Uiso   1.00
C1205  C     0.34556   0.83197   0.81519   0.00000  Uiso   1.00
C1206  C     0.65442   0.83376   0.85153   0.00000  Uiso   1.00
C1207  C     0.53264   0.69090   0.80923   0.00000  Uiso   1.00
C1208  C     0.46678   0.97584   0.85714   0.00000  Uiso   1.00
C1209  C     0.53583   0.98158   0.80827   0.00000  Uiso   1.00
C1210  C     0.46337   0.68519   0.85787   0.00000  Uiso   1.00
C1211  C     0.50223   0.95750   0.83250   0.00000  Uiso   1.00
C1212  C     0.49731   0.70923   0.83396   0.00000  Uiso   1.00
C1213  C     0.54240   0.84883   0.69531   0.00000  Uiso   1.00
C1214  C     0.45760   0.81785   0.97135   0.00000  Uiso   1.00
C1215  C     0.54202   0.84880   0.98055   0.00000  Uiso   1.00
C1216  C     0.45798   0.81786   0.68611   0.00000  Uiso   1.00
H1217  H     0.65875   0.82922   0.78066   0.00000  Uiso   1.00
H1218  H     0.34122   0.83653   0.88605   0.00000  Uiso   1.00
H1219  H     0.55837   0.71019   0.79114   0.00000  Uiso   1.00
H1220  H     0.44114   0.95656   0.87533   0.00000  Uiso   1.00
H1221  H     0.57541   0.86120   0.96578   0.00000  Uiso   1.00
H1222  H     0.42460   0.80544   0.70088   0.00000  Uiso   1.00
N1223  N     0.49999   0.83332   0.95240   0.00000  Uiso   1.00
N1224  N     0.50001   0.83334   0.71427   0.00000  Uiso   1.00
O1225  O     0.50000   0.77225   0.87154   0.00000  Uiso   1.00
O1226  O     0.50000   0.89442   0.79513   0.00000  Uiso   1.00
O1227  O     0.50000   0.77226   0.79510   0.00000  Uiso   1.00
O1228  O     0.50000   0.89441   0.87157   0.00000  Uiso   1.00
O1229  O     0.42392   0.83333   0.86261   0.00000  Uiso   1.00
O1230  O     0.57608   0.83334   0.80405   0.00000  Uiso   1.00
O1231  O     0.42392   0.83334   0.78617   0.00000  Uiso   1.00
O1232  O     0.57608   0.83333   0.88050   0.00000  Uiso   1.00
Zn1233 Zn    0.50000   0.83333   0.88437   0.00000  Uiso   1.00
Zn1234 Zn    0.50000   0.83334   0.78229   0.00000  Uiso   1.00
S1235  S     0.58271   0.96049   0.77734   0.00000  Uiso   1.00
O1236  O     0.55481   0.94567   0.73252   0.00000  Uiso   1.00
O1237  O     0.62332   0.99297   0.76847   0.00000  Uiso   1.00
O1238  O     0.61296   0.92045   0.80620   0.00000  Uiso   1.00
H1239  H     0.62945   0.93235   0.83543   0.00000  Uiso   1.00
S1240  S     0.41619   0.70627   0.88852   0.00000  Uiso   1.00
O1241  O     0.39215   0.74415   0.86448   0.00000  Uiso   1.00
O1242  O     0.37342   0.67440   0.89343   0.00000  Uiso   1.00
O1243  O     0.44655   0.71906   0.94043   0.00000  Uiso   1.00
H1244  H     0.41940   0.71569   0.96091   0.00000  Uiso   1.00
O1245  O     0.58521   0.86432   0.72345   0.00000  Uiso   1.00
H1246  H     0.61243   0.87397   0.70481   0.00000  Uiso   1.00
O1247  O     0.41480   0.80237   0.94320   0.00000  Uiso   1.00
H1248  H     0.38734   0.79317   0.96180   0.00000  Uiso   1.00
C1249  C     0.83096   0.75341   0.83347   0.00000  Uiso   1.00
C1250  C     0.83560   0.91328   0.83317   0.00000  Uiso   1.00
C1251  C     0.73384   0.83326   0.82153   0.00000  Uiso   1.00
C1252  C     0.93282   0.83301   0.84515   0.00000  Uiso   1.00
C1253  C     0.67890   0.83197   0.81519   0.00000  Uiso   1.00
C1254  C     0.98776   0.83376   0.85153   0.00000  Uiso   1.00
C1255  C     0.86597   0.69090   0.80923   0.00000  Uiso   1.00
C1256  C     0.80012   0.97584   0.85714   0.00000  Uiso   1.00
C1257  C     0.86916   0.98158   0.80827   0.00000  Uiso   1.00
C1258  C     0.79670   0.68519   0.85787   0.00000  Uiso   1.00
C1259  C     0.83556   0.95750   0.83250   0.00000  Uiso   1.00
C1260  C     0.83064   0.70923   0.83396   0.00000  Uiso   1.00
C1261  C     0.87573   0.84883   0.69531   0.00000  Uiso   1.00
C1262  C     0.79093   0.81785   0.97135   0.00000  Uiso   1.00
C1263  C     0.87535   0.84880   0.98055   0.00000  Uiso   1.00
C1264  C     0.79131   0.81786   0.68611   0.00000  Uiso   1.00
H1265  H     0.99208   0.82922   0.78066   0.00000  Uiso   1.00
H1266  H     0.67455   0.83653   0.88605   0.00000  Uiso   1.00
H1267  H     0.89170   0.71019   0.79114   0.00000  Uiso   1.00
H1268  H     0.77447   0.95656   0.87533   0.00000  Uiso   1.00
H1269  H     0.90875   0.86120   0.96578   0.00000  Uiso   1.00
H1270  H     0.75793   0.80544   0.70088   0.00000  Uiso   1.00
N1271  N     0.83332   0.83332   0.95240   0.00000  Uiso   1.00
N1272  N     0.83335   0.83334   0.71427   0.00000  Uiso   1.00
O1273  O     0.83333   0.77225   0.87154   0.00000  Uiso   1.00
O1274  O     0.83334   0.89442   0.79513   0.00000  Uiso   1.00
O1275  O     0.83333   0.77226   0.79510   0.00000  Uiso   1.00
O1276  O     0.83334   0.89441   0.87157   0.00000  Uiso   1.00
O1277  O     0.75725   0.83333   0.86261   0.00000  Uiso   1.00
O1278  O     0.90942   0.83334   0.80405   0.00000  Uiso   1.00
O1279  O     0.75725   0.83334   0.78617   0.00000  Uiso   1.00
O1280  O     0.90942   0.83333   0.88050   0.00000  Uiso   1.00
Zn1281 Zn    0.83333   0.83333   0.88437   0.00000  Uiso   1.00
Zn1282 Zn    0.83333   0.83334   0.78229   0.00000  Uiso   1.00
S1283  S     0.91605   0.96049   0.77734   0.00000  Uiso   1.00
O1284  O     0.88814   0.94567   0.73252   0.00000  Uiso   1.00
O1285  O     0.95665   0.99297   0.76847   0.00000  Uiso   1.00
O1286  O     0.94629   0.92045   0.80620   0.00000  Uiso   1.00
H1287  H     0.96278   0.93235   0.83543   0.00000  Uiso   1.00
S1288  S     0.74952   0.70627   0.88852   0.00000  Uiso   1.00
O1289  O     0.72548   0.74415   0.86448   0.00000  Uiso   1.00
O1290  O     0.70676   0.67440   0.89343   0.00000  Uiso   1.00
O1291  O     0.77988   0.71906   0.94043   0.00000  Uiso   1.00
H1292  H     0.75273   0.71569   0.96091   0.00000  Uiso   1.00
O1293  O     0.91854   0.86432   0.72345   0.00000  Uiso   1.00
H1294  H     0.94576   0.87397   0.70481   0.00000  Uiso   1.00
O1295  O     0.74813   0.80237   0.94320   0.00000  Uiso   1.00
H1296  H     0.72067   0.79317   0.96180   0.00000  Uiso   1.00
loop_
_geom_bond_atom_site_label_1
_geom_bond_atom_site_label_2
_geom_bond_distance
_geom_bond_site_symmetry_2
_ccdc_geom_bond_type
C1     O25     1.285   .     A
C1     C12     1.419   .     S
C1     O27     1.288   .     A
C2     O28     1.288   .     A
C2     C11     1.420   .     S
C2     O26     1.285   .     A
C3     O31     1.281   .     A
C3     O29     1.283   .     A
C3     C5      1.400   .     S
C4     O32     1.280   .     A
C4     C6      1.400   .     S
C4     O30     1.283   .     A
C5     C102    1.325   1_455 S
C5     H113    1.086   1_455 S
C6     C53     1.325   .     S
C6     H66     1.086   .     S
C7     H19     1.085   .     S
C7     C12     1.393   .     A
C7     C297    1.375   1_545 S
C8     H20     1.085   .     S
C8     C11     1.394   .     A
C8     C154    1.377   .     S
C9     C11     1.407   .     A
C9     S35     1.769   .     S
C9     C151    1.375   .     S
C10    C12     1.407   .     A
C10    S40     1.770   .     S
C10    C296    1.377   1_545 S
C13    O45     1.376   .     S
C13    N24     1.374   .     A
C13    C879    1.426   1_554 S
C14    N23     1.373   .     A
C14    O47     1.375   .     S
C14    C448    1.426   .     S
C15    N23     1.362   .     A
C15    H21     1.082   .     S
C15    C445    1.426   .     S
C16    N24     1.362   .     A
C16    H22     1.082   .     S
C16    C878    1.426   1_554 S
H17    C53     1.086   .     S
H18    C102    1.086   1_455 S
N23    Zn33    2.019   .     S
N24    Zn34    2.019   .     S
O25    Zn33    2.005   .     S
O26    Zn34    2.005   .     S
O27    Zn34    1.991   .     S
O28    Zn33    1.991   .     S
O29    Zn33    1.975   .     S
O30    Zn34    1.975   .     S
O31    Zn34    1.978   .     S
O32    Zn33    1.978   .     S
S35    O36     1.502   .     D
S35    O37     1.504   .     D
S35    O38     1.678   .     S
O38    H39     0.991   .     S
S40    O42     1.504   .     D
S40    O41     1.501   .     D
S40    O43     1.682   .     S
O43    H44     0.991   .     S
O45    H46     0.992   .     S
O47    H48     0.992   .     S
C49    O73     1.285   .     A
C49    C60     1.419   .     S
C49    O75     1.288   .     A
C50    O76     1.288   .     A
C50    C59     1.420   .     S
C50    O74     1.285   .     A
C51    O79     1.281   .     A
C51    O77     1.283   .     A
C51    C53     1.400   .     S
C52    O80     1.280   .     A
C52    C54     1.400   .     S
C52    O78     1.283   .     A
C54    C101    1.325   .     S
C54    H114    1.086   .     S
C55    H67     1.085   .     S
C55    C60     1.393   .     A
C55    C345    1.375   1_545 S
C56    H68     1.085   .     S
C56    C59     1.394   .     A
C56    C202    1.377   .     S
C57    C59     1.407   .     A
C57    S83     1.769   .     S
C57    C199    1.375   .     S
C58    C60     1.407   .     A
C58    S88     1.770   .     S
C58    C344    1.377   1_545 S
C61    O93     1.376   .     S
C61    N72     1.374   .     A
C61    C927    1.426   1_554 S
C62    N71     1.373   .     A
C62    O95     1.375   .     S
C62    C496    1.426   .     S
C63    N71     1.362   .     A
C63    H69     1.082   .     S
C63    C493    1.426   .     S
C64    N72     1.362   .     A
C64    H70     1.082   .     S
C64    C926    1.426   1_554 S
H65    C101    1.086   .     S
N71    Zn81    2.019   .     S
N72    Zn82    2.019   .     S
O73    Zn81    2.005   .     S
O74    Zn82    2.005   .     S
O75    Zn82    1.991   .     S
O76    Zn81    1.991   .     S
O77    Zn81    1.975   .     S
O78    Zn82    1.975   .     S
O79    Zn82    1.978   .     S
O80    Zn81    1.978   .     S
S83    O84     1.502   .     D
S83    O85     1.504   .     D
S83    O86     1.678   .     S
O86    H87     0.991   .     S
S88    O90     1.504   .     D
S88    O89     1.501   .     D
S88    O91     1.682   .     S
O91    H92     0.991   .     S
O93    H94     0.992   .     S
O95    H96     0.992   .     S
C97    O121    1.285   .     A
C97    C108    1.419   .     S
C97    O123    1.288   .     A
C98    O124    1.288   .     A
C98    C107    1.420   .     S
C98    O122    1.285   .     A
C99    O127    1.281   .     A
C99    O125    1.283   .     A
C99    C101    1.400   .     S
C100   O128    1.280   .     A
C100   C102    1.400   .     S
C100   O126    1.283   .     A
C102   C5      1.325   1_655 S
C102   H18     1.086   1_655 S
C103   H115    1.085   .     S
C103   C108    1.393   .     A
C103   C393    1.375   1_545 S
C104   H116    1.085   .     S
C104   C107    1.394   .     A
C104   C250    1.377   .     S
C105   C107    1.407   .     A
C105   S131    1.769   .     S
C105   C247    1.375   .     S
C106   C108    1.407   .     A
C106   S136    1.770   .     S
C106   C392    1.377   1_545 S
C109   O141    1.376   .     S
C109   N120    1.374   .     A
C109   C975    1.426   1_554 S
C110   N119    1.373   .     A
C110   O143    1.375   .     S
C110   C544    1.426   .     S
C111   N119    1.362   .     A
C111   H117    1.082   .     S
C111   C541    1.426   .     S
C112   N120    1.362   .     A
C112   H118    1.082   .     S
C112   C974    1.426   1_554 S
H113   C5      1.086   1_655 S
N119   Zn129   2.019   .     S
N120   Zn130   2.019   .     S
O121   Zn129   2.005   .     S
O122   Zn130   2.005   .     S
O123   Zn130   1.991   .     S
O124   Zn129   1.991   .     S
O125   Zn129   1.975   .     S
O126   Zn130   1.975   .     S
O127   Zn130   1.978   .     S
O128   Zn129   1.978   .     S
S131   O132    1.502   .     D
S131   O133    1.504   .     D
S131   O134    1.678   .     S
O134   H135    0.991   .     S
S136   O138    1.504   .     D
S136   O137    1.501   .     D
S136   O139    1.682   .     S
O139   H140    0.991   .     S
O141   H142    0.992   .     S
O143   H144    0.992   .     S
C145   O169    1.285   .     A
C145   C156    1.419   .     S
C145   O171    1.288   .     A
C146   O172    1.288   .     A
C146   C155    1.420   .     S
C146   O170    1.285   .     A
C147   O175    1.281   .     A
C147   O173    1.283   .     A
C147   C149    1.400   .     S
C148   O176    1.280   .     A
C148   C150    1.400   .     S
C148   O174    1.283   .     A
C149   C246    1.325   1_455 S
C149   H257    1.086   1_455 S
C150   C197    1.325   .     S
C150   H210    1.086   .     S
C151   H163    1.085   .     S
C151   C156    1.393   .     A
C152   H164    1.085   .     S
C152   C155    1.394   .     A
C152   C298    1.377   .     S
C153   C155    1.407   .     A
C153   S179    1.769   .     S
C153   C295    1.375   .     S
C154   C156    1.407   .     A
C154   S184    1.770   .     S
C157   O189    1.376   .     S
C157   N168    1.374   .     A
C157   C1023   1.426   1_554 S
C158   N167    1.373   .     A
C158   O191    1.375   .     S
C158   C592    1.426   .     S
C159   N167    1.362   .     A
C159   H165    1.082   .     S
C159   C589    1.426   .     S
C160   N168    1.362   .     A
C160   H166    1.082   .     S
C160   C1022   1.426   1_554 S
H161   C197    1.086   .     S
H162   C246    1.086   1_455 S
N167   Zn177   2.019   .     S
N168   Zn178   2.019   .     S
O169   Zn177   2.005   .     S
O170   Zn178   2.005   .     S
O171   Zn178   1.991   .     S
O172   Zn177   1.991   .     S
O173   Zn177   1.975   .     S
O174   Zn178   1.975   .     S
O175   Zn178   1.978   .     S
O176   Zn177   1.978   .     S
S179   O180    1.502   .     D
S179   O181    1.504   .     D
S179   O182    1.678   .     S
O182   H183    0.991   .     S
S184   O186    1.504   .     D
S184   O185    1.501   .     D
S184   O187    1.682   .     S
O187   H188    0.991   .     S
O189   H190    0.992   .     S
O191   H192    0.992   .     S
C193   O217    1.285   .     A
C193   C204    1.419   .     S
C193   O219    1.288   .     A
C194   O220    1.288   .     A
C194   C203    1.420   .     S
C194   O218    1.285   .     A
C195   O223    1.281   .     A
C195   O221    1.283   .     A
C195   C197    1.400   .     S
C196   O224    1.280   .     A
C196   C198    1.400   .     S
C196   O222    1.283   .     A
C198   C245    1.325   .     S
C198   H258    1.086   .     S
C199   H211    1.085   .     S
C199   C204    1.393   .     A
C200   H212    1.085   .     S
C200   C203    1.394   .     A
C200   C346    1.377   .     S
C201   C203    1.407   .     A
C201   S227    1.769   .     S
C201   C343    1.375   .     S
C202   C204    1.407   .     A
C202   S232    1.770   .     S
C205   O237    1.376   .     S
C205   N216    1.374   .     A
C205   C1071   1.426   1_554 S
C206   N215    1.373   .     A
C206   O239    1.375   .     S
C206   C640    1.426   .     S
C207   N215    1.362   .     A
C207   H213    1.082   .     S
C207   C637    1.426   .     S
C208   N216    1.362   .     A
C208   H214    1.082   .     S
C208   C1070   1.426   1_554 S
H209   C245    1.086   .     S
N215   Zn225   2.019   .     S
N216   Zn226   2.019   .     S
O217   Zn225   2.005   .     S
O218   Zn226   2.005   .     S
O219   Zn226   1.991   .     S
O220   Zn225   1.991   .     S
O221   Zn225   1.975   .     S
O222   Zn226   1.975   .     S
O223   Zn226   1.978   .     S
O224   Zn225   1.978   .     S
S227   O228    1.502   .     D
S227   O229    1.504   .     D
S227   O230    1.678   .     S
O230   H231    0.991   .     S
S232   O234    1.504   .     D
S232   O233    1.501   .     D
S232   O235    1.682   .     S
O235   H236    0.991   .     S
O237   H238    0.992   .     S
O239   H240    0.992   .     S
C241   O265    1.285   .     A
C241   C252    1.419   .     S
C241   O267    1.288   .     A
C242   O268    1.288   .     A
C242   C251    1.420   .     S
C242   O266    1.285   .     A
C243   O271    1.281   .     A
C243   O269    1.283   .     A
C243   C245    1.400   .     S
C244   O272    1.280   .     A
C244   C246    1.400   .     S
C244   O270    1.283   .     A
C246   C149    1.325   1_655 S
C246   H162    1.086   1_655 S
C247   H259    1.085   .     S
C247   C252    1.393   .     A
C248   H260    1.085   .     S
C248   C251    1.394   .     A
C248   C394    1.377   .     S
C249   C251    1.407   .     A
C249   S275    1.769   .     S
C249   C391    1.375   .     S
C250   C252    1.407   .     A
C250   S280    1.770   .     S
C253   O285    1.376   .     S
C253   N264    1.374   .     A
C253   C1119   1.426   1_554 S
C254   N263    1.373   .     A
C254   O287    1.375   .     S
C254   C688    1.426   .     S
C255   N263    1.362   .     A
C255   H261    1.082   .     S
C255   C685    1.426   .     S
C256   N264    1.362   .     A
C256   H262    1.082   .     S
C256   C1118   1.426   1_554 S
H257   C149    1.086   1_655 S
N263   Zn273   2.019   .     S
N264   Zn274   2.019   .     S
O265   Zn273   2.005   .     S
O266   Zn274   2.005   .     S
O267   Zn274   1.991   .     S
O268   Zn273   1.991   .     S
O269   Zn273   1.975   .     S
O270   Zn274   1.975   .     S
O271   Zn274   1.978   .     S
O272   Zn273   1.978   .     S
S275   O276    1.502   .     D
S275   O277    1.504   .     D
S275   O278    1.678   .     S
O278   H279    0.991   .     S
S280   O282    1.504   .     D
S280   O281    1.501   .     D
S280   O283    1.682   .     S
O283   H284    0.991   .     S
O285   H286    0.992   .     S
O287   H288    0.992   .     S
C289   O313    1.285   .     A
C289   C300    1.419   .     S
C289   O315    1.288   .     A
C290   O316    1.288   .     A
C290   C299    1.420   .     S
C290   O314    1.285   .     A
C291   O319    1.281   .     A
C291   O317    1.283   .     A
C291   C293    1.400   .     S
C292   O320    1.280   .     A
C292   C294    1.400   .     S
C292   O318    1.283   .     A
C293   C390    1.325   1_455 S
C293   H401    1.086   1_455 S
C294   C341    1.325   .     S
C294   H354    1.086   .     S
C295   H307    1.085   .     S
C295   C300    1.393   .     A
C296   H308    1.085   .     S
C296   C299    1.394   .     A
C296   C10     1.377   1_565 S
C297   C299    1.407   .     A
C297   S323    1.769   .     S
C297   C7      1.375   1_565 S
C298   C300    1.407   .     A
C298   S328    1.770   .     S
C301   O333    1.376   .     S
C301   N312    1.374   .     A
C301   C1167   1.426   1_554 S
C302   N311    1.373   .     A
C302   O335    1.375   .     S
C302   C736    1.426   .     S
C303   N311    1.362   .     A
C303   H309    1.082   .     S
C303   C733    1.426   .     S
C304   N312    1.362   .     A
C304   H310    1.082   .     S
C304   C1166   1.426   1_554 S
H305   C341    1.086   .     S
H306   C390    1.086   1_455 S
N311   Zn321   2.019   .     S
N312   Zn322   2.019   .     S
O313   Zn321   2.005   .     S
O314   Zn322   2.005   .     S
O315   Zn322   1.991   .     S
O316   Zn321   1.991   .     S
O317   Zn321   1.975   .     S
O318   Zn322   1.975   .     S
O319   Zn322   1.978   .     S
O320   Zn321   1.978   .     S
S323   O324    1.502   .     D
S323   O325    1.504   .     D
S323   O326    1.678   .     S
O326   H327    0.991   .     S
S328   O330    1.504   .     D
S328   O329    1.501   .     D
S328   O331    1.682   .     S
O331   H332    0.991   .     S
O333   H334    0.992   .     S
O335   H336    0.992   .     S
C337   O361    1.285   .     A
C337   C348    1.419   .     S
C337   O363    1.288   .     A
C338   O364    1.288   .     A
C338   C347    1.420   .     S
C338   O362    1.285   .     A
C339   O367    1.281   .     A
C339   O365    1.283   .     A
C339   C341    1.400   .     S
C340   O368    1.280   .     A
C340   C342    1.400   .     S
C340   O366    1.283   .     A
C342   C389    1.325   .     S
C342   H402    1.086   .     S
C343   H355    1.085   .     S
C343   C348    1.393   .     A
C344   H356    1.085   .     S
C344   C347    1.394   .     A
C344   C58     1.377   1_565 S
C345   C347    1.407   .     A
C345   S371    1.769   .     S
C345   C55     1.375   1_565 S
C346   C348    1.407   .     A
C346   S376    1.770   .     S
C349   O381    1.376   .     S
C349   N360    1.374   .     A
C349   C1215   1.426   1_554 S
C350   N359    1.373   .     A
C350   O383    1.375   .     S
C350   C784    1.426   .     S
C351   N359    1.362   .     A
C351   H357    1.082   .     S
C351   C781    1.426   .     S
C352   N360    1.362   .     A
C352   H358    1.082   .     S
C352   C1214   1.426   1_554 S
H353   C389    1.086   .     S
N359   Zn369   2.019   .     S
N360   Zn370   2.019   .     S
O361   Zn369   2.005   .     S
O362   Zn370   2.005   .     S
O363   Zn370   1.991   .     S
O364   Zn369   1.991   .     S
O365   Zn369   1.975   .     S
O366   Zn370   1.975   .     S
O367   Zn370   1.978   .     S
O368   Zn369   1.978   .     S
S371   O372    1.502   .     D
S371   O373    1.504   .     D
S371   O374    1.678   .     S
O374   H375    0.991   .     S
S376   O378    1.504   .     D
S376   O377    1.501   .     D
S376   O379    1.682   .     S
O379   H380    0.991   .     S
O381   H382    0.992   .     S
O383   H384    0.992   .     S
C385   O409    1.285   .     A
C385   C396    1.419   .     S
C385   O411    1.288   .     A
C386   O412    1.288   .     A
C386   C395    1.420   .     S
C386   O410    1.285   .     A
C387   O415    1.281   .     A
C387   O413    1.283   .     A
C387   C389    1.400   .     S
C388   O416    1.280   .     A
C388   C390    1.400   .     S
C388   O414    1.283   .     A
C390   C293    1.325   1_655 S
C390   H306    1.086   1_655 S
C391   H403    1.085   .     S
C391   C396    1.393   .     A
C392   H404    1.085   .     S
C392   C395    1.394   .     A
C392   C106    1.377   1_565 S
C393   C395    1.407   .     A
C393   S419    1.769   .     S
C393   C103    1.375   1_565 S
C394   C396    1.407   .     A
C394   S424    1.770   .     S
C397   O429    1.376   .     S
C397   N408    1.374   .     A
C397   C1263   1.426   1_554 S
C398   N407    1.373   .     A
C398   O431    1.375   .     S
C398   C832    1.426   .     S
C399   N407    1.362   .     A
C399   H405    1.082   .     S
C399   C829    1.426   .     S
C400   N408    1.362   .     A
C400   H406    1.082   .     S
C400   C1262   1.426   1_554 S
H401   C293    1.086   1_655 S
N407   Zn417   2.019   .     S
N408   Zn418   2.019   .     S
O409   Zn417   2.005   .     S
O410   Zn418   2.005   .     S
O411   Zn418   1.991   .     S
O412   Zn417   1.991   .     S
O413   Zn417   1.975   .     S
O414   Zn418   1.975   .     S
O415   Zn418   1.978   .     S
O416   Zn417   1.978   .     S
S419   O420    1.502   .     D
S419   O421    1.504   .     D
S419   O422    1.678   .     S
O422   H423    0.991   .     S
S424   O426    1.504   .     D
S424   O425    1.501   .     D
S424   O427    1.682   .     S
O427   H428    0.991   .     S
O429   H430    0.992   .     S
O431   H432    0.992   .     S
C433   O457    1.285   .     A
C433   C444    1.419   .     S
C433   O459    1.288   .     A
C434   O460    1.288   .     A
C434   C443    1.420   .     S
C434   O458    1.285   .     A
C435   O463    1.281   .     A
C435   O461    1.283   .     A
C435   C437    1.400   .     S
C436   O464    1.280   .     A
C436   C438    1.400   .     S
C436   O462    1.283   .     A
C437   C534    1.325   1_455 S
C437   H545    1.086   1_455 S
C438   C485    1.325   .     S
C438   H498    1.086   .     S
C439   H451    1.085   .     S
C439   C444    1.393   .     A
C439   C729    1.375   1_545 S
C440   H452    1.085   .     S
C440   C443    1.394   .     A
C440   C586    1.377   .     S
C441   C443    1.407   .     A
C441   S467    1.769   .     S
C441   C583    1.375   .     S
C442   C444    1.407   .     A
C442   S472    1.770   .     S
C442   C728    1.377   1_545 S
C445   O477    1.376   .     S
C445   N456    1.374   .     A
C446   N455    1.373   .     A
C446   O479    1.375   .     S
C446   C880    1.426   .     S
C447   N455    1.362   .     A
C447   H453    1.082   .     S
C447   C877    1.426   .     S
C448   N456    1.362   .     A
C448   H454    1.082   .     S
H449   C485    1.086   .     S
H450   C534    1.086   1_455 S
N455   Zn465   2.019   .     S
N456   Zn466   2.019   .     S
O457   Zn465   2.005   .     S
O458   Zn466   2.005   .     S
O459   Zn466   1.991   .     S
O460   Zn465   1.991   .     S
O461   Zn465   1.975   .     S
O462   Zn466   1.975   .     S
O463   Zn466   1.978   .     S
O464   Zn465   1.978   .     S
S467   O468    1.502   .     D
S467   O469    1.504   .     D
S467   O470    1.678   .     S
O470   H471    0.991   .     S
S472   O474    1.504   .     D
S472   O473    1.501   .     D
S472   O475    1.682   .     S
O475   H476    0.991   .     S
O477   H478    0.992   .     S
O479   H480    0.992   .     S
C481   O505    1.285   .     A
C481   C492    1.419   .     S
C481   O507    1.288   .     A
C482   O508    1.288   .     A
C482   C491    1.420   .     S
C482   O506    1.285   .     A
C483   O511    1.281   .     A
C483   O509    1.283   .     A
C483   C485    1.400   .     S
C484   O512    1.280   .     A
C484   C486    1.400   .     S
C484   O510    1.283   .     A
C486   C533    1.325   .     S
C486   H546    1.086   .     S
C487   H499    1.085   .     S
C487   C492    1.393   .     A
C487   C777    1.375   1_545 S
C488   H500    1.085   .     S
C488   C491    1.394   .     A
C488   C634    1.377   .     S
C489   C491    1.407   .     A
C489   S515    1.769   .     S
C489   C631    1.375   .     S
C490   C492    1.407   .     A
C490   S520    1.770   .     S
C490   C776    1.377   1_545 S
C493   O525    1.376   .     S
C493   N504    1.374   .     A
C494   N503    1.373   .     A
C494   O527    1.375   .     S
C494   C928    1.426   .     S
C495   N503    1.362   .     A
C495   H501    1.082   .     S
C495   C925    1.426   .     S
C496   N504    1.362   .     A
C496   H502    1.082   .     S
H497   C533    1.086   .     S
N503   Zn513   2.019   .     S
N504   Zn514   2.019   .     S
O505   Zn513   2.005   .     S
O506   Zn514   2.005   .     S
O507   Zn514   1.991   .     S
O508   Zn513   1.991   .     S
O509   Zn513   1.975   .     S
O510   Zn514   1.975   .     S
O511   Zn514   1.978   .     S
O512   Zn513   1.978   .     S
S515   O516    1.502   .     D
S515   O517    1.504   .     D
S515   O518    1.678   .     S
O518   H519    0.991   .     S
S520   O522    1.504   .     D
S520   O521    1.501   .     D
S520   O523    1.682   .     S
O523   H524    0.991   .     S
O525   H526    0.992   .     S
O527   H528    0.992   .     S
C529   O553    1.285   .     A
C529   C540    1.419   .     S
C529   O555    1.288   .     A
C530   O556    1.288   .     A
C530   C539    1.420   .     S
C530   O554    1.285   .     A
C531   O559    1.281   .     A
C531   O557    1.283   .     A
C531   C533    1.400   .     S
C532   O560    1.280   .     A
C532   C534    1.400   .     S
C532   O558    1.283   .     A
C534   C437    1.325   1_655 S
C534   H450    1.086   1_655 S
C535   H547    1.085   .     S
C535   C540    1.393   .     A
C535   C825    1.375   1_545 S
C536   H548    1.085   .     S
C536   C539    1.394   .     A
C536   C682    1.377   .     S
C537   C539    1.407   .     A
C537   S563    1.769   .     S
C537   C679    1.375   .     S
C538   C540    1.407   .     A
C538   S568    1.770   .     S
C538   C824    1.377   1_545 S
C541   O573    1.376   .     S
C541   N552    1.374   .     A
C542   N551    1.373   .     A
C542   O575    1.375   .     S
C542   C976    1.426   .     S
C543   N551    1.362   .     A
C543   H549    1.082   .     S
C543   C973    1.426   .     S
C544   N552    1.362   .     A
C544   H550    1.082   .     S
H545   C437    1.086   1_655 S
N551   Zn561   2.019   .     S
N552   Zn562   2.019   .     S
O553   Zn561   2.005   .     S
O554   Zn562   2.005   .     S
O555   Zn562   1.991   .     S
O556   Zn561   1.991   .     S
O557   Zn561   1.975   .     S
O558   Zn562   1.975   .     S
O559   Zn562   1.978   .     S
O560   Zn561   1.978   .     S
S563   O564    1.502   .     D
S563   O565    1.504   .     D
S563   O566    1.678   .     S
O566   H567    0.991   .     S
S568   O570    1.504   .     D
S568   O569    1.501   .     D
S568   O571    1.682   .     S
O571   H572    0.991   .     S
O573   H574    0.992   .     S
O575   H576    0.992   .     S
C577   O601    1.285   .     A
C577   C588    1.419   .     S
C577   O603    1.288   .     A
C578   O604    1.288   .     A
C578   C587    1.420   .     S
C578   O602    1.285   .     A
C579   O607    1.281   .     A
C579   O605    1.283   .     A
C579   C581    1.400   .     S
C580   O608    1.280   .     A
C580   C582    1.400   .     S
C580   O606    1.283   .     A
C581   C678    1.325   1_455 S
C581   H689    1.086   1_455 S
C582   C629    1.325   .     S
C582   H642    1.086   .     S
C583   H595    1.085   .     S
C583   C588    1.393   .     A
C584   H596    1.085   .     S
C584   C587    1.394   .     A
C584   C730    1.377   .     S
C585   C587    1.407   .     A
C585   S611    1.769   .     S
C585   C727    1.375   .     S
C586   C588    1.407   .     A
C586   S616    1.770   .     S
C589   O621    1.376   .     S
C589   N600    1.374   .     A
C590   N599    1.373   .     A
C590   O623    1.375   .     S
C590   C1024   1.426   .     S
C591   N599    1.362   .     A
C591   H597    1.082   .     S
C591   C1021   1.426   .     S
C592   N600    1.362   .     A
C592   H598    1.082   .     S
H593   C629    1.086   .     S
H594   C678    1.086   1_455 S
N599   Zn609   2.019   .     S
N600   Zn610   2.019   .     S
O601   Zn609   2.005   .     S
O602   Zn610   2.005   .     S
O603   Zn610   1.991   .     S
O604   Zn609   1.991   .     S
O605   Zn609   1.975   .     S
O606   Zn610   1.975   .     S
O607   Zn610   1.978   .     S
O608   Zn609   1.978   .     S
S611   O612    1.502   .     D
S611   O613    1.504   .     D
S611   O614    1.678   .     S
O614   H615    0.991   .     S
S616   O618    1.504   .     D
S616   O617    1.501   .     D
S616   O619    1.682   .     S
O619   H620    0.991   .     S
O621   H622    0.992   .     S
O623   H624    0.992   .     S
C625   O649    1.285   .     A
C625   C636    1.419   .     S
C625   O651    1.288   .     A
C626   O652    1.288   .     A
C626   C635    1.420   .     S
C626   O650    1.285   .     A
C627   O655    1.281   .     A
C627   O653    1.283   .     A
C627   C629    1.400   .     S
C628   O656    1.280   .     A
C628   C630    1.400   .     S
C628   O654    1.283   .     A
C630   C677    1.325   .     S
C630   H690    1.086   .     S
C631   H643    1.085   .     S
C631   C636    1.393   .     A
C632   H644    1.085   .     S
C632   C635    1.394   .     A
C632   C778    1.377   .     S
C633   C635    1.407   .     A
C633   S659    1.769   .     S
C633   C775    1.375   .     S
C634   C636    1.407   .     A
C634   S664    1.770   .     S
C637   O669    1.376   .     S
C637   N648    1.374   .     A
C638   N647    1.373   .     A
C638   O671    1.375   .     S
C638   C1072   1.426   .     S
C639   N647    1.362   .     A
C639   H645    1.082   .     S
C639   C1069   1.426   .     S
C640   N648    1.362   .     A
C640   H646    1.082   .     S
H641   C677    1.086   .     S
N647   Zn657   2.019   .     S
N648   Zn658   2.019   .     S
O649   Zn657   2.005   .     S
O650   Zn658   2.005   .     S
O651   Zn658   1.991   .     S
O652   Zn657   1.991   .     S
O653   Zn657   1.975   .     S
O654   Zn658   1.975   .     S
O655   Zn658   1.978   .     S
O656   Zn657   1.978   .     S
S659   O660    1.502   .     D
S659   O661    1.504   .     D
S659   O662    1.678   .     S
O662   H663    0.991   .     S
S664   O666    1.504   .     D
S664   O665    1.501   .     D
S664   O667    1.682   .     S
O667   H668    0.991   .     S
O669   H670    0.992   .     S
O671   H672    0.992   .     S
C673   O697    1.285   .     A
C673   C684    1.419   .     S
C673   O699    1.288   .     A
C674   O700    1.288   .     A
C674   C683    1.420   .     S
C674   O698    1.285   .     A
C675   O703    1.281   .     A
C675   O701    1.283   .     A
C675   C677    1.400   .     S
C676   O704    1.280   .     A
C676   C678    1.400   .     S
C676   O702    1.283   .     A
C678   C581    1.325   1_655 S
C678   H594    1.086   1_655 S
C679   H691    1.085   .     S
C679   C684    1.393   .     A
C680   H692    1.085   .     S
C680   C683    1.394   .     A
C680   C826    1.377   .     S
C681   C683    1.407   .     A
C681   S707    1.769   .     S
C681   C823    1.375   .     S
C682   C684    1.407   .     A
C682   S712    1.770   .     S
C685   O717    1.376   .     S
C685   N696    1.374   .     A
C686   N695    1.373   .     A
C686   O719    1.375   .     S
C686   C1120   1.426   .     S
C687   N695    1.362   .     A
C687   H693    1.082   .     S
C687   C1117   1.426   .     S
C688   N696    1.362   .     A
C688   H694    1.082   .     S
H689   C581    1.086   1_655 S
N695   Zn705   2.019   .     S
N696   Zn706   2.019   .     S
O697   Zn705   2.005   .     S
O698   Zn706   2.005   .     S
O699   Zn706   1.991   .     S
O700   Zn705   1.991   .     S
O701   Zn705   1.975   .     S
O702   Zn706   1.975   .     S
O703   Zn706   1.978   .     S
O704   Zn705   1.978   .     S
S707   O708    1.502   .     D
S707   O709    1.504   .     D
S707   O710    1.678   .     S
O710   H711    0.991   .     S
S712   O714    1.504   .     D
S712   O713    1.501   .     D
S712   O715    1.682   .     S
O715   H716    0.991   .     S
O717   H718    0.992   .     S
O719   H720    0.992   .     S
C721   O745    1.285   .     A
C721   C732    1.419   .     S
C721   O747    1.288   .     A
C722   O748    1.288   .     A
C722   C731    1.420   .     S
C722   O746    1.285   .     A
C723   O751    1.281   .     A
C723   O749    1.283   .     A
C723   C725    1.400   .     S
C724   O752    1.280   .     A
C724   C726    1.400   .     S
C724   O750    1.283   .     A
C725   C822    1.325   1_455 S
C725   H833    1.086   1_455 S
C726   C773    1.325   .     S
C726   H786    1.086   .     S
C727   H739    1.085   .     S
C727   C732    1.393   .     A
C728   H740    1.085   .     S
C728   C731    1.394   .     A
C728   C442    1.377   1_565 S
C729   C731    1.407   .     A
C729   S755    1.769   .     S
C729   C439    1.375   1_565 S
C730   C732    1.407   .     A
C730   S760    1.770   .     S
C733   O765    1.376   .     S
C733   N744    1.374   .     A
C734   N743    1.373   .     A
C734   O767    1.375   .     S
C734   C1168   1.426   .     S
C735   N743    1.362   .     A
C735   H741    1.082   .     S
C735   C1165   1.426   .     S
C736   N744    1.362   .     A
C736   H742    1.082   .     S
H737   C773    1.086   .     S
H738   C822    1.086   1_455 S
N743   Zn753   2.019   .     S
N744   Zn754   2.019   .     S
O745   Zn753   2.005   .     S
O746   Zn754   2.005   .     S
O747   Zn754   1.991   .     S
O748   Zn753   1.991   .     S
O749   Zn753   1.975   .     S
O750   Zn754   1.975   .     S
O751   Zn754   1.978   .     S
O752   Zn753   1.978   .     S
S755   O756    1.502   .     D
S755   O757    1.504   .     D
S755   O758    1.678   .     S
O758   H759    0.991   .     S
S760   O762    1.504   .     D
S760   O761    1.501   .     D
S760   O763    1.682   .     S
O763   H764    0.991   .     S
O765   H766    0.992   .     S
O767   H768    0.992   .     S
C769   O793    1.285   .     A
C769   C780    1.419   .     S
C769   O795    1.288   .     A
C770   O796    1.288   .     A
C770   C779    1.420   .     S
C770   O794    1.285   .     A
C771   O799    1.281   .     A
C771   O797    1.283   .     A
C771   C773    1.400   .     S
C772   O800    1.280   .     A
C772   C774    1.400   .     S
C772   O798    1.283   .     A
C774   C821    1.325   .     S
C774   H834    1.086   .     S
C775   H787    1.085   .     S
C775   C780    1.393   .     A
C776   H788    1.085   .     S
C776   C779    1.394   .     A
C776   C490    1.377   1_565 S
C777   C779    1.407   .     A
C777   S803    1.769   .     S
C777   C487    1.375   1_565 S
C778   C780    1.407   .     A
C778   S808    1.770   .     S
C781   O813    1.376   .     S
C781   N792    1.374   .     A
C782   N791    1.373   .     A
C782   O815    1.375   .     S
C782   C1216   1.426   .     S
C783   N791    1.362   .     A
C783   H789    1.082   .     S
C783   C1213   1.426   .     S
C784   N792    1.362   .     A
C784   H790    1.082   .     S
H785   C821    1.086   .     S
N791   Zn801   2.019   .     S
N792   Zn802   2.019   .     S
O793   Zn801   2.005   .     S
O794   Zn802   2.005   .     S
O795   Zn802   1.991   .     S
O796   Zn801   1.991   .     S
O797   Zn801   1.975   .     S
O798   Zn802   1.975   .     S
O799   Zn802   1.978   .     S
O800   Zn801   1.978   .     S
S803   O804    1.502   .     D
S803   O805    1.504   .     D
S803   O806    1.678   .     S
O806   H807    0.991   .     S
S808   O810    1.504   .     D
S808   O809    1.501   .     D
S808   O811    1.682   .     S
O811   H812    0.991   .     S
O813   H814    0.992   .     S
O815   H816    0.992   .     S
C817   O841    1.285   .     A
C817   C828    1.419   .     S
C817   O843    1.288   .     A
C818   O844    1.288   .     A
C818   C827    1.420   .     S
C818   O842    1.285   .     A
C819   O847    1.281   .     A
C819   O845    1.283   .     A
C819   C821    1.400   .     S
C820   O848    1.280   .     A
C820   C822    1.400   .     S
C820   O846    1.283   .     A
C822   C725    1.325   1_655 S
C822   H738    1.086   1_655 S
C823   H835    1.085   .     S
C823   C828    1.393   .     A
C824   H836    1.085   .     S
C824   C827    1.394   .     A
C824   C538    1.377   1_565 S
C825   C827    1.407   .     A
C825   S851    1.769   .     S
C825   C535    1.375   1_565 S
C826   C828    1.407   .     A
C826   S856    1.770   .     S
C829   O861    1.376   .     S
C829   N840    1.374   .     A
C830   N839    1.373   .     A
C830   O863    1.375   .     S
C830   C1264   1.426   .     S
C831   N839    1.362   .     A
C831   H837    1.082   .     S
C831   C1261   1.426   .     S
C832   N840    1.362   .     A
C832   H838    1.082   .     S
H833   C725    1.086   1_655 S
N839   Zn849   2.019   .     S
N840   Zn850   2.019   .     S
O841   Zn849   2.005   .     S
O842   Zn850   2.005   .     S
O843   Zn850   1.991   .     S
O844   Zn849   1.991   .     S
O845   Zn849   1.975   .     S
O846   Zn850   1.975   .     S
O847   Zn850   1.978   .     S
O848   Zn849   1.978   .     S
S851   O852    1.502   .     D
S851   O853    1.504   .     D
S851   O854    1.678   .     S
O854   H855    0.991   .     S
S856   O858    1.504   .     D
S856   O857    1.501   .     D
S856   O859    1.682   .     S
O859   H860    0.991   .     S
O861   H862    0.992   .     S
O863   H864    0.992   .     S
C865   O889    1.285   .     A
C865   C876    1.419   .     S
C865   O891    1.288   .     A
C866   O892    1.288   .     A
C866   C875    1.420   .     S
C866   O890    1.285   .     A
C867   O895    1.281   .     A
C867   O893    1.283   .     A
C867   C869    1.400   .     S
C868   O896    1.280   .     A
C868   C870    1.400   .     S
C868   O894    1.283   .     A
C869   C966    1.325   1_455 S
C869   H977    1.086   1_455 S
C870   C917    1.325   .     S
C870   H930    1.086   .     S
C871   H883    1.085   .     S
C871   C876    1.393   .     A
C871   C1161   1.375   1_545 S
C872   H884    1.085   .     S
C872   C875    1.394   .     A
C872   C1018   1.377   .     S
C873   C875    1.407   .     A
C873   S899    1.769   .     S
C873   C1015   1.375   .     S
C874   C876    1.407   .     A
C874   S904    1.770   .     S
C874   C1160   1.377   1_545 S
C877   O909    1.376   .     S
C877   N888    1.374   .     A
C878   N887    1.373   .     A
C878   O911    1.375   .     S
C878   C16     1.426   1_556 S
C879   N887    1.362   .     A
C879   H885    1.082   .     S
C879   C13     1.426   1_556 S
C880   N888    1.362   .     A
C880   H886    1.082   .     S
H881   C917    1.086   .     S
H882   C966    1.086   1_455 S
N887   Zn897   2.019   .     S
N888   Zn898   2.019   .     S
O889   Zn897   2.005   .     S
O890   Zn898   2.005   .     S
O891   Zn898   1.991   .     S
O892   Zn897   1.991   .     S
O893   Zn897   1.975   .     S
O894   Zn898   1.975   .     S
O895   Zn898   1.978   .     S
O896   Zn897   1.978   .     S
S899   O900    1.502   .     D
S899   O901    1.504   .     D
S899   O902    1.678   .     S
O902   H903    0.991   .     S
S904   O906    1.504   .     D
S904   O905    1.501   .     D
S904   O907    1.682   .     S
O907   H908    0.991   .     S
O909   H910    0.992   .     S
O911   H912    0.992   .     S
C913   O937    1.285   .     A
C913   C924    1.419   .     S
C913   O939    1.288   .     A
C914   O940    1.288   .     A
C914   C923    1.420   .     S
C914   O938    1.285   .     A
C915   O943    1.281   .     A
C915   O941    1.283   .     A
C915   C917    1.400   .     S
C916   O944    1.280   .     A
C916   C918    1.400   .     S
C916   O942    1.283   .     A
C918   C965    1.325   .     S
C918   H978    1.086   .     S
C919   H931    1.085   .     S
C919   C924    1.393   .     A
C919   C1209   1.375   1_545 S
C920   H932    1.085   .     S
C920   C923    1.394   .     A
C920   C1066   1.377   .     S
C921   C923    1.407   .     A
C921   S947    1.769   .     S
C921   C1063   1.375   .     S
C922   C924    1.407   .     A
C922   S952    1.770   .     S
C922   C1208   1.377   1_545 S
C925   O957    1.376   .     S
C925   N936    1.374   .     A
C926   N935    1.373   .     A
C926   O959    1.375   .     S
C926   C64     1.426   1_556 S
C927   N935    1.362   .     A
C927   H933    1.082   .     S
C927   C61     1.426   1_556 S
C928   N936    1.362   .     A
C928   H934    1.082   .     S
H929   C965    1.086   .     S
N935   Zn945   2.019   .     S
N936   Zn946   2.019   .     S
O937   Zn945   2.005   .     S
O938   Zn946   2.005   .     S
O939   Zn946   1.991   .     S
O940   Zn945   1.991   .     S
O941   Zn945   1.975   .     S
O942   Zn946   1.975   .     S
O943   Zn946   1.978   .     S
O944   Zn945   1.978   .     S
S947   O948    1.502   .     D
S947   O949    1.504   .     D
S947   O950    1.678   .     S
O950   H951    0.991   .     S
S952   O954    1.504   .     D
S952   O953    1.501   .     D
S952   O955    1.682   .     S
O955   H956    0.991   .     S
O957   H958    0.992   .     S
O959   H960    0.992   .     S
C961   O985    1.285   .     A
C961   C972    1.419   .     S
C961   O987    1.288   .     A
C962   O988    1.288   .     A
C962   C971    1.420   .     S
C962   O986    1.285   .     A
C963   O991    1.281   .     A
C963   O989    1.283   .     A
C963   C965    1.400   .     S
C964   O992    1.280   .     A
C964   C966    1.400   .     S
C964   O990    1.283   .     A
C966   C869    1.325   1_655 S
C966   H882    1.086   1_655 S
C967   H979    1.085   .     S
C967   C972    1.393   .     A
C967   C1257   1.375   1_545 S
C968   H980    1.085   .     S
C968   C971    1.394   .     A
C968   C1114   1.377   .     S
C969   C971    1.407   .     A
C969   S995    1.769   .     S
C969   C1111   1.375   .     S
C970   C972    1.407   .     A
C970   S1000   1.770   .     S
C970   C1256   1.377   1_545 S
C973   O1005   1.376   .     S
C973   N984    1.374   .     A
C974   N983    1.373   .     A
C974   O1007   1.375   .     S
C974   C112    1.426   1_556 S
C975   N983    1.362   .     A
C975   H981    1.082   .     S
C975   C109    1.426   1_556 S
C976   N984    1.362   .     A
C976   H982    1.082   .     S
H977   C869    1.086   1_655 S
N983   Zn993   2.019   .     S
N984   Zn994   2.019   .     S
O985   Zn993   2.005   .     S
O986   Zn994   2.005   .     S
O987   Zn994   1.991   .     S
O988   Zn993   1.991   .     S
O989   Zn993   1.975   .     S
O990   Zn994   1.975   .     S
O991   Zn994   1.978   .     S
O992   Zn993   1.978   .     S
S995   O996    1.502   .     D
S995   O997    1.504   .     D
S995   O998    1.678   .     S
O998   H999    0.991   .     S
S1000  O1002   1.504   .     D
S1000  O1001   1.501   .     D
S1000  O1003   1.682   .     S
O1003  H1004   0.991   .     S
O1005  H1006   0.992   .     S
O1007  H1008   0.992   .     S
C1009  O1033   1.285   .     A
C1009  C1020   1.419   .     S
C1009  O1035   1.288   .     A
C1010  O1036   1.288   .     A
C1010  C1019   1.420   .     S
C1010  O1034   1.285   .     A
C1011  O1039   1.281   .     A
C1011  O1037   1.283   .     A
C1011  C1013   1.400   .     S
C1012  O1040   1.280   .     A
C1012  C1014   1.400   .     S
C1012  O1038   1.283   .     A
C1013  C1110   1.325   1_455 S
C1013  H1121   1.086   1_455 S
C1014  C1061   1.325   .     S
C1014  H1074   1.086   .     S
C1015  H1027   1.085   .     S
C1015  C1020   1.393   .     A
C1016  H1028   1.085   .     S
C1016  C1019   1.394   .     A
C1016  C1162   1.377   .     S
C1017  C1019   1.407   .     A
C1017  S1043   1.769   .     S
C1017  C1159   1.375   .     S
C1018  C1020   1.407   .     A
C1018  S1048   1.770   .     S
C1021  O1053   1.376   .     S
C1021  N1032   1.374   .     A
C1022  N1031   1.373   .     A
C1022  O1055   1.375   .     S
C1022  C160    1.426   1_556 S
C1023  N1031   1.362   .     A
C1023  H1029   1.082   .     S
C1023  C157    1.426   1_556 S
C1024  N1032   1.362   .     A
C1024  H1030   1.082   .     S
H1025  C1061   1.086   .     S
H1026  C1110   1.086   1_455 S
N1031  Zn1041  2.019   .     S
N1032  Zn1042  2.019   .     S
O1033  Zn1041  2.005   .     S
O1034  Zn1042  2.005   .     S
O1035  Zn1042  1.991   .     S
O1036  Zn1041  1.991   .     S
O1037  Zn1041  1.975   .     S
O1038  Zn1042  1.975   .     S
O1039  Zn1042  1.978   .     S
O1040  Zn1041  1.978   .     S
S1043  O1044   1.502   .     D
S1043  O1045   1.504   .     D
S1043  O1046   1.678   .     S
O1046  H1047   0.991   .     S
S1048  O1050   1.504   .     D
S1048  O1049   1.501   .     D
S1048  O1051   1.682   .     S
O1051  H1052   0.991   .     S
O1053  H1054   0.992   .     S
O1055  H1056   0.992   .     S
C1057  O1081   1.285   .     A
C1057  C1068   1.419   .     S
C1057  O1083   1.288   .     A
C1058  O1084   1.288   .     A
C1058  C1067   1.420   .     S
C1058  O1082   1.285   .     A
C1059  O1087   1.281   .     A
C1059  O1085   1.283   .     A
C1059  C1061   1.400   .     S
C1060  O1088   1.280   .     A
C1060  C1062   1.400   .     S
C1060  O1086   1.283   .     A
C1062  C1109   1.325   .     S
C1062  H1122   1.086   .     S
C1063  H1075   1.085   .     S
C1063  C1068   1.393   .     A
C1064  H1076   1.085   .     S
C1064  C1067   1.394   .     A
C1064  C1210   1.377   .     S
C1065  C1067   1.407   .     A
C1065  S1091   1.769   .     S
C1065  C1207   1.375   .     S
C1066  C1068   1.407   .     A
C1066  S1096   1.770   .     S
C1069  O1101   1.376   .     S
C1069  N1080   1.374   .     A
C1070  N1079   1.373   .     A
C1070  O1103   1.375   .     S
C1070  C208    1.426   1_556 S
C1071  N1079   1.362   .     A
C1071  H1077   1.082   .     S
C1071  C205    1.426   1_556 S
C1072  N1080   1.362   .     A
C1072  H1078   1.082   .     S
H1073  C1109   1.086   .     S
N1079  Zn1089  2.019   .     S
N1080  Zn1090  2.019   .     S
O1081  Zn1089  2.005   .     S
O1082  Zn1090  2.005   .     S
O1083  Zn1090  1.991   .     S
O1084  Zn1089  1.991   .     S
O1085  Zn1089  1.975   .     S
O1086  Zn1090  1.975   .     S
O1087  Zn1090  1.978   .     S
O1088  Zn1089  1.978   .     S
S1091  O1092   1.502   .     D
S1091  O1093   1.504   .     D
S1091  O1094   1.678   .     S
O1094  H1095   0.991   .     S
S1096  O1098   1.504   .     D
S1096  O1097   1.501   .     D
S1096  O1099   1.682   .     S
O1099  H1100   0.991   .     S
O1101  H1102   0.992   .     S
O1103  H1104   0.992   .     S
C1105  O1129   1.285   .     A
C1105  C1116   1.419   .     S
C1105  O1131   1.288   .     A
C1106  O1132   1.288   .     A
C1106  C1115   1.420   .     S
C1106  O1130   1.285   .     A
C1107  O1135   1.281   .     A
C1107  O1133   1.283   .     A
C1107  C1109   1.400   .     S
C1108  O1136   1.280   .     A
C1108  C1110   1.400   .     S
C1108  O1134   1.283   .     A
C1110  C1013   1.325   1_655 S
C1110  H1026   1.086   1_655 S
C1111  H1123   1.085   .     S
C1111  C1116   1.393   .     A
C1112  H1124   1.085   .     S
C1112  C1115   1.394   .     A
C1112  C1258   1.377   .     S
C1113  C1115   1.407   .     A
C1113  S1139   1.769   .     S
C1113  C1255   1.375   .     S
C1114  C1116   1.407   .     A
C1114  S1144   1.770   .     S
C1117  O1149   1.376   .     S
C1117  N1128   1.374   .     A
C1118  N1127   1.373   .     A
C1118  O1151   1.375   .     S
C1118  C256    1.426   1_556 S
C1119  N1127   1.362   .     A
C1119  H1125   1.082   .     S
C1119  C253    1.426   1_556 S
C1120  N1128   1.362   .     A
C1120  H1126   1.082   .     S
H1121  C1013   1.086   1_655 S
N1127  Zn1137  2.019   .     S
N1128  Zn1138  2.019   .     S
O1129  Zn1137  2.005   .     S
O1130  Zn1138  2.005   .     S
O1131  Zn1138  1.991   .     S
O1132  Zn1137  1.991   .     S
O1133  Zn1137  1.975   .     S
O1134  Zn1138  1.975   .     S
O1135  Zn1138  1.978   .     S
O1136  Zn1137  1.978   .     S
S1139  O1140   1.502   .     D
S1139  O1141   1.504   .     D
S1139  O1142   1.678   .     S
O1142  H1143   0.991   .     S
S1144  O1146   1.504   .     D
S1144  O1145   1.501   .     D
S1144  O1147   1.682   .     S
O1147  H1148   0.991   .     S
O1149  H1150   0.992   .     S
O1151  H1152   0.992   .     S
C1153  O1177   1.285   .     A
C1153  C1164   1.419   .     S
C1153  O1179   1.288   .     A
C1154  O1180   1.288   .     A
C1154  C1163   1.420   .     S
C1154  O1178   1.285   .     A
C1155  O1183   1.281   .     A
C1155  O1181   1.283   .     A
C1155  C1157   1.400   .     S
C1156  O1184   1.280   .     A
C1156  C1158   1.400   .     S
C1156  O1182   1.283   .     A
C1157  C1254   1.325   1_455 S
C1157  H1265   1.086   1_455 S
C1158  C1205   1.325   .     S
C1158  H1218   1.086   .     S
C1159  H1171   1.085   .     S
C1159  C1164   1.393   .     A
C1160  H1172   1.085   .     S
C1160  C1163   1.394   .     A
C1160  C874    1.377   1_565 S
C1161  C1163   1.407   .     A
C1161  S1187   1.769   .     S
C1161  C871    1.375   1_565 S
C1162  C1164   1.407   .     A
C1162  S1192   1.770   .     S
C1165  O1197   1.376   .     S
C1165  N1176   1.374   .     A
C1166  N1175   1.373   .     A
C1166  O1199   1.375   .     S
C1166  C304    1.426   1_556 S
C1167  N1175   1.362   .     A
C1167  H1173   1.082   .     S
C1167  C301    1.426   1_556 S
C1168  N1176   1.362   .     A
C1168  H1174   1.082   .     S
H1169  C1205   1.086   .     S
H1170  C1254   1.086   1_455 S
N1175  Zn1185  2.019   .     S
N1176  Zn1186  2.019   .     S
O1177  Zn1185  2.005   .     S
O1178  Zn1186  2.005   .     S
O1179  Zn1186  1.991   .     S
O1180  Zn1185  1.991   .     S
O1181  Zn1185  1.975   .     S
O1182  Zn1186  1.975   .     S
O1183  Zn1186  1.978   .     S
O1184  Zn1185  1.978   .     S
S1187  O1188   1.502   .     D
S1187  O1189   1.504   .     D
S1187  O1190   1.678   .     S
O1190  H1191   0.991   .     S
S1192  O1194   1.504   .     D
S1192  O1193   1.501   .     D
S1192  O1195   1.682   .     S
O1195  H1196   0.991   .     S
O1197  H1198   0.992   .     S
O1199  H1200   0.992   .     S
C1201  O1225   1.285   .     A
C1201  C1212   1.419   .     S
C1201  O1227   1.288   .     A
C1202  O1228   1.288   .     A
C1202  C1211   1.420   .     S
C1202  O1226   1.285   .     A
C1203  O1231   1.281   .     A
C1203  O1229   1.283   .     A
C1203  C1205   1.400   .     S
C1204  O1232   1.280   .     A
C1204  C1206   1.400   .     S
C1204  O1230   1.283   .     A
C1206  C1253   1.325   .     S
C1206  H1266   1.086   .     S
C1207  H1219   1.085   .     S
C1207  C1212   1.393   .     A
C1208  H1220   1.085   .     S
C1208  C1211   1.394   .     A
C1208  C922    1.377   1_565 S
C1209  C1211   1.407   .     A
C1209  S1235   1.769   .     S
C1209  C919    1.375   1_565 S
C1210  C1212   1.407   .     A
C1210  S1240   1.770   .     S
C1213  O1245   1.376   .     S
C1213  N1224   1.374   .     A
C1214  N1223   1.373   .     A
C1214  O1247   1.375   .     S
C1214  C352    1.426   1_556 S
C1215  N1223   1.362   .     A
C1215  H1221   1.082   .     S
C1215  C349    1.426   1_556 S
C1216  N1224   1.362   .     A
C1216  H1222   1.082   .     S
H1217  C1253   1.086   .     S
N1223  Zn1233  2.019   .     S
N1224  Zn1234  2.019   .     S
O1225  Zn1233  2.005   .     S
O1226  Zn1234  2.005   .     S
O1227  Zn1234  1.991   .     S
O1228  Zn1233  1.991   .     S
O1229  Zn1233  1.975   .     S
O1230  Zn1234  1.975   .     S
O1231  Zn1234  1.978   .     S
O1232  Zn1233  1.978   .     S
S1235  O1236   1.502   .     D
S1235  O1237   1.504   .     D
S1235  O1238   1.678   .     S
O1238  H1239   0.991   .     S
S1240  O1242   1.504   .     D
S1240  O1241   1.501   .     D
S1240  O1243   1.682   .     S
O1243  H1244   0.991   .     S
O1245  H1246   0.992   .     S
O1247  H1248   0.992   .     S
C1249  O1273   1.285   .     A
C1249  C1260   1.419   .     S
C1249  O1275   1.288   .     A
C1250  O1276   1.288   .     A
C1250  C1259   1.420   .     S
C1250  O1274   1.285   .     A
C1251  O1279   1.281   .     A
C1251  O1277   1.283   .     A
C1251  C1253   1.400   .     S
C1252  O1280   1.280   .     A
C1252  C1254   1.400   .     S
C1252  O1278   1.283   .     A
C1254  C1157   1.325   1_655 S
C1254  H1170   1.086   1_655 S
C1255  H1267   1.085   .     S
C1255  C1260   1.393   .     A
C1256  H1268   1.085   .     S
C1256  C1259   1.394   .     A
C1256  C970    1.377   1_565 S
C1257  C1259   1.407   .     A
C1257  S1283   1.769   .     S
C1257  C967    1.375   1_565 S
C1258  C1260   1.407   .     A
C1258  S1288   1.770   .     S
C1261  O1293   1.376   .     S
C1261  N1272   1.374   .     A
C1262  N1271   1.373   .     A
C1262  O1295   1.375   .     S
C1262  C400    1.426   1_556 S
C1263  N1271   1.362   .     A
C1263  H1269   1.082   .     S
C1263  C397    1.426   1_556 S
C1264  N1272   1.362   .     A
C1264  H1270   1.082   .     S
H1265  C1157   1.086   1_655 S
N1271  Zn1281  2.019   .     S
N1272  Zn1282  2.019   .     S
O1273  Zn1281  2.005   .     S
O1274  Zn1282  2.005   .     S
O1275  Zn1282  1.991   .     S
O1276  Zn1281  1.991   .     S
O1277  Zn1281  1.975   .     S
O1278  Zn1282  1.975   .     S
O1279  Zn1282  1.978   .     S
O1280  Zn1281  1.978   .     S
S1283  O1284   1.502   .     D
S1283  O1285   1.504   .     D
S1283  O1286   1.678   .     S
O1286  H1287   0.991   .     S
S1288  O1290   1.504   .     D
S1288  O1289   1.501   .     D
S1288  O1291   1.682   .     S
O1291  H1292   0.991   .     S
O1293  H1294   0.992   .     S
O1295  H1296   0.992   .     S
