data_str_m3_o1_o17_pcu_sym.116
_audit_creation_date              2020-01-03
_audit_creation_method            'Materials Studio'
_symmetry_space_group_name_H-M    'P1'
_symmetry_Int_Tables_number       1
_symmetry_cell_setting            triclinic
loop_
_symmetry_equiv_pos_as_xyz
  x,y,z
_cell_length_a                    32.1790
_cell_length_b                    29.8675
_cell_length_c                    29.9145
_cell_angle_alpha                 89.9286
_cell_angle_beta                  92.6638
_cell_angle_gamma                 89.8897
loop_
_atom_site_label
_atom_site_type_symbol
_atom_site_fract_x
_atom_site_fract_y
_atom_site_fract_z
_atom_site_U_iso_or_equiv
_atom_site_adp_type
_atom_site_occupancy
C1     C     0.08695   0.16670   0.25414   0.00000  Uiso   1.00
C2     C     0.24638   0.16663   0.24586   0.00000  Uiso   1.00
C3     C     0.09143   0.16051   0.02029   0.00000  Uiso   1.00
C4     C     0.24191   0.17282   0.47971   0.00000  Uiso   1.00
C5     C     0.02093   0.12574   0.25684   0.00000  Uiso   1.00
C6     C     0.31241   0.20760   0.24317   0.00000  Uiso   1.00
C7     C     0.31261   0.12561   0.24401   0.00000  Uiso   1.00
C8     C     0.02072   0.20773   0.25599   0.00000  Uiso   1.00
C9     C     0.29085   0.16658   0.24163   0.00000  Uiso   1.00
C10    C     0.04248   0.16676   0.25837   0.00000  Uiso   1.00
C11    C     0.19239   0.02379   0.27939   0.00000  Uiso   1.00
C12    C     0.14095   0.30954   0.22061   0.00000  Uiso   1.00
C13    C     0.14092   0.02398   0.22063   0.00000  Uiso   1.00
C14    C     0.19241   0.30936   0.27937   0.00000  Uiso   1.00
C15    C     0.16643   0.16669   0.16376   0.00000  Uiso   1.00
C16    C     0.16690   0.16664   0.33624   0.00000  Uiso   1.00
C17    C     0.20440   0.16669   0.40823   0.00000  Uiso   1.00
C18    C     0.12894   0.16664   0.09177   0.00000  Uiso   1.00
C19    C     0.16649   0.16655   0.38387   0.00000  Uiso   1.00
C20    C     0.16685   0.16679   0.11613   0.00000  Uiso   1.00
C21    C     0.12821   0.16689   0.40416   0.00000  Uiso   1.00
C22    C     0.20512   0.16644   0.09584   0.00000  Uiso   1.00
C23    C     0.12756   0.16391   0.45112   0.00000  Uiso   1.00
C24    C     0.20578   0.16942   0.04888   0.00000  Uiso   1.00
C25    C     0.16628   0.16638   0.47644   0.00000  Uiso   1.00
C26    C     0.16705   0.16695   0.02356   0.00000  Uiso   1.00
C27    C     0.20441   0.16831   0.45473   0.00000  Uiso   1.00
C28    C     0.12893   0.16502   0.04527   0.00000  Uiso   1.00
C29    C     0.09025   0.15880   0.47411   0.00000  Uiso   1.00
C30    C     0.24308   0.17453   0.02589   0.00000  Uiso   1.00
H31    H     0.06225   0.15686   0.03647   0.00000  Uiso   1.00
H32    H     0.27108   0.17646   0.46353   0.00000  Uiso   1.00
N33    N     0.16667   0.28573   0.25000   0.00000  Uiso   1.00
N34    N     0.16667   0.04760   0.25000   0.00000  Uiso   1.00
O35    O     0.10559   0.20487   0.25000   0.00000  Uiso   1.00
O36    O     0.22774   0.12846   0.25000   0.00000  Uiso   1.00
O37    O     0.22774   0.20487   0.25001   0.00000  Uiso   1.00
O38    O     0.10559   0.12846   0.24999   0.00000  Uiso   1.00
O39    O     0.16666   0.20489   0.18393   0.00000  Uiso   1.00
O40    O     0.16667   0.12844   0.31607   0.00000  Uiso   1.00
O41    O     0.16667   0.20489   0.31608   0.00000  Uiso   1.00
O42    O     0.16666   0.12844   0.18392   0.00000  Uiso   1.00
Zn43   Zn    0.16667   0.21771   0.25000   0.00000  Uiso   1.00
Zn44   Zn    0.16667   0.11563   0.25000   0.00000  Uiso   1.00
Cl45   Cl    0.25168   0.16601   0.37962   0.00000  Uiso   1.00
Cl46   Cl    0.08165   0.16732   0.12038   0.00000  Uiso   1.00
Cl47   Cl    0.08296   0.17610   0.36905   0.00000  Uiso   1.00
Cl48   Cl    0.25037   0.15724   0.13096   0.00000  Uiso   1.00
Cl49   Cl    0.04092   0.14515   0.44945   0.00000  Uiso   1.00
Cl50   Cl    0.29242   0.18817   0.05055   0.00000  Uiso   1.00
Cl51   Cl    0.04345   0.07442   0.27603   0.00000  Uiso   1.00
Cl52   Cl    0.28988   0.25891   0.22397   0.00000  Uiso   1.00
Cl53   Cl    0.29042   0.07395   0.22577   0.00000  Uiso   1.00
Cl54   Cl    0.04292   0.25938   0.27423   0.00000  Uiso   1.00
I55    I     0.23313   0.05785   0.32626   0.00000  Uiso   1.00
I56    I     0.10020   0.27548   0.17374   0.00000  Uiso   1.00
I57    I     0.09993   0.05833   0.17397   0.00000  Uiso   1.00
I58    I     0.23340   0.27501   0.32603   0.00000  Uiso   1.00
C59    C     0.42029   0.16670   0.25414   0.00000  Uiso   1.00
C60    C     0.57971   0.16663   0.24586   0.00000  Uiso   1.00
C61    C     0.42476   0.16051   0.02029   0.00000  Uiso   1.00
C62    C     0.57524   0.17282   0.47971   0.00000  Uiso   1.00
C63    C     0.35426   0.12574   0.25684   0.00000  Uiso   1.00
C64    C     0.64574   0.20760   0.24317   0.00000  Uiso   1.00
C65    C     0.64595   0.12561   0.24401   0.00000  Uiso   1.00
C66    C     0.35405   0.20773   0.25599   0.00000  Uiso   1.00
C67    C     0.62419   0.16658   0.24163   0.00000  Uiso   1.00
C68    C     0.37581   0.16676   0.25837   0.00000  Uiso   1.00
C69    C     0.52572   0.02379   0.27939   0.00000  Uiso   1.00
C70    C     0.47428   0.30954   0.22061   0.00000  Uiso   1.00
C71    C     0.47426   0.02398   0.22063   0.00000  Uiso   1.00
C72    C     0.52574   0.30936   0.27937   0.00000  Uiso   1.00
C73    C     0.49977   0.16669   0.16376   0.00000  Uiso   1.00
C74    C     0.50023   0.16664   0.33624   0.00000  Uiso   1.00
C75    C     0.53773   0.16669   0.40823   0.00000  Uiso   1.00
C76    C     0.46227   0.16664   0.09177   0.00000  Uiso   1.00
C77    C     0.49982   0.16655   0.38387   0.00000  Uiso   1.00
C78    C     0.50018   0.16679   0.11613   0.00000  Uiso   1.00
C79    C     0.46155   0.16689   0.40416   0.00000  Uiso   1.00
C80    C     0.53845   0.16644   0.09584   0.00000  Uiso   1.00
C81    C     0.46089   0.16391   0.45112   0.00000  Uiso   1.00
C82    C     0.53911   0.16942   0.04888   0.00000  Uiso   1.00
C83    C     0.49962   0.16638   0.47644   0.00000  Uiso   1.00
C84    C     0.50038   0.16695   0.02356   0.00000  Uiso   1.00
C85    C     0.53774   0.16831   0.45473   0.00000  Uiso   1.00
C86    C     0.46226   0.16502   0.04527   0.00000  Uiso   1.00
C87    C     0.42359   0.15880   0.47411   0.00000  Uiso   1.00
C88    C     0.57641   0.17453   0.02589   0.00000  Uiso   1.00
H89    H     0.39558   0.15686   0.03647   0.00000  Uiso   1.00
H90    H     0.60442   0.17646   0.46353   0.00000  Uiso   1.00
N91    N     0.50000   0.28573   0.25000   0.00000  Uiso   1.00
N92    N     0.50000   0.04760   0.25000   0.00000  Uiso   1.00
O93    O     0.43892   0.20487   0.25000   0.00000  Uiso   1.00
O94    O     0.56108   0.12846   0.25000   0.00000  Uiso   1.00
O95    O     0.56108   0.20487   0.25001   0.00000  Uiso   1.00
O96    O     0.43892   0.12846   0.24999   0.00000  Uiso   1.00
O97    O     0.49999   0.20489   0.18393   0.00000  Uiso   1.00
O98    O     0.50001   0.12844   0.31607   0.00000  Uiso   1.00
O99    O     0.50001   0.20489   0.31608   0.00000  Uiso   1.00
O100   O     0.49999   0.12844   0.18392   0.00000  Uiso   1.00
Zn101  Zn    0.50000   0.21771   0.25000   0.00000  Uiso   1.00
Zn102  Zn    0.50000   0.11563   0.25000   0.00000  Uiso   1.00
Cl103  Cl    0.58501   0.16601   0.37962   0.00000  Uiso   1.00
Cl104  Cl    0.41499   0.16732   0.12038   0.00000  Uiso   1.00
Cl105  Cl    0.41630   0.17610   0.36905   0.00000  Uiso   1.00
Cl106  Cl    0.58370   0.15724   0.13096   0.00000  Uiso   1.00
Cl107  Cl    0.37425   0.14515   0.44945   0.00000  Uiso   1.00
Cl108  Cl    0.62575   0.18817   0.05055   0.00000  Uiso   1.00
Cl109  Cl    0.37678   0.07442   0.27603   0.00000  Uiso   1.00
Cl110  Cl    0.62322   0.25891   0.22397   0.00000  Uiso   1.00
Cl111  Cl    0.62375   0.07395   0.22577   0.00000  Uiso   1.00
Cl112  Cl    0.37625   0.25938   0.27423   0.00000  Uiso   1.00
I113   I     0.56647   0.05785   0.32626   0.00000  Uiso   1.00
I114   I     0.43353   0.27548   0.17374   0.00000  Uiso   1.00
I115   I     0.43327   0.05833   0.17397   0.00000  Uiso   1.00
I116   I     0.56673   0.27501   0.32603   0.00000  Uiso   1.00
C117   C     0.75362   0.16670   0.25414   0.00000  Uiso   1.00
C118   C     0.91305   0.16663   0.24586   0.00000  Uiso   1.00
C119   C     0.75809   0.16051   0.02029   0.00000  Uiso   1.00
C120   C     0.90857   0.17282   0.47971   0.00000  Uiso   1.00
C121   C     0.68759   0.12574   0.25684   0.00000  Uiso   1.00
C122   C     0.97907   0.20760   0.24317   0.00000  Uiso   1.00
C123   C     0.97928   0.12561   0.24401   0.00000  Uiso   1.00
C124   C     0.68739   0.20773   0.25599   0.00000  Uiso   1.00
C125   C     0.95752   0.16658   0.24163   0.00000  Uiso   1.00
C126   C     0.70915   0.16676   0.25837   0.00000  Uiso   1.00
C127   C     0.85905   0.02379   0.27939   0.00000  Uiso   1.00
C128   C     0.80761   0.30954   0.22061   0.00000  Uiso   1.00
C129   C     0.80759   0.02398   0.22063   0.00000  Uiso   1.00
C130   C     0.85908   0.30936   0.27937   0.00000  Uiso   1.00
C131   C     0.83310   0.16669   0.16376   0.00000  Uiso   1.00
C132   C     0.83357   0.16664   0.33624   0.00000  Uiso   1.00
C133   C     0.87106   0.16669   0.40823   0.00000  Uiso   1.00
C134   C     0.79560   0.16664   0.09177   0.00000  Uiso   1.00
C135   C     0.83315   0.16655   0.38387   0.00000  Uiso   1.00
C136   C     0.83351   0.16679   0.11613   0.00000  Uiso   1.00
C137   C     0.79488   0.16689   0.40416   0.00000  Uiso   1.00
C138   C     0.87179   0.16644   0.09584   0.00000  Uiso   1.00
C139   C     0.79422   0.16391   0.45112   0.00000  Uiso   1.00
C140   C     0.87244   0.16942   0.04888   0.00000  Uiso   1.00
C141   C     0.83295   0.16638   0.47644   0.00000  Uiso   1.00
C142   C     0.83372   0.16695   0.02356   0.00000  Uiso   1.00
C143   C     0.87107   0.16831   0.45473   0.00000  Uiso   1.00
C144   C     0.79560   0.16502   0.04527   0.00000  Uiso   1.00
C145   C     0.75692   0.15880   0.47411   0.00000  Uiso   1.00
C146   C     0.90975   0.17453   0.02589   0.00000  Uiso   1.00
H147   H     0.72892   0.15686   0.03647   0.00000  Uiso   1.00
H148   H     0.93775   0.17646   0.46353   0.00000  Uiso   1.00
N149   N     0.83333   0.28573   0.25000   0.00000  Uiso   1.00
N150   N     0.83333   0.04760   0.25000   0.00000  Uiso   1.00
O151   O     0.77226   0.20487   0.25000   0.00000  Uiso   1.00
O152   O     0.89441   0.12846   0.25000   0.00000  Uiso   1.00
O153   O     0.89441   0.20487   0.25001   0.00000  Uiso   1.00
O154   O     0.77226   0.12846   0.24999   0.00000  Uiso   1.00
O155   O     0.83333   0.20489   0.18393   0.00000  Uiso   1.00
O156   O     0.83334   0.12844   0.31607   0.00000  Uiso   1.00
O157   O     0.83334   0.20489   0.31608   0.00000  Uiso   1.00
O158   O     0.83333   0.12844   0.18392   0.00000  Uiso   1.00
Zn159  Zn    0.83333   0.21771   0.25000   0.00000  Uiso   1.00
Zn160  Zn    0.83333   0.11563   0.25000   0.00000  Uiso   1.00
Cl161  Cl    0.91835   0.16601   0.37962   0.00000  Uiso   1.00
Cl162  Cl    0.74832   0.16732   0.12038   0.00000  Uiso   1.00
Cl163  Cl    0.74963   0.17610   0.36905   0.00000  Uiso   1.00
Cl164  Cl    0.91704   0.15724   0.13096   0.00000  Uiso   1.00
Cl165  Cl    0.70759   0.14515   0.44945   0.00000  Uiso   1.00
Cl166  Cl    0.95908   0.18817   0.05055   0.00000  Uiso   1.00
Cl167  Cl    0.71012   0.07442   0.27603   0.00000  Uiso   1.00
Cl168  Cl    0.95655   0.25891   0.22397   0.00000  Uiso   1.00
Cl169  Cl    0.95708   0.07395   0.22577   0.00000  Uiso   1.00
Cl170  Cl    0.70958   0.25938   0.27423   0.00000  Uiso   1.00
I171   I     0.89980   0.05785   0.32626   0.00000  Uiso   1.00
I172   I     0.76687   0.27548   0.17374   0.00000  Uiso   1.00
I173   I     0.76660   0.05833   0.17397   0.00000  Uiso   1.00
I174   I     0.90006   0.27501   0.32603   0.00000  Uiso   1.00
C175   C     0.08695   0.50003   0.25414   0.00000  Uiso   1.00
C176   C     0.24638   0.49997   0.24586   0.00000  Uiso   1.00
C177   C     0.09143   0.49384   0.02029   0.00000  Uiso   1.00
C178   C     0.24191   0.50615   0.47971   0.00000  Uiso   1.00
C179   C     0.02093   0.45907   0.25684   0.00000  Uiso   1.00
C180   C     0.31241   0.54093   0.24317   0.00000  Uiso   1.00
C181   C     0.31261   0.45894   0.24401   0.00000  Uiso   1.00
C182   C     0.02072   0.54106   0.25599   0.00000  Uiso   1.00
C183   C     0.29085   0.49991   0.24163   0.00000  Uiso   1.00
C184   C     0.04248   0.50009   0.25837   0.00000  Uiso   1.00
C185   C     0.19239   0.35712   0.27939   0.00000  Uiso   1.00
C186   C     0.14095   0.64288   0.22061   0.00000  Uiso   1.00
C187   C     0.14092   0.35731   0.22063   0.00000  Uiso   1.00
C188   C     0.19241   0.64269   0.27937   0.00000  Uiso   1.00
C189   C     0.16643   0.50003   0.16376   0.00000  Uiso   1.00
C190   C     0.16690   0.49997   0.33624   0.00000  Uiso   1.00
C191   C     0.20440   0.50003   0.40823   0.00000  Uiso   1.00
C192   C     0.12894   0.49997   0.09177   0.00000  Uiso   1.00
C193   C     0.16649   0.49988   0.38387   0.00000  Uiso   1.00
C194   C     0.16685   0.50012   0.11613   0.00000  Uiso   1.00
C195   C     0.12821   0.50023   0.40416   0.00000  Uiso   1.00
C196   C     0.20512   0.49977   0.09584   0.00000  Uiso   1.00
C197   C     0.12756   0.49724   0.45112   0.00000  Uiso   1.00
C198   C     0.20578   0.50275   0.04888   0.00000  Uiso   1.00
C199   C     0.16628   0.49972   0.47644   0.00000  Uiso   1.00
C200   C     0.16705   0.50028   0.02356   0.00000  Uiso   1.00
C201   C     0.20441   0.50165   0.45473   0.00000  Uiso   1.00
C202   C     0.12893   0.49835   0.04527   0.00000  Uiso   1.00
C203   C     0.09025   0.49213   0.47411   0.00000  Uiso   1.00
C204   C     0.24308   0.50786   0.02589   0.00000  Uiso   1.00
H205   H     0.06225   0.49019   0.03647   0.00000  Uiso   1.00
H206   H     0.27108   0.50980   0.46353   0.00000  Uiso   1.00
N207   N     0.16667   0.61907   0.25000   0.00000  Uiso   1.00
N208   N     0.16667   0.38093   0.25000   0.00000  Uiso   1.00
O209   O     0.10559   0.53821   0.25000   0.00000  Uiso   1.00
O210   O     0.22774   0.46179   0.25000   0.00000  Uiso   1.00
O211   O     0.22774   0.53821   0.25001   0.00000  Uiso   1.00
O212   O     0.10559   0.46179   0.24999   0.00000  Uiso   1.00
O213   O     0.16666   0.53823   0.18393   0.00000  Uiso   1.00
O214   O     0.16667   0.46177   0.31607   0.00000  Uiso   1.00
O215   O     0.16667   0.53823   0.31608   0.00000  Uiso   1.00
O216   O     0.16666   0.46177   0.18392   0.00000  Uiso   1.00
Zn217  Zn    0.16667   0.55104   0.25000   0.00000  Uiso   1.00
Zn218  Zn    0.16667   0.44896   0.25000   0.00000  Uiso   1.00
Cl219  Cl    0.25168   0.49935   0.37962   0.00000  Uiso   1.00
Cl220  Cl    0.08165   0.50065   0.12038   0.00000  Uiso   1.00
Cl221  Cl    0.08296   0.50943   0.36905   0.00000  Uiso   1.00
Cl222  Cl    0.25037   0.49057   0.13096   0.00000  Uiso   1.00
Cl223  Cl    0.04092   0.47849   0.44945   0.00000  Uiso   1.00
Cl224  Cl    0.29242   0.52150   0.05055   0.00000  Uiso   1.00
Cl225  Cl    0.04345   0.40776   0.27603   0.00000  Uiso   1.00
Cl226  Cl    0.28988   0.59224   0.22397   0.00000  Uiso   1.00
Cl227  Cl    0.29042   0.40729   0.22577   0.00000  Uiso   1.00
Cl228  Cl    0.04292   0.59271   0.27423   0.00000  Uiso   1.00
I229   I     0.23313   0.39118   0.32626   0.00000  Uiso   1.00
I230   I     0.10020   0.60882   0.17374   0.00000  Uiso   1.00
I231   I     0.09993   0.39166   0.17397   0.00000  Uiso   1.00
I232   I     0.23340   0.60834   0.32603   0.00000  Uiso   1.00
C233   C     0.42029   0.50003   0.25414   0.00000  Uiso   1.00
C234   C     0.57971   0.49997   0.24586   0.00000  Uiso   1.00
C235   C     0.42476   0.49384   0.02029   0.00000  Uiso   1.00
C236   C     0.57524   0.50615   0.47971   0.00000  Uiso   1.00
C237   C     0.35426   0.45907   0.25684   0.00000  Uiso   1.00
C238   C     0.64574   0.54093   0.24317   0.00000  Uiso   1.00
C239   C     0.64595   0.45894   0.24401   0.00000  Uiso   1.00
C240   C     0.35405   0.54106   0.25599   0.00000  Uiso   1.00
C241   C     0.62419   0.49991   0.24163   0.00000  Uiso   1.00
C242   C     0.37581   0.50009   0.25837   0.00000  Uiso   1.00
C243   C     0.52572   0.35712   0.27939   0.00000  Uiso   1.00
C244   C     0.47428   0.64288   0.22061   0.00000  Uiso   1.00
C245   C     0.47426   0.35731   0.22063   0.00000  Uiso   1.00
C246   C     0.52574   0.64269   0.27937   0.00000  Uiso   1.00
C247   C     0.49977   0.50003   0.16376   0.00000  Uiso   1.00
C248   C     0.50023   0.49997   0.33624   0.00000  Uiso   1.00
C249   C     0.53773   0.50003   0.40823   0.00000  Uiso   1.00
C250   C     0.46227   0.49997   0.09177   0.00000  Uiso   1.00
C251   C     0.49982   0.49988   0.38387   0.00000  Uiso   1.00
C252   C     0.50018   0.50012   0.11613   0.00000  Uiso   1.00
C253   C     0.46155   0.50023   0.40416   0.00000  Uiso   1.00
C254   C     0.53845   0.49977   0.09584   0.00000  Uiso   1.00
C255   C     0.46089   0.49724   0.45112   0.00000  Uiso   1.00
C256   C     0.53911   0.50275   0.04888   0.00000  Uiso   1.00
C257   C     0.49962   0.49972   0.47644   0.00000  Uiso   1.00
C258   C     0.50038   0.50028   0.02356   0.00000  Uiso   1.00
C259   C     0.53774   0.50165   0.45473   0.00000  Uiso   1.00
C260   C     0.46226   0.49835   0.04527   0.00000  Uiso   1.00
C261   C     0.42359   0.49213   0.47411   0.00000  Uiso   1.00
C262   C     0.57641   0.50786   0.02589   0.00000  Uiso   1.00
H263   H     0.39558   0.49019   0.03647   0.00000  Uiso   1.00
H264   H     0.60442   0.50980   0.46353   0.00000  Uiso   1.00
N265   N     0.50000   0.61907   0.25000   0.00000  Uiso   1.00
N266   N     0.50000   0.38093   0.25000   0.00000  Uiso   1.00
O267   O     0.43892   0.53821   0.25000   0.00000  Uiso   1.00
O268   O     0.56108   0.46179   0.25000   0.00000  Uiso   1.00
O269   O     0.56108   0.53821   0.25001   0.00000  Uiso   1.00
O270   O     0.43892   0.46179   0.24999   0.00000  Uiso   1.00
O271   O     0.49999   0.53823   0.18393   0.00000  Uiso   1.00
O272   O     0.50001   0.46177   0.31607   0.00000  Uiso   1.00
O273   O     0.50001   0.53823   0.31608   0.00000  Uiso   1.00
O274   O     0.49999   0.46177   0.18392   0.00000  Uiso   1.00
Zn275  Zn    0.50000   0.55104   0.25000   0.00000  Uiso   1.00
Zn276  Zn    0.50000   0.44896   0.25000   0.00000  Uiso   1.00
Cl277  Cl    0.58501   0.49935   0.37962   0.00000  Uiso   1.00
Cl278  Cl    0.41499   0.50065   0.12038   0.00000  Uiso   1.00
Cl279  Cl    0.41630   0.50943   0.36905   0.00000  Uiso   1.00
Cl280  Cl    0.58370   0.49057   0.13096   0.00000  Uiso   1.00
Cl281  Cl    0.37425   0.47849   0.44945   0.00000  Uiso   1.00
Cl282  Cl    0.62575   0.52150   0.05055   0.00000  Uiso   1.00
Cl283  Cl    0.37678   0.40776   0.27603   0.00000  Uiso   1.00
Cl284  Cl    0.62322   0.59224   0.22397   0.00000  Uiso   1.00
Cl285  Cl    0.62375   0.40729   0.22577   0.00000  Uiso   1.00
Cl286  Cl    0.37625   0.59271   0.27423   0.00000  Uiso   1.00
I287   I     0.56647   0.39118   0.32626   0.00000  Uiso   1.00
I288   I     0.43353   0.60882   0.17374   0.00000  Uiso   1.00
I289   I     0.43327   0.39166   0.17397   0.00000  Uiso   1.00
I290   I     0.56673   0.60834   0.32603   0.00000  Uiso   1.00
C291   C     0.75362   0.50003   0.25414   0.00000  Uiso   1.00
C292   C     0.91305   0.49997   0.24586   0.00000  Uiso   1.00
C293   C     0.75809   0.49384   0.02029   0.00000  Uiso   1.00
C294   C     0.90857   0.50615   0.47971   0.00000  Uiso   1.00
C295   C     0.68759   0.45907   0.25684   0.00000  Uiso   1.00
C296   C     0.97907   0.54093   0.24317   0.00000  Uiso   1.00
C297   C     0.97928   0.45894   0.24401   0.00000  Uiso   1.00
C298   C     0.68739   0.54106   0.25599   0.00000  Uiso   1.00
C299   C     0.95752   0.49991   0.24163   0.00000  Uiso   1.00
C300   C     0.70915   0.50009   0.25837   0.00000  Uiso   1.00
C301   C     0.85905   0.35712   0.27939   0.00000  Uiso   1.00
C302   C     0.80761   0.64288   0.22061   0.00000  Uiso   1.00
C303   C     0.80759   0.35731   0.22063   0.00000  Uiso   1.00
C304   C     0.85908   0.64269   0.27937   0.00000  Uiso   1.00
C305   C     0.83310   0.50003   0.16376   0.00000  Uiso   1.00
C306   C     0.83357   0.49997   0.33624   0.00000  Uiso   1.00
C307   C     0.87106   0.50003   0.40823   0.00000  Uiso   1.00
C308   C     0.79560   0.49997   0.09177   0.00000  Uiso   1.00
C309   C     0.83315   0.49988   0.38387   0.00000  Uiso   1.00
C310   C     0.83351   0.50012   0.11613   0.00000  Uiso   1.00
C311   C     0.79488   0.50023   0.40416   0.00000  Uiso   1.00
C312   C     0.87179   0.49977   0.09584   0.00000  Uiso   1.00
C313   C     0.79422   0.49724   0.45112   0.00000  Uiso   1.00
C314   C     0.87244   0.50275   0.04888   0.00000  Uiso   1.00
C315   C     0.83295   0.49972   0.47644   0.00000  Uiso   1.00
C316   C     0.83372   0.50028   0.02356   0.00000  Uiso   1.00
C317   C     0.87107   0.50165   0.45473   0.00000  Uiso   1.00
C318   C     0.79560   0.49835   0.04527   0.00000  Uiso   1.00
C319   C     0.75692   0.49213   0.47411   0.00000  Uiso   1.00
C320   C     0.90975   0.50786   0.02589   0.00000  Uiso   1.00
H321   H     0.72892   0.49019   0.03647   0.00000  Uiso   1.00
H322   H     0.93775   0.50980   0.46353   0.00000  Uiso   1.00
N323   N     0.83333   0.61907   0.25000   0.00000  Uiso   1.00
N324   N     0.83333   0.38093   0.25000   0.00000  Uiso   1.00
O325   O     0.77226   0.53821   0.25000   0.00000  Uiso   1.00
O326   O     0.89441   0.46179   0.25000   0.00000  Uiso   1.00
O327   O     0.89441   0.53821   0.25001   0.00000  Uiso   1.00
O328   O     0.77226   0.46179   0.24999   0.00000  Uiso   1.00
O329   O     0.83333   0.53823   0.18393   0.00000  Uiso   1.00
O330   O     0.83334   0.46177   0.31607   0.00000  Uiso   1.00
O331   O     0.83334   0.53823   0.31608   0.00000  Uiso   1.00
O332   O     0.83333   0.46177   0.18392   0.00000  Uiso   1.00
Zn333  Zn    0.83333   0.55104   0.25000   0.00000  Uiso   1.00
Zn334  Zn    0.83333   0.44896   0.25000   0.00000  Uiso   1.00
Cl335  Cl    0.91835   0.49935   0.37962   0.00000  Uiso   1.00
Cl336  Cl    0.74832   0.50065   0.12038   0.00000  Uiso   1.00
Cl337  Cl    0.74963   0.50943   0.36905   0.00000  Uiso   1.00
Cl338  Cl    0.91704   0.49057   0.13096   0.00000  Uiso   1.00
Cl339  Cl    0.70759   0.47849   0.44945   0.00000  Uiso   1.00
Cl340  Cl    0.95908   0.52150   0.05055   0.00000  Uiso   1.00
Cl341  Cl    0.71012   0.40776   0.27603   0.00000  Uiso   1.00
Cl342  Cl    0.95655   0.59224   0.22397   0.00000  Uiso   1.00
Cl343  Cl    0.95708   0.40729   0.22577   0.00000  Uiso   1.00
Cl344  Cl    0.70958   0.59271   0.27423   0.00000  Uiso   1.00
I345   I     0.89980   0.39118   0.32626   0.00000  Uiso   1.00
I346   I     0.76687   0.60882   0.17374   0.00000  Uiso   1.00
I347   I     0.76660   0.39166   0.17397   0.00000  Uiso   1.00
I348   I     0.90006   0.60834   0.32603   0.00000  Uiso   1.00
C349   C     0.08695   0.83337   0.25414   0.00000  Uiso   1.00
C350   C     0.24638   0.83330   0.24586   0.00000  Uiso   1.00
C351   C     0.09143   0.82718   0.02029   0.00000  Uiso   1.00
C352   C     0.24191   0.83948   0.47971   0.00000  Uiso   1.00
C353   C     0.02093   0.79240   0.25684   0.00000  Uiso   1.00
C354   C     0.31241   0.87426   0.24317   0.00000  Uiso   1.00
C355   C     0.31261   0.79227   0.24401   0.00000  Uiso   1.00
C356   C     0.02072   0.87439   0.25599   0.00000  Uiso   1.00
C357   C     0.29085   0.83324   0.24163   0.00000  Uiso   1.00
C358   C     0.04248   0.83342   0.25837   0.00000  Uiso   1.00
C359   C     0.19239   0.69046   0.27939   0.00000  Uiso   1.00
C360   C     0.14095   0.97621   0.22061   0.00000  Uiso   1.00
C361   C     0.14092   0.69064   0.22063   0.00000  Uiso   1.00
C362   C     0.19241   0.97602   0.27937   0.00000  Uiso   1.00
C363   C     0.16643   0.83336   0.16376   0.00000  Uiso   1.00
C364   C     0.16690   0.83331   0.33624   0.00000  Uiso   1.00
C365   C     0.20440   0.83336   0.40823   0.00000  Uiso   1.00
C366   C     0.12894   0.83331   0.09177   0.00000  Uiso   1.00
C367   C     0.16649   0.83321   0.38387   0.00000  Uiso   1.00
C368   C     0.16685   0.83345   0.11613   0.00000  Uiso   1.00
C369   C     0.12821   0.83356   0.40416   0.00000  Uiso   1.00
C370   C     0.20512   0.83310   0.09584   0.00000  Uiso   1.00
C371   C     0.12756   0.83058   0.45112   0.00000  Uiso   1.00
C372   C     0.20578   0.83609   0.04888   0.00000  Uiso   1.00
C373   C     0.16628   0.83305   0.47644   0.00000  Uiso   1.00
C374   C     0.16705   0.83361   0.02356   0.00000  Uiso   1.00
C375   C     0.20441   0.83498   0.45473   0.00000  Uiso   1.00
C376   C     0.12893   0.83168   0.04527   0.00000  Uiso   1.00
C377   C     0.09025   0.82546   0.47411   0.00000  Uiso   1.00
C378   C     0.24308   0.84120   0.02589   0.00000  Uiso   1.00
H379   H     0.06225   0.82353   0.03647   0.00000  Uiso   1.00
H380   H     0.27108   0.84313   0.46353   0.00000  Uiso   1.00
N381   N     0.16667   0.95240   0.25000   0.00000  Uiso   1.00
N382   N     0.16667   0.71427   0.25000   0.00000  Uiso   1.00
O383   O     0.10559   0.87154   0.25000   0.00000  Uiso   1.00
O384   O     0.22774   0.79513   0.25000   0.00000  Uiso   1.00
O385   O     0.22774   0.87154   0.25001   0.00000  Uiso   1.00
O386   O     0.10559   0.79513   0.24999   0.00000  Uiso   1.00
O387   O     0.16666   0.87156   0.18393   0.00000  Uiso   1.00
O388   O     0.16667   0.79511   0.31607   0.00000  Uiso   1.00
O389   O     0.16667   0.87156   0.31608   0.00000  Uiso   1.00
O390   O     0.16666   0.79511   0.18392   0.00000  Uiso   1.00
Zn391  Zn    0.16667   0.88437   0.25000   0.00000  Uiso   1.00
Zn392  Zn    0.16667   0.78229   0.25000   0.00000  Uiso   1.00
Cl393  Cl    0.25168   0.83268   0.37962   0.00000  Uiso   1.00
Cl394  Cl    0.08165   0.83399   0.12038   0.00000  Uiso   1.00
Cl395  Cl    0.08296   0.84276   0.36905   0.00000  Uiso   1.00
Cl396  Cl    0.25037   0.82391   0.13096   0.00000  Uiso   1.00
Cl397  Cl    0.04092   0.81182   0.44945   0.00000  Uiso   1.00
Cl398  Cl    0.29242   0.85483   0.05055   0.00000  Uiso   1.00
Cl399  Cl    0.04345   0.74109   0.27603   0.00000  Uiso   1.00
Cl400  Cl    0.28988   0.92558   0.22397   0.00000  Uiso   1.00
Cl401  Cl    0.29042   0.74062   0.22577   0.00000  Uiso   1.00
Cl402  Cl    0.04292   0.92605   0.27423   0.00000  Uiso   1.00
I403   I     0.23313   0.72452   0.32626   0.00000  Uiso   1.00
I404   I     0.10020   0.94215   0.17374   0.00000  Uiso   1.00
I405   I     0.09993   0.72499   0.17397   0.00000  Uiso   1.00
I406   I     0.23340   0.94167   0.32603   0.00000  Uiso   1.00
C407   C     0.42029   0.83337   0.25414   0.00000  Uiso   1.00
C408   C     0.57971   0.83330   0.24586   0.00000  Uiso   1.00
C409   C     0.42476   0.82718   0.02029   0.00000  Uiso   1.00
C410   C     0.57524   0.83948   0.47971   0.00000  Uiso   1.00
C411   C     0.35426   0.79240   0.25684   0.00000  Uiso   1.00
C412   C     0.64574   0.87426   0.24317   0.00000  Uiso   1.00
C413   C     0.64595   0.79227   0.24401   0.00000  Uiso   1.00
C414   C     0.35405   0.87439   0.25599   0.00000  Uiso   1.00
C415   C     0.62419   0.83324   0.24163   0.00000  Uiso   1.00
C416   C     0.37581   0.83342   0.25837   0.00000  Uiso   1.00
C417   C     0.52572   0.69046   0.27939   0.00000  Uiso   1.00
C418   C     0.47428   0.97621   0.22061   0.00000  Uiso   1.00
C419   C     0.47426   0.69064   0.22063   0.00000  Uiso   1.00
C420   C     0.52574   0.97602   0.27937   0.00000  Uiso   1.00
C421   C     0.49977   0.83336   0.16376   0.00000  Uiso   1.00
C422   C     0.50023   0.83331   0.33624   0.00000  Uiso   1.00
C423   C     0.53773   0.83336   0.40823   0.00000  Uiso   1.00
C424   C     0.46227   0.83331   0.09177   0.00000  Uiso   1.00
C425   C     0.49982   0.83321   0.38387   0.00000  Uiso   1.00
C426   C     0.50018   0.83345   0.11613   0.00000  Uiso   1.00
C427   C     0.46155   0.83356   0.40416   0.00000  Uiso   1.00
C428   C     0.53845   0.83310   0.09584   0.00000  Uiso   1.00
C429   C     0.46089   0.83058   0.45112   0.00000  Uiso   1.00
C430   C     0.53911   0.83609   0.04888   0.00000  Uiso   1.00
C431   C     0.49962   0.83305   0.47644   0.00000  Uiso   1.00
C432   C     0.50038   0.83361   0.02356   0.00000  Uiso   1.00
C433   C     0.53774   0.83498   0.45473   0.00000  Uiso   1.00
C434   C     0.46226   0.83168   0.04527   0.00000  Uiso   1.00
C435   C     0.42359   0.82546   0.47411   0.00000  Uiso   1.00
C436   C     0.57641   0.84120   0.02589   0.00000  Uiso   1.00
H437   H     0.39558   0.82353   0.03647   0.00000  Uiso   1.00
H438   H     0.60442   0.84313   0.46353   0.00000  Uiso   1.00
N439   N     0.50000   0.95240   0.25000   0.00000  Uiso   1.00
N440   N     0.50000   0.71427   0.25000   0.00000  Uiso   1.00
O441   O     0.43892   0.87154   0.25000   0.00000  Uiso   1.00
O442   O     0.56108   0.79513   0.25000   0.00000  Uiso   1.00
O443   O     0.56108   0.87154   0.25001   0.00000  Uiso   1.00
O444   O     0.43892   0.79513   0.24999   0.00000  Uiso   1.00
O445   O     0.49999   0.87156   0.18393   0.00000  Uiso   1.00
O446   O     0.50001   0.79511   0.31607   0.00000  Uiso   1.00
O447   O     0.50001   0.87156   0.31608   0.00000  Uiso   1.00
O448   O     0.49999   0.79511   0.18392   0.00000  Uiso   1.00
Zn449  Zn    0.50000   0.88437   0.25000   0.00000  Uiso   1.00
Zn450  Zn    0.50000   0.78229   0.25000   0.00000  Uiso   1.00
Cl451  Cl    0.58501   0.83268   0.37962   0.00000  Uiso   1.00
Cl452  Cl    0.41499   0.83399   0.12038   0.00000  Uiso   1.00
Cl453  Cl    0.41630   0.84276   0.36905   0.00000  Uiso   1.00
Cl454  Cl    0.58370   0.82391   0.13096   0.00000  Uiso   1.00
Cl455  Cl    0.37425   0.81182   0.44945   0.00000  Uiso   1.00
Cl456  Cl    0.62575   0.85483   0.05055   0.00000  Uiso   1.00
Cl457  Cl    0.37678   0.74109   0.27603   0.00000  Uiso   1.00
Cl458  Cl    0.62322   0.92558   0.22397   0.00000  Uiso   1.00
Cl459  Cl    0.62375   0.74062   0.22577   0.00000  Uiso   1.00
Cl460  Cl    0.37625   0.92605   0.27423   0.00000  Uiso   1.00
I461   I     0.56647   0.72452   0.32626   0.00000  Uiso   1.00
I462   I     0.43353   0.94215   0.17374   0.00000  Uiso   1.00
I463   I     0.43327   0.72499   0.17397   0.00000  Uiso   1.00
I464   I     0.56673   0.94167   0.32603   0.00000  Uiso   1.00
C465   C     0.75362   0.83337   0.25414   0.00000  Uiso   1.00
C466   C     0.91305   0.83330   0.24586   0.00000  Uiso   1.00
C467   C     0.75809   0.82718   0.02029   0.00000  Uiso   1.00
C468   C     0.90857   0.83948   0.47971   0.00000  Uiso   1.00
C469   C     0.68759   0.79240   0.25684   0.00000  Uiso   1.00
C470   C     0.97907   0.87426   0.24317   0.00000  Uiso   1.00
C471   C     0.97928   0.79227   0.24401   0.00000  Uiso   1.00
C472   C     0.68739   0.87439   0.25599   0.00000  Uiso   1.00
C473   C     0.95752   0.83324   0.24163   0.00000  Uiso   1.00
C474   C     0.70915   0.83342   0.25837   0.00000  Uiso   1.00
C475   C     0.85905   0.69046   0.27939   0.00000  Uiso   1.00
C476   C     0.80761   0.97621   0.22061   0.00000  Uiso   1.00
C477   C     0.80759   0.69064   0.22063   0.00000  Uiso   1.00
C478   C     0.85908   0.97602   0.27937   0.00000  Uiso   1.00
C479   C     0.83310   0.83336   0.16376   0.00000  Uiso   1.00
C480   C     0.83357   0.83331   0.33624   0.00000  Uiso   1.00
C481   C     0.87106   0.83336   0.40823   0.00000  Uiso   1.00
C482   C     0.79560   0.83331   0.09177   0.00000  Uiso   1.00
C483   C     0.83315   0.83321   0.38387   0.00000  Uiso   1.00
C484   C     0.83351   0.83345   0.11613   0.00000  Uiso   1.00
C485   C     0.79488   0.83356   0.40416   0.00000  Uiso   1.00
C486   C     0.87179   0.83310   0.09584   0.00000  Uiso   1.00
C487   C     0.79422   0.83058   0.45112   0.00000  Uiso   1.00
C488   C     0.87244   0.83609   0.04888   0.00000  Uiso   1.00
C489   C     0.83295   0.83305   0.47644   0.00000  Uiso   1.00
C490   C     0.83372   0.83361   0.02356   0.00000  Uiso   1.00
C491   C     0.87107   0.83498   0.45473   0.00000  Uiso   1.00
C492   C     0.79560   0.83168   0.04527   0.00000  Uiso   1.00
C493   C     0.75692   0.82546   0.47411   0.00000  Uiso   1.00
C494   C     0.90975   0.84120   0.02589   0.00000  Uiso   1.00
H495   H     0.72892   0.82353   0.03647   0.00000  Uiso   1.00
H496   H     0.93775   0.84313   0.46353   0.00000  Uiso   1.00
N497   N     0.83333   0.95240   0.25000   0.00000  Uiso   1.00
N498   N     0.83333   0.71427   0.25000   0.00000  Uiso   1.00
O499   O     0.77226   0.87154   0.25000   0.00000  Uiso   1.00
O500   O     0.89441   0.79513   0.25000   0.00000  Uiso   1.00
O501   O     0.89441   0.87154   0.25001   0.00000  Uiso   1.00
O502   O     0.77226   0.79513   0.24999   0.00000  Uiso   1.00
O503   O     0.83333   0.87156   0.18393   0.00000  Uiso   1.00
O504   O     0.83334   0.79511   0.31607   0.00000  Uiso   1.00
O505   O     0.83334   0.87156   0.31608   0.00000  Uiso   1.00
O506   O     0.83333   0.79511   0.18392   0.00000  Uiso   1.00
Zn507  Zn    0.83333   0.88437   0.25000   0.00000  Uiso   1.00
Zn508  Zn    0.83333   0.78229   0.25000   0.00000  Uiso   1.00
Cl509  Cl    0.91835   0.83268   0.37962   0.00000  Uiso   1.00
Cl510  Cl    0.74832   0.83399   0.12038   0.00000  Uiso   1.00
Cl511  Cl    0.74963   0.84276   0.36905   0.00000  Uiso   1.00
Cl512  Cl    0.91704   0.82391   0.13096   0.00000  Uiso   1.00
Cl513  Cl    0.70759   0.81182   0.44945   0.00000  Uiso   1.00
Cl514  Cl    0.95908   0.85483   0.05055   0.00000  Uiso   1.00
Cl515  Cl    0.71012   0.74109   0.27603   0.00000  Uiso   1.00
Cl516  Cl    0.95655   0.92558   0.22397   0.00000  Uiso   1.00
Cl517  Cl    0.95708   0.74062   0.22577   0.00000  Uiso   1.00
Cl518  Cl    0.70958   0.92605   0.27423   0.00000  Uiso   1.00
I519   I     0.89980   0.72452   0.32626   0.00000  Uiso   1.00
I520   I     0.76687   0.94215   0.17374   0.00000  Uiso   1.00
I521   I     0.76660   0.72499   0.17397   0.00000  Uiso   1.00
I522   I     0.90006   0.94167   0.32603   0.00000  Uiso   1.00
C523   C     0.08695   0.16670   0.75414   0.00000  Uiso   1.00
C524   C     0.24638   0.16663   0.74586   0.00000  Uiso   1.00
C525   C     0.09143   0.16051   0.52029   0.00000  Uiso   1.00
C526   C     0.24191   0.17282   0.97971   0.00000  Uiso   1.00
C527   C     0.02093   0.12574   0.75684   0.00000  Uiso   1.00
C528   C     0.31241   0.20760   0.74317   0.00000  Uiso   1.00
C529   C     0.31261   0.12561   0.74401   0.00000  Uiso   1.00
C530   C     0.02072   0.20773   0.75599   0.00000  Uiso   1.00
C531   C     0.29085   0.16658   0.74163   0.00000  Uiso   1.00
C532   C     0.04248   0.16676   0.75837   0.00000  Uiso   1.00
C533   C     0.19239   0.02379   0.77939   0.00000  Uiso   1.00
C534   C     0.14095   0.30954   0.72061   0.00000  Uiso   1.00
C535   C     0.14092   0.02398   0.72063   0.00000  Uiso   1.00
C536   C     0.19241   0.30936   0.77937   0.00000  Uiso   1.00
C537   C     0.16643   0.16669   0.66376   0.00000  Uiso   1.00
C538   C     0.16690   0.16664   0.83624   0.00000  Uiso   1.00
C539   C     0.20440   0.16669   0.90823   0.00000  Uiso   1.00
C540   C     0.12894   0.16664   0.59177   0.00000  Uiso   1.00
C541   C     0.16649   0.16655   0.88387   0.00000  Uiso   1.00
C542   C     0.16685   0.16679   0.61613   0.00000  Uiso   1.00
C543   C     0.12821   0.16689   0.90416   0.00000  Uiso   1.00
C544   C     0.20512   0.16644   0.59584   0.00000  Uiso   1.00
C545   C     0.12756   0.16391   0.95112   0.00000  Uiso   1.00
C546   C     0.20578   0.16942   0.54888   0.00000  Uiso   1.00
C547   C     0.16628   0.16638   0.97644   0.00000  Uiso   1.00
C548   C     0.16705   0.16695   0.52356   0.00000  Uiso   1.00
C549   C     0.20441   0.16831   0.95473   0.00000  Uiso   1.00
C550   C     0.12893   0.16502   0.54527   0.00000  Uiso   1.00
C551   C     0.09025   0.15880   0.97411   0.00000  Uiso   1.00
C552   C     0.24308   0.17453   0.52589   0.00000  Uiso   1.00
H553   H     0.06225   0.15686   0.53647   0.00000  Uiso   1.00
H554   H     0.27108   0.17646   0.96353   0.00000  Uiso   1.00
N555   N     0.16667   0.28573   0.75000   0.00000  Uiso   1.00
N556   N     0.16667   0.04760   0.75000   0.00000  Uiso   1.00
O557   O     0.10559   0.20487   0.75000   0.00000  Uiso   1.00
O558   O     0.22774   0.12846   0.75000   0.00000  Uiso   1.00
O559   O     0.22774   0.20487   0.75001   0.00000  Uiso   1.00
O560   O     0.10559   0.12846   0.74999   0.00000  Uiso   1.00
O561   O     0.16666   0.20489   0.68393   0.00000  Uiso   1.00
O562   O     0.16667   0.12844   0.81607   0.00000  Uiso   1.00
O563   O     0.16667   0.20489   0.81608   0.00000  Uiso   1.00
O564   O     0.16666   0.12844   0.68392   0.00000  Uiso   1.00
Zn565  Zn    0.16667   0.21771   0.75000   0.00000  Uiso   1.00
Zn566  Zn    0.16667   0.11563   0.75000   0.00000  Uiso   1.00
Cl567  Cl    0.25168   0.16601   0.87962   0.00000  Uiso   1.00
Cl568  Cl    0.08165   0.16732   0.62038   0.00000  Uiso   1.00
Cl569  Cl    0.08296   0.17610   0.86905   0.00000  Uiso   1.00
Cl570  Cl    0.25037   0.15724   0.63096   0.00000  Uiso   1.00
Cl571  Cl    0.04092   0.14515   0.94945   0.00000  Uiso   1.00
Cl572  Cl    0.29242   0.18817   0.55055   0.00000  Uiso   1.00
Cl573  Cl    0.04345   0.07442   0.77603   0.00000  Uiso   1.00
Cl574  Cl    0.28988   0.25891   0.72397   0.00000  Uiso   1.00
Cl575  Cl    0.29042   0.07395   0.72577   0.00000  Uiso   1.00
Cl576  Cl    0.04292   0.25938   0.77423   0.00000  Uiso   1.00
I577   I     0.23313   0.05785   0.82626   0.00000  Uiso   1.00
I578   I     0.10020   0.27548   0.67374   0.00000  Uiso   1.00
I579   I     0.09993   0.05833   0.67397   0.00000  Uiso   1.00
I580   I     0.23340   0.27501   0.82603   0.00000  Uiso   1.00
C581   C     0.42029   0.16670   0.75414   0.00000  Uiso   1.00
C582   C     0.57971   0.16663   0.74586   0.00000  Uiso   1.00
C583   C     0.42476   0.16051   0.52029   0.00000  Uiso   1.00
C584   C     0.57524   0.17282   0.97971   0.00000  Uiso   1.00
C585   C     0.35426   0.12574   0.75684   0.00000  Uiso   1.00
C586   C     0.64574   0.20760   0.74317   0.00000  Uiso   1.00
C587   C     0.64595   0.12561   0.74401   0.00000  Uiso   1.00
C588   C     0.35405   0.20773   0.75599   0.00000  Uiso   1.00
C589   C     0.62419   0.16658   0.74163   0.00000  Uiso   1.00
C590   C     0.37581   0.16676   0.75837   0.00000  Uiso   1.00
C591   C     0.52572   0.02379   0.77939   0.00000  Uiso   1.00
C592   C     0.47428   0.30954   0.72061   0.00000  Uiso   1.00
C593   C     0.47426   0.02398   0.72063   0.00000  Uiso   1.00
C594   C     0.52574   0.30936   0.77937   0.00000  Uiso   1.00
C595   C     0.49977   0.16669   0.66376   0.00000  Uiso   1.00
C596   C     0.50023   0.16664   0.83624   0.00000  Uiso   1.00
C597   C     0.53773   0.16669   0.90823   0.00000  Uiso   1.00
C598   C     0.46227   0.16664   0.59177   0.00000  Uiso   1.00
C599   C     0.49982   0.16655   0.88387   0.00000  Uiso   1.00
C600   C     0.50018   0.16679   0.61613   0.00000  Uiso   1.00
C601   C     0.46155   0.16689   0.90416   0.00000  Uiso   1.00
C602   C     0.53845   0.16644   0.59584   0.00000  Uiso   1.00
C603   C     0.46089   0.16391   0.95112   0.00000  Uiso   1.00
C604   C     0.53911   0.16942   0.54888   0.00000  Uiso   1.00
C605   C     0.49962   0.16638   0.97644   0.00000  Uiso   1.00
C606   C     0.50038   0.16695   0.52356   0.00000  Uiso   1.00
C607   C     0.53774   0.16831   0.95473   0.00000  Uiso   1.00
C608   C     0.46226   0.16502   0.54527   0.00000  Uiso   1.00
C609   C     0.42359   0.15880   0.97411   0.00000  Uiso   1.00
C610   C     0.57641   0.17453   0.52589   0.00000  Uiso   1.00
H611   H     0.39558   0.15686   0.53647   0.00000  Uiso   1.00
H612   H     0.60442   0.17646   0.96353   0.00000  Uiso   1.00
N613   N     0.50000   0.28573   0.75000   0.00000  Uiso   1.00
N614   N     0.50000   0.04760   0.75000   0.00000  Uiso   1.00
O615   O     0.43892   0.20487   0.75000   0.00000  Uiso   1.00
O616   O     0.56108   0.12846   0.75000   0.00000  Uiso   1.00
O617   O     0.56108   0.20487   0.75001   0.00000  Uiso   1.00
O618   O     0.43892   0.12846   0.74999   0.00000  Uiso   1.00
O619   O     0.49999   0.20489   0.68393   0.00000  Uiso   1.00
O620   O     0.50001   0.12844   0.81607   0.00000  Uiso   1.00
O621   O     0.50001   0.20489   0.81608   0.00000  Uiso   1.00
O622   O     0.49999   0.12844   0.68392   0.00000  Uiso   1.00
Zn623  Zn    0.50000   0.21771   0.75000   0.00000  Uiso   1.00
Zn624  Zn    0.50000   0.11563   0.75000   0.00000  Uiso   1.00
Cl625  Cl    0.58501   0.16601   0.87962   0.00000  Uiso   1.00
Cl626  Cl    0.41499   0.16732   0.62038   0.00000  Uiso   1.00
Cl627  Cl    0.41630   0.17610   0.86905   0.00000  Uiso   1.00
Cl628  Cl    0.58370   0.15724   0.63096   0.00000  Uiso   1.00
Cl629  Cl    0.37425   0.14515   0.94945   0.00000  Uiso   1.00
Cl630  Cl    0.62575   0.18817   0.55055   0.00000  Uiso   1.00
Cl631  Cl    0.37678   0.07442   0.77603   0.00000  Uiso   1.00
Cl632  Cl    0.62322   0.25891   0.72397   0.00000  Uiso   1.00
Cl633  Cl    0.62375   0.07395   0.72577   0.00000  Uiso   1.00
Cl634  Cl    0.37625   0.25938   0.77423   0.00000  Uiso   1.00
I635   I     0.56647   0.05785   0.82626   0.00000  Uiso   1.00
I636   I     0.43353   0.27548   0.67374   0.00000  Uiso   1.00
I637   I     0.43327   0.05833   0.67397   0.00000  Uiso   1.00
I638   I     0.56673   0.27501   0.82603   0.00000  Uiso   1.00
C639   C     0.75362   0.16670   0.75414   0.00000  Uiso   1.00
C640   C     0.91305   0.16663   0.74586   0.00000  Uiso   1.00
C641   C     0.75809   0.16051   0.52029   0.00000  Uiso   1.00
C642   C     0.90857   0.17282   0.97971   0.00000  Uiso   1.00
C643   C     0.68759   0.12574   0.75684   0.00000  Uiso   1.00
C644   C     0.97907   0.20760   0.74317   0.00000  Uiso   1.00
C645   C     0.97928   0.12561   0.74401   0.00000  Uiso   1.00
C646   C     0.68739   0.20773   0.75599   0.00000  Uiso   1.00
C647   C     0.95752   0.16658   0.74163   0.00000  Uiso   1.00
C648   C     0.70915   0.16676   0.75837   0.00000  Uiso   1.00
C649   C     0.85905   0.02379   0.77939   0.00000  Uiso   1.00
C650   C     0.80761   0.30954   0.72061   0.00000  Uiso   1.00
C651   C     0.80759   0.02398   0.72063   0.00000  Uiso   1.00
C652   C     0.85908   0.30936   0.77937   0.00000  Uiso   1.00
C653   C     0.83310   0.16669   0.66376   0.00000  Uiso   1.00
C654   C     0.83357   0.16664   0.83624   0.00000  Uiso   1.00
C655   C     0.87106   0.16669   0.90823   0.00000  Uiso   1.00
C656   C     0.79560   0.16664   0.59177   0.00000  Uiso   1.00
C657   C     0.83315   0.16655   0.88387   0.00000  Uiso   1.00
C658   C     0.83351   0.16679   0.61613   0.00000  Uiso   1.00
C659   C     0.79488   0.16689   0.90416   0.00000  Uiso   1.00
C660   C     0.87179   0.16644   0.59584   0.00000  Uiso   1.00
C661   C     0.79422   0.16391   0.95112   0.00000  Uiso   1.00
C662   C     0.87244   0.16942   0.54888   0.00000  Uiso   1.00
C663   C     0.83295   0.16638   0.97644   0.00000  Uiso   1.00
C664   C     0.83372   0.16695   0.52356   0.00000  Uiso   1.00
C665   C     0.87107   0.16831   0.95473   0.00000  Uiso   1.00
C666   C     0.79560   0.16502   0.54527   0.00000  Uiso   1.00
C667   C     0.75692   0.15880   0.97411   0.00000  Uiso   1.00
C668   C     0.90975   0.17453   0.52589   0.00000  Uiso   1.00
H669   H     0.72892   0.15686   0.53647   0.00000  Uiso   1.00
H670   H     0.93775   0.17646   0.96353   0.00000  Uiso   1.00
N671   N     0.83333   0.28573   0.75000   0.00000  Uiso   1.00
N672   N     0.83333   0.04760   0.75000   0.00000  Uiso   1.00
O673   O     0.77226   0.20487   0.75000   0.00000  Uiso   1.00
O674   O     0.89441   0.12846   0.75000   0.00000  Uiso   1.00
O675   O     0.89441   0.20487   0.75001   0.00000  Uiso   1.00
O676   O     0.77226   0.12846   0.74999   0.00000  Uiso   1.00
O677   O     0.83333   0.20489   0.68393   0.00000  Uiso   1.00
O678   O     0.83334   0.12844   0.81607   0.00000  Uiso   1.00
O679   O     0.83334   0.20489   0.81608   0.00000  Uiso   1.00
O680   O     0.83333   0.12844   0.68392   0.00000  Uiso   1.00
Zn681  Zn    0.83333   0.21771   0.75000   0.00000  Uiso   1.00
Zn682  Zn    0.83333   0.11563   0.75000   0.00000  Uiso   1.00
Cl683  Cl    0.91835   0.16601   0.87962   0.00000  Uiso   1.00
Cl684  Cl    0.74832   0.16732   0.62038   0.00000  Uiso   1.00
Cl685  Cl    0.74963   0.17610   0.86905   0.00000  Uiso   1.00
Cl686  Cl    0.91704   0.15724   0.63096   0.00000  Uiso   1.00
Cl687  Cl    0.70759   0.14515   0.94945   0.00000  Uiso   1.00
Cl688  Cl    0.95908   0.18817   0.55055   0.00000  Uiso   1.00
Cl689  Cl    0.71012   0.07442   0.77603   0.00000  Uiso   1.00
Cl690  Cl    0.95655   0.25891   0.72397   0.00000  Uiso   1.00
Cl691  Cl    0.95708   0.07395   0.72577   0.00000  Uiso   1.00
Cl692  Cl    0.70958   0.25938   0.77423   0.00000  Uiso   1.00
I693   I     0.89980   0.05785   0.82626   0.00000  Uiso   1.00
I694   I     0.76687   0.27548   0.67374   0.00000  Uiso   1.00
I695   I     0.76660   0.05833   0.67397   0.00000  Uiso   1.00
I696   I     0.90006   0.27501   0.82603   0.00000  Uiso   1.00
C697   C     0.08695   0.50003   0.75414   0.00000  Uiso   1.00
C698   C     0.24638   0.49997   0.74586   0.00000  Uiso   1.00
C699   C     0.09143   0.49384   0.52029   0.00000  Uiso   1.00
C700   C     0.24191   0.50615   0.97971   0.00000  Uiso   1.00
C701   C     0.02093   0.45907   0.75684   0.00000  Uiso   1.00
C702   C     0.31241   0.54093   0.74317   0.00000  Uiso   1.00
C703   C     0.31261   0.45894   0.74401   0.00000  Uiso   1.00
C704   C     0.02072   0.54106   0.75599   0.00000  Uiso   1.00
C705   C     0.29085   0.49991   0.74163   0.00000  Uiso   1.00
C706   C     0.04248   0.50009   0.75837   0.00000  Uiso   1.00
C707   C     0.19239   0.35712   0.77939   0.00000  Uiso   1.00
C708   C     0.14095   0.64288   0.72061   0.00000  Uiso   1.00
C709   C     0.14092   0.35731   0.72063   0.00000  Uiso   1.00
C710   C     0.19241   0.64269   0.77937   0.00000  Uiso   1.00
C711   C     0.16643   0.50003   0.66376   0.00000  Uiso   1.00
C712   C     0.16690   0.49997   0.83624   0.00000  Uiso   1.00
C713   C     0.20440   0.50003   0.90823   0.00000  Uiso   1.00
C714   C     0.12894   0.49997   0.59177   0.00000  Uiso   1.00
C715   C     0.16649   0.49988   0.88387   0.00000  Uiso   1.00
C716   C     0.16685   0.50012   0.61613   0.00000  Uiso   1.00
C717   C     0.12821   0.50023   0.90416   0.00000  Uiso   1.00
C718   C     0.20512   0.49977   0.59584   0.00000  Uiso   1.00
C719   C     0.12756   0.49724   0.95112   0.00000  Uiso   1.00
C720   C     0.20578   0.50275   0.54888   0.00000  Uiso   1.00
C721   C     0.16628   0.49972   0.97644   0.00000  Uiso   1.00
C722   C     0.16705   0.50028   0.52356   0.00000  Uiso   1.00
C723   C     0.20441   0.50165   0.95473   0.00000  Uiso   1.00
C724   C     0.12893   0.49835   0.54527   0.00000  Uiso   1.00
C725   C     0.09025   0.49213   0.97411   0.00000  Uiso   1.00
C726   C     0.24308   0.50786   0.52589   0.00000  Uiso   1.00
H727   H     0.06225   0.49019   0.53647   0.00000  Uiso   1.00
H728   H     0.27108   0.50980   0.96353   0.00000  Uiso   1.00
N729   N     0.16667   0.61907   0.75000   0.00000  Uiso   1.00
N730   N     0.16667   0.38093   0.75000   0.00000  Uiso   1.00
O731   O     0.10559   0.53821   0.75000   0.00000  Uiso   1.00
O732   O     0.22774   0.46179   0.75000   0.00000  Uiso   1.00
O733   O     0.22774   0.53821   0.75001   0.00000  Uiso   1.00
O734   O     0.10559   0.46179   0.74999   0.00000  Uiso   1.00
O735   O     0.16666   0.53823   0.68393   0.00000  Uiso   1.00
O736   O     0.16667   0.46177   0.81607   0.00000  Uiso   1.00
O737   O     0.16667   0.53823   0.81608   0.00000  Uiso   1.00
O738   O     0.16666   0.46177   0.68392   0.00000  Uiso   1.00
Zn739  Zn    0.16667   0.55104   0.75000   0.00000  Uiso   1.00
Zn740  Zn    0.16667   0.44896   0.75000   0.00000  Uiso   1.00
Cl741  Cl    0.25168   0.49935   0.87962   0.00000  Uiso   1.00
Cl742  Cl    0.08165   0.50065   0.62038   0.00000  Uiso   1.00
Cl743  Cl    0.08296   0.50943   0.86905   0.00000  Uiso   1.00
Cl744  Cl    0.25037   0.49057   0.63096   0.00000  Uiso   1.00
Cl745  Cl    0.04092   0.47849   0.94945   0.00000  Uiso   1.00
Cl746  Cl    0.29242   0.52150   0.55055   0.00000  Uiso   1.00
Cl747  Cl    0.04345   0.40776   0.77603   0.00000  Uiso   1.00
Cl748  Cl    0.28988   0.59224   0.72397   0.00000  Uiso   1.00
Cl749  Cl    0.29042   0.40729   0.72577   0.00000  Uiso   1.00
Cl750  Cl    0.04292   0.59271   0.77423   0.00000  Uiso   1.00
I751   I     0.23313   0.39118   0.82626   0.00000  Uiso   1.00
I752   I     0.10020   0.60882   0.67374   0.00000  Uiso   1.00
I753   I     0.09993   0.39166   0.67397   0.00000  Uiso   1.00
I754   I     0.23340   0.60834   0.82603   0.00000  Uiso   1.00
C755   C     0.42029   0.50003   0.75414   0.00000  Uiso   1.00
C756   C     0.57971   0.49997   0.74586   0.00000  Uiso   1.00
C757   C     0.42476   0.49384   0.52029   0.00000  Uiso   1.00
C758   C     0.57524   0.50615   0.97971   0.00000  Uiso   1.00
C759   C     0.35426   0.45907   0.75684   0.00000  Uiso   1.00
C760   C     0.64574   0.54093   0.74317   0.00000  Uiso   1.00
C761   C     0.64595   0.45894   0.74401   0.00000  Uiso   1.00
C762   C     0.35405   0.54106   0.75599   0.00000  Uiso   1.00
C763   C     0.62419   0.49991   0.74163   0.00000  Uiso   1.00
C764   C     0.37581   0.50009   0.75837   0.00000  Uiso   1.00
C765   C     0.52572   0.35712   0.77939   0.00000  Uiso   1.00
C766   C     0.47428   0.64288   0.72061   0.00000  Uiso   1.00
C767   C     0.47426   0.35731   0.72063   0.00000  Uiso   1.00
C768   C     0.52574   0.64269   0.77937   0.00000  Uiso   1.00
C769   C     0.49977   0.50003   0.66376   0.00000  Uiso   1.00
C770   C     0.50023   0.49997   0.83624   0.00000  Uiso   1.00
C771   C     0.53773   0.50003   0.90823   0.00000  Uiso   1.00
C772   C     0.46227   0.49997   0.59177   0.00000  Uiso   1.00
C773   C     0.49982   0.49988   0.88387   0.00000  Uiso   1.00
C774   C     0.50018   0.50012   0.61613   0.00000  Uiso   1.00
C775   C     0.46155   0.50023   0.90416   0.00000  Uiso   1.00
C776   C     0.53845   0.49977   0.59584   0.00000  Uiso   1.00
C777   C     0.46089   0.49724   0.95112   0.00000  Uiso   1.00
C778   C     0.53911   0.50275   0.54888   0.00000  Uiso   1.00
C779   C     0.49962   0.49972   0.97644   0.00000  Uiso   1.00
C780   C     0.50038   0.50028   0.52356   0.00000  Uiso   1.00
C781   C     0.53774   0.50165   0.95473   0.00000  Uiso   1.00
C782   C     0.46226   0.49835   0.54527   0.00000  Uiso   1.00
C783   C     0.42359   0.49213   0.97411   0.00000  Uiso   1.00
C784   C     0.57641   0.50786   0.52589   0.00000  Uiso   1.00
H785   H     0.39558   0.49019   0.53647   0.00000  Uiso   1.00
H786   H     0.60442   0.50980   0.96353   0.00000  Uiso   1.00
N787   N     0.50000   0.61907   0.75000   0.00000  Uiso   1.00
N788   N     0.50000   0.38093   0.75000   0.00000  Uiso   1.00
O789   O     0.43892   0.53821   0.75000   0.00000  Uiso   1.00
O790   O     0.56108   0.46179   0.75000   0.00000  Uiso   1.00
O791   O     0.56108   0.53821   0.75001   0.00000  Uiso   1.00
O792   O     0.43892   0.46179   0.74999   0.00000  Uiso   1.00
O793   O     0.49999   0.53823   0.68393   0.00000  Uiso   1.00
O794   O     0.50001   0.46177   0.81607   0.00000  Uiso   1.00
O795   O     0.50001   0.53823   0.81608   0.00000  Uiso   1.00
O796   O     0.49999   0.46177   0.68392   0.00000  Uiso   1.00
Zn797  Zn    0.50000   0.55104   0.75000   0.00000  Uiso   1.00
Zn798  Zn    0.50000   0.44896   0.75000   0.00000  Uiso   1.00
Cl799  Cl    0.58501   0.49935   0.87962   0.00000  Uiso   1.00
Cl800  Cl    0.41499   0.50065   0.62038   0.00000  Uiso   1.00
Cl801  Cl    0.41630   0.50943   0.86905   0.00000  Uiso   1.00
Cl802  Cl    0.58370   0.49057   0.63096   0.00000  Uiso   1.00
Cl803  Cl    0.37425   0.47849   0.94945   0.00000  Uiso   1.00
Cl804  Cl    0.62575   0.52150   0.55055   0.00000  Uiso   1.00
Cl805  Cl    0.37678   0.40776   0.77603   0.00000  Uiso   1.00
Cl806  Cl    0.62322   0.59224   0.72397   0.00000  Uiso   1.00
Cl807  Cl    0.62375   0.40729   0.72577   0.00000  Uiso   1.00
Cl808  Cl    0.37625   0.59271   0.77423   0.00000  Uiso   1.00
I809   I     0.56647   0.39118   0.82626   0.00000  Uiso   1.00
I810   I     0.43353   0.60882   0.67374   0.00000  Uiso   1.00
I811   I     0.43327   0.39166   0.67397   0.00000  Uiso   1.00
I812   I     0.56673   0.60834   0.82603   0.00000  Uiso   1.00
C813   C     0.75362   0.50003   0.75414   0.00000  Uiso   1.00
C814   C     0.91305   0.49997   0.74586   0.00000  Uiso   1.00
C815   C     0.75809   0.49384   0.52029   0.00000  Uiso   1.00
C816   C     0.90857   0.50615   0.97971   0.00000  Uiso   1.00
C817   C     0.68759   0.45907   0.75684   0.00000  Uiso   1.00
C818   C     0.97907   0.54093   0.74317   0.00000  Uiso   1.00
C819   C     0.97928   0.45894   0.74401   0.00000  Uiso   1.00
C820   C     0.68739   0.54106   0.75599   0.00000  Uiso   1.00
C821   C     0.95752   0.49991   0.74163   0.00000  Uiso   1.00
C822   C     0.70915   0.50009   0.75837   0.00000  Uiso   1.00
C823   C     0.85905   0.35712   0.77939   0.00000  Uiso   1.00
C824   C     0.80761   0.64288   0.72061   0.00000  Uiso   1.00
C825   C     0.80759   0.35731   0.72063   0.00000  Uiso   1.00
C826   C     0.85908   0.64269   0.77937   0.00000  Uiso   1.00
C827   C     0.83310   0.50003   0.66376   0.00000  Uiso   1.00
C828   C     0.83357   0.49997   0.83624   0.00000  Uiso   1.00
C829   C     0.87106   0.50003   0.90823   0.00000  Uiso   1.00
C830   C     0.79560   0.49997   0.59177   0.00000  Uiso   1.00
C831   C     0.83315   0.49988   0.88387   0.00000  Uiso   1.00
C832   C     0.83351   0.50012   0.61613   0.00000  Uiso   1.00
C833   C     0.79488   0.50023   0.90416   0.00000  Uiso   1.00
C834   C     0.87179   0.49977   0.59584   0.00000  Uiso   1.00
C835   C     0.79422   0.49724   0.95112   0.00000  Uiso   1.00
C836   C     0.87244   0.50275   0.54888   0.00000  Uiso   1.00
C837   C     0.83295   0.49972   0.97644   0.00000  Uiso   1.00
C838   C     0.83372   0.50028   0.52356   0.00000  Uiso   1.00
C839   C     0.87107   0.50165   0.95473   0.00000  Uiso   1.00
C840   C     0.79560   0.49835   0.54527   0.00000  Uiso   1.00
C841   C     0.75692   0.49213   0.97411   0.00000  Uiso   1.00
C842   C     0.90975   0.50786   0.52589   0.00000  Uiso   1.00
H843   H     0.72892   0.49019   0.53647   0.00000  Uiso   1.00
H844   H     0.93775   0.50980   0.96353   0.00000  Uiso   1.00
N845   N     0.83333   0.61907   0.75000   0.00000  Uiso   1.00
N846   N     0.83333   0.38093   0.75000   0.00000  Uiso   1.00
O847   O     0.77226   0.53821   0.75000   0.00000  Uiso   1.00
O848   O     0.89441   0.46179   0.75000   0.00000  Uiso   1.00
O849   O     0.89441   0.53821   0.75001   0.00000  Uiso   1.00
O850   O     0.77226   0.46179   0.74999   0.00000  Uiso   1.00
O851   O     0.83333   0.53823   0.68393   0.00000  Uiso   1.00
O852   O     0.83334   0.46177   0.81607   0.00000  Uiso   1.00
O853   O     0.83334   0.53823   0.81608   0.00000  Uiso   1.00
O854   O     0.83333   0.46177   0.68392   0.00000  Uiso   1.00
Zn855  Zn    0.83333   0.55104   0.75000   0.00000  Uiso   1.00
Zn856  Zn    0.83333   0.44896   0.75000   0.00000  Uiso   1.00
Cl857  Cl    0.91835   0.49935   0.87962   0.00000  Uiso   1.00
Cl858  Cl    0.74832   0.50065   0.62038   0.00000  Uiso   1.00
Cl859  Cl    0.74963   0.50943   0.86905   0.00000  Uiso   1.00
Cl860  Cl    0.91704   0.49057   0.63096   0.00000  Uiso   1.00
Cl861  Cl    0.70759   0.47849   0.94945   0.00000  Uiso   1.00
Cl862  Cl    0.95908   0.52150   0.55055   0.00000  Uiso   1.00
Cl863  Cl    0.71012   0.40776   0.77603   0.00000  Uiso   1.00
Cl864  Cl    0.95655   0.59224   0.72397   0.00000  Uiso   1.00
Cl865  Cl    0.95708   0.40729   0.72577   0.00000  Uiso   1.00
Cl866  Cl    0.70958   0.59271   0.77423   0.00000  Uiso   1.00
I867   I     0.89980   0.39118   0.82626   0.00000  Uiso   1.00
I868   I     0.76687   0.60882   0.67374   0.00000  Uiso   1.00
I869   I     0.76660   0.39166   0.67397   0.00000  Uiso   1.00
I870   I     0.90006   0.60834   0.82603   0.00000  Uiso   1.00
C871   C     0.08695   0.83337   0.75414   0.00000  Uiso   1.00
C872   C     0.24638   0.83330   0.74586   0.00000  Uiso   1.00
C873   C     0.09143   0.82718   0.52029   0.00000  Uiso   1.00
C874   C     0.24191   0.83948   0.97971   0.00000  Uiso   1.00
C875   C     0.02093   0.79240   0.75684   0.00000  Uiso   1.00
C876   C     0.31241   0.87426   0.74317   0.00000  Uiso   1.00
C877   C     0.31261   0.79227   0.74401   0.00000  Uiso   1.00
C878   C     0.02072   0.87439   0.75599   0.00000  Uiso   1.00
C879   C     0.29085   0.83324   0.74163   0.00000  Uiso   1.00
C880   C     0.04248   0.83342   0.75837   0.00000  Uiso   1.00
C881   C     0.19239   0.69046   0.77939   0.00000  Uiso   1.00
C882   C     0.14095   0.97621   0.72061   0.00000  Uiso   1.00
C883   C     0.14092   0.69064   0.72063   0.00000  Uiso   1.00
C884   C     0.19241   0.97602   0.77937   0.00000  Uiso   1.00
C885   C     0.16643   0.83336   0.66376   0.00000  Uiso   1.00
C886   C     0.16690   0.83331   0.83624   0.00000  Uiso   1.00
C887   C     0.20440   0.83336   0.90823   0.00000  Uiso   1.00
C888   C     0.12894   0.83331   0.59177   0.00000  Uiso   1.00
C889   C     0.16649   0.83321   0.88387   0.00000  Uiso   1.00
C890   C     0.16685   0.83345   0.61613   0.00000  Uiso   1.00
C891   C     0.12821   0.83356   0.90416   0.00000  Uiso   1.00
C892   C     0.20512   0.83310   0.59584   0.00000  Uiso   1.00
C893   C     0.12756   0.83058   0.95112   0.00000  Uiso   1.00
C894   C     0.20578   0.83609   0.54888   0.00000  Uiso   1.00
C895   C     0.16628   0.83305   0.97644   0.00000  Uiso   1.00
C896   C     0.16705   0.83361   0.52356   0.00000  Uiso   1.00
C897   C     0.20441   0.83498   0.95473   0.00000  Uiso   1.00
C898   C     0.12893   0.83168   0.54527   0.00000  Uiso   1.00
C899   C     0.09025   0.82546   0.97411   0.00000  Uiso   1.00
C900   C     0.24308   0.84120   0.52589   0.00000  Uiso   1.00
H901   H     0.06225   0.82353   0.53647   0.00000  Uiso   1.00
H902   H     0.27108   0.84313   0.96353   0.00000  Uiso   1.00
N903   N     0.16667   0.95240   0.75000   0.00000  Uiso   1.00
N904   N     0.16667   0.71427   0.75000   0.00000  Uiso   1.00
O905   O     0.10559   0.87154   0.75000   0.00000  Uiso   1.00
O906   O     0.22774   0.79513   0.75000   0.00000  Uiso   1.00
O907   O     0.22774   0.87154   0.75001   0.00000  Uiso   1.00
O908   O     0.10559   0.79513   0.74999   0.00000  Uiso   1.00
O909   O     0.16666   0.87156   0.68393   0.00000  Uiso   1.00
O910   O     0.16667   0.79511   0.81607   0.00000  Uiso   1.00
O911   O     0.16667   0.87156   0.81608   0.00000  Uiso   1.00
O912   O     0.16666   0.79511   0.68392   0.00000  Uiso   1.00
Zn913  Zn    0.16667   0.88437   0.75000   0.00000  Uiso   1.00
Zn914  Zn    0.16667   0.78229   0.75000   0.00000  Uiso   1.00
Cl915  Cl    0.25168   0.83268   0.87962   0.00000  Uiso   1.00
Cl916  Cl    0.08165   0.83399   0.62038   0.00000  Uiso   1.00
Cl917  Cl    0.08296   0.84276   0.86905   0.00000  Uiso   1.00
Cl918  Cl    0.25037   0.82391   0.63096   0.00000  Uiso   1.00
Cl919  Cl    0.04092   0.81182   0.94945   0.00000  Uiso   1.00
Cl920  Cl    0.29242   0.85483   0.55055   0.00000  Uiso   1.00
Cl921  Cl    0.04345   0.74109   0.77603   0.00000  Uiso   1.00
Cl922  Cl    0.28988   0.92558   0.72397   0.00000  Uiso   1.00
Cl923  Cl    0.29042   0.74062   0.72577   0.00000  Uiso   1.00
Cl924  Cl    0.04292   0.92605   0.77423   0.00000  Uiso   1.00
I925   I     0.23313   0.72452   0.82626   0.00000  Uiso   1.00
I926   I     0.10020   0.94215   0.67374   0.00000  Uiso   1.00
I927   I     0.09993   0.72499   0.67397   0.00000  Uiso   1.00
I928   I     0.23340   0.94167   0.82603   0.00000  Uiso   1.00
C929   C     0.42029   0.83337   0.75414   0.00000  Uiso   1.00
C930   C     0.57971   0.83330   0.74586   0.00000  Uiso   1.00
C931   C     0.42476   0.82718   0.52029   0.00000  Uiso   1.00
C932   C     0.57524   0.83948   0.97971   0.00000  Uiso   1.00
C933   C     0.35426   0.79240   0.75684   0.00000  Uiso   1.00
C934   C     0.64574   0.87426   0.74317   0.00000  Uiso   1.00
C935   C     0.64595   0.79227   0.74401   0.00000  Uiso   1.00
C936   C     0.35405   0.87439   0.75599   0.00000  Uiso   1.00
C937   C     0.62419   0.83324   0.74163   0.00000  Uiso   1.00
C938   C     0.37581   0.83342   0.75837   0.00000  Uiso   1.00
C939   C     0.52572   0.69046   0.77939   0.00000  Uiso   1.00
C940   C     0.47428   0.97621   0.72061   0.00000  Uiso   1.00
C941   C     0.47426   0.69064   0.72063   0.00000  Uiso   1.00
C942   C     0.52574   0.97602   0.77937   0.00000  Uiso   1.00
C943   C     0.49977   0.83336   0.66376   0.00000  Uiso   1.00
C944   C     0.50023   0.83331   0.83624   0.00000  Uiso   1.00
C945   C     0.53773   0.83336   0.90823   0.00000  Uiso   1.00
C946   C     0.46227   0.83331   0.59177   0.00000  Uiso   1.00
C947   C     0.49982   0.83321   0.88387   0.00000  Uiso   1.00
C948   C     0.50018   0.83345   0.61613   0.00000  Uiso   1.00
C949   C     0.46155   0.83356   0.90416   0.00000  Uiso   1.00
C950   C     0.53845   0.83310   0.59584   0.00000  Uiso   1.00
C951   C     0.46089   0.83058   0.95112   0.00000  Uiso   1.00
C952   C     0.53911   0.83609   0.54888   0.00000  Uiso   1.00
C953   C     0.49962   0.83305   0.97644   0.00000  Uiso   1.00
C954   C     0.50038   0.83361   0.52356   0.00000  Uiso   1.00
C955   C     0.53774   0.83498   0.95473   0.00000  Uiso   1.00
C956   C     0.46226   0.83168   0.54527   0.00000  Uiso   1.00
C957   C     0.42359   0.82546   0.97411   0.00000  Uiso   1.00
C958   C     0.57641   0.84120   0.52589   0.00000  Uiso   1.00
H959   H     0.39558   0.82353   0.53647   0.00000  Uiso   1.00
H960   H     0.60442   0.84313   0.96353   0.00000  Uiso   1.00
N961   N     0.50000   0.95240   0.75000   0.00000  Uiso   1.00
N962   N     0.50000   0.71427   0.75000   0.00000  Uiso   1.00
O963   O     0.43892   0.87154   0.75000   0.00000  Uiso   1.00
O964   O     0.56108   0.79513   0.75000   0.00000  Uiso   1.00
O965   O     0.56108   0.87154   0.75001   0.00000  Uiso   1.00
O966   O     0.43892   0.79513   0.74999   0.00000  Uiso   1.00
O967   O     0.49999   0.87156   0.68393   0.00000  Uiso   1.00
O968   O     0.50001   0.79511   0.81607   0.00000  Uiso   1.00
O969   O     0.50001   0.87156   0.81608   0.00000  Uiso   1.00
O970   O     0.49999   0.79511   0.68392   0.00000  Uiso   1.00
Zn971  Zn    0.50000   0.88437   0.75000   0.00000  Uiso   1.00
Zn972  Zn    0.50000   0.78229   0.75000   0.00000  Uiso   1.00
Cl973  Cl    0.58501   0.83268   0.87962   0.00000  Uiso   1.00
Cl974  Cl    0.41499   0.83399   0.62038   0.00000  Uiso   1.00
Cl975  Cl    0.41630   0.84276   0.86905   0.00000  Uiso   1.00
Cl976  Cl    0.58370   0.82391   0.63096   0.00000  Uiso   1.00
Cl977  Cl    0.37425   0.81182   0.94945   0.00000  Uiso   1.00
Cl978  Cl    0.62575   0.85483   0.55055   0.00000  Uiso   1.00
Cl979  Cl    0.37678   0.74109   0.77603   0.00000  Uiso   1.00
Cl980  Cl    0.62322   0.92558   0.72397   0.00000  Uiso   1.00
Cl981  Cl    0.62375   0.74062   0.72577   0.00000  Uiso   1.00
Cl982  Cl    0.37625   0.92605   0.77423   0.00000  Uiso   1.00
I983   I     0.56647   0.72452   0.82626   0.00000  Uiso   1.00
I984   I     0.43353   0.94215   0.67374   0.00000  Uiso   1.00
I985   I     0.43327   0.72499   0.67397   0.00000  Uiso   1.00
I986   I     0.56673   0.94167   0.82603   0.00000  Uiso   1.00
C987   C     0.75362   0.83337   0.75414   0.00000  Uiso   1.00
C988   C     0.91305   0.83330   0.74586   0.00000  Uiso   1.00
C989   C     0.75809   0.82718   0.52029   0.00000  Uiso   1.00
C990   C     0.90857   0.83948   0.97971   0.00000  Uiso   1.00
C991   C     0.68759   0.79240   0.75684   0.00000  Uiso   1.00
C992   C     0.97907   0.87426   0.74317   0.00000  Uiso   1.00
C993   C     0.97928   0.79227   0.74401   0.00000  Uiso   1.00
C994   C     0.68739   0.87439   0.75599   0.00000  Uiso   1.00
C995   C     0.95752   0.83324   0.74163   0.00000  Uiso   1.00
C996   C     0.70915   0.83342   0.75837   0.00000  Uiso   1.00
C997   C     0.85905   0.69046   0.77939   0.00000  Uiso   1.00
C998   C     0.80761   0.97621   0.72061   0.00000  Uiso   1.00
C999   C     0.80759   0.69064   0.72063   0.00000  Uiso   1.00
C1000  C     0.85908   0.97602   0.77937   0.00000  Uiso   1.00
C1001  C     0.83310   0.83336   0.66376   0.00000  Uiso   1.00
C1002  C     0.83357   0.83331   0.83624   0.00000  Uiso   1.00
C1003  C     0.87106   0.83336   0.90823   0.00000  Uiso   1.00
C1004  C     0.79560   0.83331   0.59177   0.00000  Uiso   1.00
C1005  C     0.83315   0.83321   0.88387   0.00000  Uiso   1.00
C1006  C     0.83351   0.83345   0.61613   0.00000  Uiso   1.00
C1007  C     0.79488   0.83356   0.90416   0.00000  Uiso   1.00
C1008  C     0.87179   0.83310   0.59584   0.00000  Uiso   1.00
C1009  C     0.79422   0.83058   0.95112   0.00000  Uiso   1.00
C1010  C     0.87244   0.83609   0.54888   0.00000  Uiso   1.00
C1011  C     0.83295   0.83305   0.97644   0.00000  Uiso   1.00
C1012  C     0.83372   0.83361   0.52356   0.00000  Uiso   1.00
C1013  C     0.87107   0.83498   0.95473   0.00000  Uiso   1.00
C1014  C     0.79560   0.83168   0.54527   0.00000  Uiso   1.00
C1015  C     0.75692   0.82546   0.97411   0.00000  Uiso   1.00
C1016  C     0.90975   0.84120   0.52589   0.00000  Uiso   1.00
H1017  H     0.72892   0.82353   0.53647   0.00000  Uiso   1.00
H1018  H     0.93775   0.84313   0.96353   0.00000  Uiso   1.00
N1019  N     0.83333   0.95240   0.75000   0.00000  Uiso   1.00
N1020  N     0.83333   0.71427   0.75000   0.00000  Uiso   1.00
O1021  O     0.77226   0.87154   0.75000   0.00000  Uiso   1.00
O1022  O     0.89441   0.79513   0.75000   0.00000  Uiso   1.00
O1023  O     0.89441   0.87154   0.75001   0.00000  Uiso   1.00
O1024  O     0.77226   0.79513   0.74999   0.00000  Uiso   1.00
O1025  O     0.83333   0.87156   0.68393   0.00000  Uiso   1.00
O1026  O     0.83334   0.79511   0.81607   0.00000  Uiso   1.00
O1027  O     0.83334   0.87156   0.81608   0.00000  Uiso   1.00
O1028  O     0.83333   0.79511   0.68392   0.00000  Uiso   1.00
Zn1029 Zn    0.83333   0.88437   0.75000   0.00000  Uiso   1.00
Zn1030 Zn    0.83333   0.78229   0.75000   0.00000  Uiso   1.00
Cl1031 Cl    0.91835   0.83268   0.87962   0.00000  Uiso   1.00
Cl1032 Cl    0.74832   0.83399   0.62038   0.00000  Uiso   1.00
Cl1033 Cl    0.74963   0.84276   0.86905   0.00000  Uiso   1.00
Cl1034 Cl    0.91704   0.82391   0.63096   0.00000  Uiso   1.00
Cl1035 Cl    0.70759   0.81182   0.94945   0.00000  Uiso   1.00
Cl1036 Cl    0.95908   0.85483   0.55055   0.00000  Uiso   1.00
Cl1037 Cl    0.71012   0.74109   0.77603   0.00000  Uiso   1.00
Cl1038 Cl    0.95655   0.92558   0.72397   0.00000  Uiso   1.00
Cl1039 Cl    0.95708   0.74062   0.72577   0.00000  Uiso   1.00
Cl1040 Cl    0.70958   0.92605   0.77423   0.00000  Uiso   1.00
I1041  I     0.89980   0.72452   0.82626   0.00000  Uiso   1.00
I1042  I     0.76687   0.94215   0.67374   0.00000  Uiso   1.00
I1043  I     0.76660   0.72499   0.67397   0.00000  Uiso   1.00
I1044  I     0.90006   0.94167   0.82603   0.00000  Uiso   1.00
loop_
_geom_bond_atom_site_label_1
_geom_bond_atom_site_label_2
_geom_bond_distance
_geom_bond_site_symmetry_2
_ccdc_geom_bond_type
C1     O38     1.298   .     A
C1     O35     1.298   .     A
C1     C10     1.443   .     S
C2     O37     1.298   .     A
C2     O36     1.298   .     A
C2     C9      1.443   .     S
C3     H31     1.082   .     S
C3     C28     1.396   .     A
C3     C551    1.381   1_554 S
C4     H32     1.082   .     S
C4     C27     1.396   .     A
C4     C552    1.381   .     S
C5     C10     1.409   .     A
C5     Cl51    1.777   .     S
C5     C123    1.377   1_455 S
C6     C9      1.409   .     A
C6     Cl52    1.777   .     S
C6     C66     1.377   .     S
C7     C9      1.409   .     A
C7     Cl53    1.777   .     S
C7     C63     1.377   .     S
C8     Cl54    1.777   .     S
C8     C10     1.409   .     A
C8     C122    1.377   1_455 S
C11    I55     2.135   .     S
C11    N34     1.376   .     A
C11    C362    1.427   1_545 S
C12    I56     2.135   .     S
C12    N33     1.376   .     A
C12    C187    1.427   .     S
C13    N34     1.376   .     A
C13    I57     2.136   .     S
C13    C360    1.427   1_545 S
C14    N33     1.376   .     A
C14    I58     2.136   .     S
C14    C185    1.427   .     S
C15    O39     1.291   .     A
C15    C20     1.425   .     S
C15    O42     1.291   .     A
C16    C19     1.425   .     S
C16    O40     1.291   .     A
C16    O41     1.291   .     A
C17    C19     1.392   .     A
C17    Cl45    1.780   .     S
C17    C27     1.392   .     A
C18    C28     1.392   .     A
C18    Cl46    1.780   .     S
C18    C20     1.392   .     A
C19    C21     1.398   .     A
C20    C22     1.398   .     A
C21    Cl47    1.776   .     S
C21    C23     1.409   .     A
C22    Cl48    1.776   .     S
C22    C24     1.409   .     A
C23    C25     1.430   .     A
C23    C29     1.419   .     A
C24    C30     1.419   .     A
C24    C26     1.430   .     A
C25    C27     1.416   .     A
C25    C548    1.409   .     S
C26    C28     1.416   .     A
C26    C547    1.409   1_554 S
C29    Cl49    1.768   .     S
C29    C525    1.381   .     S
C30    Cl50    1.768   .     S
C30    C526    1.381   1_554 S
N33    Zn43    2.032   .     S
N34    Zn44    2.032   .     S
O35    Zn43    2.003   .     S
O36    Zn44    2.003   .     S
O37    Zn43    2.002   .     S
O38    Zn44    2.002   .     S
O39    Zn43    2.014   .     S
O40    Zn44    2.014   .     S
O41    Zn43    2.013   .     S
O42    Zn44    2.013   .     S
C59    O96     1.298   .     A
C59    O93     1.298   .     A
C59    C68     1.443   .     S
C60    O95     1.298   .     A
C60    O94     1.298   .     A
C60    C67     1.443   .     S
C61    H89     1.082   .     S
C61    C86     1.396   .     A
C61    C609    1.381   1_554 S
C62    H90     1.082   .     S
C62    C85     1.396   .     A
C62    C610    1.381   .     S
C63    C68     1.409   .     A
C63    Cl109   1.777   .     S
C64    C67     1.409   .     A
C64    Cl110   1.777   .     S
C64    C124    1.377   .     S
C65    C67     1.409   .     A
C65    Cl111   1.777   .     S
C65    C121    1.377   .     S
C66    Cl112   1.777   .     S
C66    C68     1.409   .     A
C69    I113    2.135   .     S
C69    N92     1.376   .     A
C69    C420    1.427   1_545 S
C70    I114    2.135   .     S
C70    N91     1.376   .     A
C70    C245    1.427   .     S
C71    N92     1.376   .     A
C71    I115    2.136   .     S
C71    C418    1.427   1_545 S
C72    N91     1.376   .     A
C72    I116    2.136   .     S
C72    C243    1.427   .     S
C73    O97     1.291   .     A
C73    C78     1.425   .     S
C73    O100    1.291   .     A
C74    C77     1.425   .     S
C74    O98     1.291   .     A
C74    O99     1.291   .     A
C75    C77     1.392   .     A
C75    Cl103   1.780   .     S
C75    C85     1.392   .     A
C76    C86     1.392   .     A
C76    Cl104   1.780   .     S
C76    C78     1.392   .     A
C77    C79     1.398   .     A
C78    C80     1.398   .     A
C79    Cl105   1.776   .     S
C79    C81     1.409   .     A
C80    Cl106   1.776   .     S
C80    C82     1.409   .     A
C81    C83     1.430   .     A
C81    C87     1.419   .     A
C82    C88     1.419   .     A
C82    C84     1.430   .     A
C83    C85     1.416   .     A
C83    C606    1.409   .     S
C84    C86     1.416   .     A
C84    C605    1.409   1_554 S
C87    Cl107   1.768   .     S
C87    C583    1.381   .     S
C88    Cl108   1.768   .     S
C88    C584    1.381   1_554 S
N91    Zn101   2.032   .     S
N92    Zn102   2.032   .     S
O93    Zn101   2.003   .     S
O94    Zn102   2.003   .     S
O95    Zn101   2.002   .     S
O96    Zn102   2.002   .     S
O97    Zn101   2.014   .     S
O98    Zn102   2.014   .     S
O99    Zn101   2.013   .     S
O100   Zn102   2.013   .     S
C117   O154    1.298   .     A
C117   O151    1.298   .     A
C117   C126    1.443   .     S
C118   O153    1.298   .     A
C118   O152    1.298   .     A
C118   C125    1.443   .     S
C119   H147    1.082   .     S
C119   C144    1.396   .     A
C119   C667    1.381   1_554 S
C120   H148    1.082   .     S
C120   C143    1.396   .     A
C120   C668    1.381   .     S
C121   C126    1.409   .     A
C121   Cl167   1.777   .     S
C122   C125    1.409   .     A
C122   Cl168   1.777   .     S
C122   C8      1.377   1_655 S
C123   C125    1.409   .     A
C123   Cl169   1.777   .     S
C123   C5      1.377   1_655 S
C124   Cl170   1.777   .     S
C124   C126    1.409   .     A
C127   I171    2.135   .     S
C127   N150    1.376   .     A
C127   C478    1.427   1_545 S
C128   I172    2.135   .     S
C128   N149    1.376   .     A
C128   C303    1.427   .     S
C129   N150    1.376   .     A
C129   I173    2.136   .     S
C129   C476    1.427   1_545 S
C130   N149    1.376   .     A
C130   I174    2.136   .     S
C130   C301    1.427   .     S
C131   O155    1.291   .     A
C131   C136    1.425   .     S
C131   O158    1.291   .     A
C132   C135    1.425   .     S
C132   O156    1.291   .     A
C132   O157    1.291   .     A
C133   C135    1.392   .     A
C133   Cl161   1.780   .     S
C133   C143    1.392   .     A
C134   C144    1.392   .     A
C134   Cl162   1.780   .     S
C134   C136    1.392   .     A
C135   C137    1.398   .     A
C136   C138    1.398   .     A
C137   Cl163   1.776   .     S
C137   C139    1.409   .     A
C138   Cl164   1.776   .     S
C138   C140    1.409   .     A
C139   C141    1.430   .     A
C139   C145    1.419   .     A
C140   C146    1.419   .     A
C140   C142    1.430   .     A
C141   C143    1.416   .     A
C141   C664    1.409   .     S
C142   C144    1.416   .     A
C142   C663    1.409   1_554 S
C145   Cl165   1.768   .     S
C145   C641    1.381   .     S
C146   Cl166   1.768   .     S
C146   C642    1.381   1_554 S
N149   Zn159   2.032   .     S
N150   Zn160   2.032   .     S
O151   Zn159   2.003   .     S
O152   Zn160   2.003   .     S
O153   Zn159   2.002   .     S
O154   Zn160   2.002   .     S
O155   Zn159   2.014   .     S
O156   Zn160   2.014   .     S
O157   Zn159   2.013   .     S
O158   Zn160   2.013   .     S
C175   O212    1.298   .     A
C175   O209    1.298   .     A
C175   C184    1.443   .     S
C176   O211    1.298   .     A
C176   O210    1.298   .     A
C176   C183    1.443   .     S
C177   H205    1.082   .     S
C177   C202    1.396   .     A
C177   C725    1.381   1_554 S
C178   H206    1.082   .     S
C178   C201    1.396   .     A
C178   C726    1.381   .     S
C179   C184    1.409   .     A
C179   Cl225   1.777   .     S
C179   C297    1.377   1_455 S
C180   C183    1.409   .     A
C180   Cl226   1.777   .     S
C180   C240    1.377   .     S
C181   C183    1.409   .     A
C181   Cl227   1.777   .     S
C181   C237    1.377   .     S
C182   Cl228   1.777   .     S
C182   C184    1.409   .     A
C182   C296    1.377   1_455 S
C185   I229    2.135   .     S
C185   N208    1.376   .     A
C186   I230    2.135   .     S
C186   N207    1.376   .     A
C186   C361    1.427   .     S
C187   N208    1.376   .     A
C187   I231    2.136   .     S
C188   N207    1.376   .     A
C188   I232    2.136   .     S
C188   C359    1.427   .     S
C189   O213    1.291   .     A
C189   C194    1.425   .     S
C189   O216    1.291   .     A
C190   C193    1.425   .     S
C190   O214    1.291   .     A
C190   O215    1.291   .     A
C191   C193    1.392   .     A
C191   Cl219   1.780   .     S
C191   C201    1.392   .     A
C192   C202    1.392   .     A
C192   Cl220   1.780   .     S
C192   C194    1.392   .     A
C193   C195    1.398   .     A
C194   C196    1.398   .     A
C195   Cl221   1.776   .     S
C195   C197    1.409   .     A
C196   Cl222   1.776   .     S
C196   C198    1.409   .     A
C197   C199    1.430   .     A
C197   C203    1.419   .     A
C198   C204    1.419   .     A
C198   C200    1.430   .     A
C199   C201    1.416   .     A
C199   C722    1.409   .     S
C200   C202    1.416   .     A
C200   C721    1.409   1_554 S
C203   Cl223   1.768   .     S
C203   C699    1.381   .     S
C204   Cl224   1.768   .     S
C204   C700    1.381   1_554 S
N207   Zn217   2.032   .     S
N208   Zn218   2.032   .     S
O209   Zn217   2.003   .     S
O210   Zn218   2.003   .     S
O211   Zn217   2.002   .     S
O212   Zn218   2.002   .     S
O213   Zn217   2.014   .     S
O214   Zn218   2.014   .     S
O215   Zn217   2.013   .     S
O216   Zn218   2.013   .     S
C233   O270    1.298   .     A
C233   O267    1.298   .     A
C233   C242    1.443   .     S
C234   O269    1.298   .     A
C234   O268    1.298   .     A
C234   C241    1.443   .     S
C235   H263    1.082   .     S
C235   C260    1.396   .     A
C235   C783    1.381   1_554 S
C236   H264    1.082   .     S
C236   C259    1.396   .     A
C236   C784    1.381   .     S
C237   C242    1.409   .     A
C237   Cl283   1.777   .     S
C238   C241    1.409   .     A
C238   Cl284   1.777   .     S
C238   C298    1.377   .     S
C239   C241    1.409   .     A
C239   Cl285   1.777   .     S
C239   C295    1.377   .     S
C240   Cl286   1.777   .     S
C240   C242    1.409   .     A
C243   I287    2.135   .     S
C243   N266    1.376   .     A
C244   I288    2.135   .     S
C244   N265    1.376   .     A
C244   C419    1.427   .     S
C245   N266    1.376   .     A
C245   I289    2.136   .     S
C246   N265    1.376   .     A
C246   I290    2.136   .     S
C246   C417    1.427   .     S
C247   O271    1.291   .     A
C247   C252    1.425   .     S
C247   O274    1.291   .     A
C248   C251    1.425   .     S
C248   O272    1.291   .     A
C248   O273    1.291   .     A
C249   C251    1.392   .     A
C249   Cl277   1.780   .     S
C249   C259    1.392   .     A
C250   C260    1.392   .     A
C250   Cl278   1.780   .     S
C250   C252    1.392   .     A
C251   C253    1.398   .     A
C252   C254    1.398   .     A
C253   Cl279   1.776   .     S
C253   C255    1.409   .     A
C254   Cl280   1.776   .     S
C254   C256    1.409   .     A
C255   C257    1.430   .     A
C255   C261    1.419   .     A
C256   C262    1.419   .     A
C256   C258    1.430   .     A
C257   C259    1.416   .     A
C257   C780    1.409   .     S
C258   C260    1.416   .     A
C258   C779    1.409   1_554 S
C261   Cl281   1.768   .     S
C261   C757    1.381   .     S
C262   Cl282   1.768   .     S
C262   C758    1.381   1_554 S
N265   Zn275   2.032   .     S
N266   Zn276   2.032   .     S
O267   Zn275   2.003   .     S
O268   Zn276   2.003   .     S
O269   Zn275   2.002   .     S
O270   Zn276   2.002   .     S
O271   Zn275   2.014   .     S
O272   Zn276   2.014   .     S
O273   Zn275   2.013   .     S
O274   Zn276   2.013   .     S
C291   O328    1.298   .     A
C291   O325    1.298   .     A
C291   C300    1.443   .     S
C292   O327    1.298   .     A
C292   O326    1.298   .     A
C292   C299    1.443   .     S
C293   H321    1.082   .     S
C293   C318    1.396   .     A
C293   C841    1.381   1_554 S
C294   H322    1.082   .     S
C294   C317    1.396   .     A
C294   C842    1.381   .     S
C295   C300    1.409   .     A
C295   Cl341   1.777   .     S
C296   C299    1.409   .     A
C296   Cl342   1.777   .     S
C296   C182    1.377   1_655 S
C297   C299    1.409   .     A
C297   Cl343   1.777   .     S
C297   C179    1.377   1_655 S
C298   Cl344   1.777   .     S
C298   C300    1.409   .     A
C301   I345    2.135   .     S
C301   N324    1.376   .     A
C302   I346    2.135   .     S
C302   N323    1.376   .     A
C302   C477    1.427   .     S
C303   N324    1.376   .     A
C303   I347    2.136   .     S
C304   N323    1.376   .     A
C304   I348    2.136   .     S
C304   C475    1.427   .     S
C305   O329    1.291   .     A
C305   C310    1.425   .     S
C305   O332    1.291   .     A
C306   C309    1.425   .     S
C306   O330    1.291   .     A
C306   O331    1.291   .     A
C307   C309    1.392   .     A
C307   Cl335   1.780   .     S
C307   C317    1.392   .     A
C308   C318    1.392   .     A
C308   Cl336   1.780   .     S
C308   C310    1.392   .     A
C309   C311    1.398   .     A
C310   C312    1.398   .     A
C311   Cl337   1.776   .     S
C311   C313    1.409   .     A
C312   Cl338   1.776   .     S
C312   C314    1.409   .     A
C313   C315    1.430   .     A
C313   C319    1.419   .     A
C314   C320    1.419   .     A
C314   C316    1.430   .     A
C315   C317    1.416   .     A
C315   C838    1.409   .     S
C316   C318    1.416   .     A
C316   C837    1.409   1_554 S
C319   Cl339   1.768   .     S
C319   C815    1.381   .     S
C320   Cl340   1.768   .     S
C320   C816    1.381   1_554 S
N323   Zn333   2.032   .     S
N324   Zn334   2.032   .     S
O325   Zn333   2.003   .     S
O326   Zn334   2.003   .     S
O327   Zn333   2.002   .     S
O328   Zn334   2.002   .     S
O329   Zn333   2.014   .     S
O330   Zn334   2.014   .     S
O331   Zn333   2.013   .     S
O332   Zn334   2.013   .     S
C349   O386    1.298   .     A
C349   O383    1.298   .     A
C349   C358    1.443   .     S
C350   O385    1.298   .     A
C350   O384    1.298   .     A
C350   C357    1.443   .     S
C351   H379    1.082   .     S
C351   C376    1.396   .     A
C351   C899    1.381   1_554 S
C352   H380    1.082   .     S
C352   C375    1.396   .     A
C352   C900    1.381   .     S
C353   C358    1.409   .     A
C353   Cl399   1.777   .     S
C353   C471    1.377   1_455 S
C354   C357    1.409   .     A
C354   Cl400   1.777   .     S
C354   C414    1.377   .     S
C355   C357    1.409   .     A
C355   Cl401   1.777   .     S
C355   C411    1.377   .     S
C356   Cl402   1.777   .     S
C356   C358    1.409   .     A
C356   C470    1.377   1_455 S
C359   I403    2.135   .     S
C359   N382    1.376   .     A
C360   I404    2.135   .     S
C360   N381    1.376   .     A
C360   C13     1.427   1_565 S
C361   N382    1.376   .     A
C361   I405    2.136   .     S
C362   N381    1.376   .     A
C362   I406    2.136   .     S
C362   C11     1.427   1_565 S
C363   O387    1.291   .     A
C363   C368    1.425   .     S
C363   O390    1.291   .     A
C364   C367    1.425   .     S
C364   O388    1.291   .     A
C364   O389    1.291   .     A
C365   C367    1.392   .     A
C365   Cl393   1.780   .     S
C365   C375    1.392   .     A
C366   C376    1.392   .     A
C366   Cl394   1.780   .     S
C366   C368    1.392   .     A
C367   C369    1.398   .     A
C368   C370    1.398   .     A
C369   Cl395   1.776   .     S
C369   C371    1.409   .     A
C370   Cl396   1.776   .     S
C370   C372    1.409   .     A
C371   C373    1.430   .     A
C371   C377    1.419   .     A
C372   C378    1.419   .     A
C372   C374    1.430   .     A
C373   C375    1.416   .     A
C373   C896    1.409   .     S
C374   C376    1.416   .     A
C374   C895    1.409   1_554 S
C377   Cl397   1.768   .     S
C377   C873    1.381   .     S
C378   Cl398   1.768   .     S
C378   C874    1.381   1_554 S
N381   Zn391   2.032   .     S
N382   Zn392   2.032   .     S
O383   Zn391   2.003   .     S
O384   Zn392   2.003   .     S
O385   Zn391   2.002   .     S
O386   Zn392   2.002   .     S
O387   Zn391   2.014   .     S
O388   Zn392   2.014   .     S
O389   Zn391   2.013   .     S
O390   Zn392   2.013   .     S
C407   O444    1.298   .     A
C407   O441    1.298   .     A
C407   C416    1.443   .     S
C408   O443    1.298   .     A
C408   O442    1.298   .     A
C408   C415    1.443   .     S
C409   H437    1.082   .     S
C409   C434    1.396   .     A
C409   C957    1.381   1_554 S
C410   H438    1.082   .     S
C410   C433    1.396   .     A
C410   C958    1.381   .     S
C411   C416    1.409   .     A
C411   Cl457   1.777   .     S
C412   C415    1.409   .     A
C412   Cl458   1.777   .     S
C412   C472    1.377   .     S
C413   C415    1.409   .     A
C413   Cl459   1.777   .     S
C413   C469    1.377   .     S
C414   Cl460   1.777   .     S
C414   C416    1.409   .     A
C417   I461    2.135   .     S
C417   N440    1.376   .     A
C418   I462    2.135   .     S
C418   N439    1.376   .     A
C418   C71     1.427   1_565 S
C419   N440    1.376   .     A
C419   I463    2.136   .     S
C420   N439    1.376   .     A
C420   I464    2.136   .     S
C420   C69     1.427   1_565 S
C421   O445    1.291   .     A
C421   C426    1.425   .     S
C421   O448    1.291   .     A
C422   C425    1.425   .     S
C422   O446    1.291   .     A
C422   O447    1.291   .     A
C423   C425    1.392   .     A
C423   Cl451   1.780   .     S
C423   C433    1.392   .     A
C424   C434    1.392   .     A
C424   Cl452   1.780   .     S
C424   C426    1.392   .     A
C425   C427    1.398   .     A
C426   C428    1.398   .     A
C427   Cl453   1.776   .     S
C427   C429    1.409   .     A
C428   Cl454   1.776   .     S
C428   C430    1.409   .     A
C429   C431    1.430   .     A
C429   C435    1.419   .     A
C430   C436    1.419   .     A
C430   C432    1.430   .     A
C431   C433    1.416   .     A
C431   C954    1.409   .     S
C432   C434    1.416   .     A
C432   C953    1.409   1_554 S
C435   Cl455   1.768   .     S
C435   C931    1.381   .     S
C436   Cl456   1.768   .     S
C436   C932    1.381   1_554 S
N439   Zn449   2.032   .     S
N440   Zn450   2.032   .     S
O441   Zn449   2.003   .     S
O442   Zn450   2.003   .     S
O443   Zn449   2.002   .     S
O444   Zn450   2.002   .     S
O445   Zn449   2.014   .     S
O446   Zn450   2.014   .     S
O447   Zn449   2.013   .     S
O448   Zn450   2.013   .     S
C465   O502    1.298   .     A
C465   O499    1.298   .     A
C465   C474    1.443   .     S
C466   O501    1.298   .     A
C466   O500    1.298   .     A
C466   C473    1.443   .     S
C467   H495    1.082   .     S
C467   C492    1.396   .     A
C467   C1015   1.381   1_554 S
C468   H496    1.082   .     S
C468   C491    1.396   .     A
C468   C1016   1.381   .     S
C469   C474    1.409   .     A
C469   Cl515   1.777   .     S
C470   C473    1.409   .     A
C470   Cl516   1.777   .     S
C470   C356    1.377   1_655 S
C471   C473    1.409   .     A
C471   Cl517   1.777   .     S
C471   C353    1.377   1_655 S
C472   Cl518   1.777   .     S
C472   C474    1.409   .     A
C475   I519    2.135   .     S
C475   N498    1.376   .     A
C476   I520    2.135   .     S
C476   N497    1.376   .     A
C476   C129    1.427   1_565 S
C477   N498    1.376   .     A
C477   I521    2.136   .     S
C478   N497    1.376   .     A
C478   I522    2.136   .     S
C478   C127    1.427   1_565 S
C479   O503    1.291   .     A
C479   C484    1.425   .     S
C479   O506    1.291   .     A
C480   C483    1.425   .     S
C480   O504    1.291   .     A
C480   O505    1.291   .     A
C481   C483    1.392   .     A
C481   Cl509   1.780   .     S
C481   C491    1.392   .     A
C482   C492    1.392   .     A
C482   Cl510   1.780   .     S
C482   C484    1.392   .     A
C483   C485    1.398   .     A
C484   C486    1.398   .     A
C485   Cl511   1.776   .     S
C485   C487    1.409   .     A
C486   Cl512   1.776   .     S
C486   C488    1.409   .     A
C487   C489    1.430   .     A
C487   C493    1.419   .     A
C488   C494    1.419   .     A
C488   C490    1.430   .     A
C489   C491    1.416   .     A
C489   C1012   1.409   .     S
C490   C492    1.416   .     A
C490   C1011   1.409   1_554 S
C493   Cl513   1.768   .     S
C493   C989    1.381   .     S
C494   Cl514   1.768   .     S
C494   C990    1.381   1_554 S
N497   Zn507   2.032   .     S
N498   Zn508   2.032   .     S
O499   Zn507   2.003   .     S
O500   Zn508   2.003   .     S
O501   Zn507   2.002   .     S
O502   Zn508   2.002   .     S
O503   Zn507   2.014   .     S
O504   Zn508   2.014   .     S
O505   Zn507   2.013   .     S
O506   Zn508   2.013   .     S
C523   O560    1.298   .     A
C523   O557    1.298   .     A
C523   C532    1.443   .     S
C524   O559    1.298   .     A
C524   O558    1.298   .     A
C524   C531    1.443   .     S
C525   H553    1.082   .     S
C525   C550    1.396   .     A
C526   H554    1.082   .     S
C526   C549    1.396   .     A
C526   C30     1.381   1_556 S
C527   C532    1.409   .     A
C527   Cl573   1.777   .     S
C527   C645    1.377   1_455 S
C528   C531    1.409   .     A
C528   Cl574   1.777   .     S
C528   C588    1.377   .     S
C529   C531    1.409   .     A
C529   Cl575   1.777   .     S
C529   C585    1.377   .     S
C530   Cl576   1.777   .     S
C530   C532    1.409   .     A
C530   C644    1.377   1_455 S
C533   I577    2.135   .     S
C533   N556    1.376   .     A
C533   C884    1.427   1_545 S
C534   I578    2.135   .     S
C534   N555    1.376   .     A
C534   C709    1.427   .     S
C535   N556    1.376   .     A
C535   I579    2.136   .     S
C535   C882    1.427   1_545 S
C536   N555    1.376   .     A
C536   I580    2.136   .     S
C536   C707    1.427   .     S
C537   O561    1.291   .     A
C537   C542    1.425   .     S
C537   O564    1.291   .     A
C538   C541    1.425   .     S
C538   O562    1.291   .     A
C538   O563    1.291   .     A
C539   C541    1.392   .     A
C539   Cl567   1.780   .     S
C539   C549    1.392   .     A
C540   C550    1.392   .     A
C540   Cl568   1.780   .     S
C540   C542    1.392   .     A
C541   C543    1.398   .     A
C542   C544    1.398   .     A
C543   Cl569   1.776   .     S
C543   C545    1.409   .     A
C544   Cl570   1.776   .     S
C544   C546    1.409   .     A
C545   C547    1.430   .     A
C545   C551    1.419   .     A
C546   C552    1.419   .     A
C546   C548    1.430   .     A
C547   C549    1.416   .     A
C547   C26     1.409   1_556 S
C548   C550    1.416   .     A
C551   Cl571   1.768   .     S
C551   C3      1.381   1_556 S
C552   Cl572   1.768   .     S
N555   Zn565   2.032   .     S
N556   Zn566   2.032   .     S
O557   Zn565   2.003   .     S
O558   Zn566   2.003   .     S
O559   Zn565   2.002   .     S
O560   Zn566   2.002   .     S
O561   Zn565   2.014   .     S
O562   Zn566   2.014   .     S
O563   Zn565   2.013   .     S
O564   Zn566   2.013   .     S
C581   O618    1.298   .     A
C581   O615    1.298   .     A
C581   C590    1.443   .     S
C582   O617    1.298   .     A
C582   O616    1.298   .     A
C582   C589    1.443   .     S
C583   H611    1.082   .     S
C583   C608    1.396   .     A
C584   H612    1.082   .     S
C584   C607    1.396   .     A
C584   C88     1.381   1_556 S
C585   C590    1.409   .     A
C585   Cl631   1.777   .     S
C586   C589    1.409   .     A
C586   Cl632   1.777   .     S
C586   C646    1.377   .     S
C587   C589    1.409   .     A
C587   Cl633   1.777   .     S
C587   C643    1.377   .     S
C588   Cl634   1.777   .     S
C588   C590    1.409   .     A
C591   I635    2.135   .     S
C591   N614    1.376   .     A
C591   C942    1.427   1_545 S
C592   I636    2.135   .     S
C592   N613    1.376   .     A
C592   C767    1.427   .     S
C593   N614    1.376   .     A
C593   I637    2.136   .     S
C593   C940    1.427   1_545 S
C594   N613    1.376   .     A
C594   I638    2.136   .     S
C594   C765    1.427   .     S
C595   O619    1.291   .     A
C595   C600    1.425   .     S
C595   O622    1.291   .     A
C596   C599    1.425   .     S
C596   O620    1.291   .     A
C596   O621    1.291   .     A
C597   C599    1.392   .     A
C597   Cl625   1.780   .     S
C597   C607    1.392   .     A
C598   C608    1.392   .     A
C598   Cl626   1.780   .     S
C598   C600    1.392   .     A
C599   C601    1.398   .     A
C600   C602    1.398   .     A
C601   Cl627   1.776   .     S
C601   C603    1.409   .     A
C602   Cl628   1.776   .     S
C602   C604    1.409   .     A
C603   C605    1.430   .     A
C603   C609    1.419   .     A
C604   C610    1.419   .     A
C604   C606    1.430   .     A
C605   C607    1.416   .     A
C605   C84     1.409   1_556 S
C606   C608    1.416   .     A
C609   Cl629   1.768   .     S
C609   C61     1.381   1_556 S
C610   Cl630   1.768   .     S
N613   Zn623   2.032   .     S
N614   Zn624   2.032   .     S
O615   Zn623   2.003   .     S
O616   Zn624   2.003   .     S
O617   Zn623   2.002   .     S
O618   Zn624   2.002   .     S
O619   Zn623   2.014   .     S
O620   Zn624   2.014   .     S
O621   Zn623   2.013   .     S
O622   Zn624   2.013   .     S
C639   O676    1.298   .     A
C639   O673    1.298   .     A
C639   C648    1.443   .     S
C640   O675    1.298   .     A
C640   O674    1.298   .     A
C640   C647    1.443   .     S
C641   H669    1.082   .     S
C641   C666    1.396   .     A
C642   H670    1.082   .     S
C642   C665    1.396   .     A
C642   C146    1.381   1_556 S
C643   C648    1.409   .     A
C643   Cl689   1.777   .     S
C644   C647    1.409   .     A
C644   Cl690   1.777   .     S
C644   C530    1.377   1_655 S
C645   C647    1.409   .     A
C645   Cl691   1.777   .     S
C645   C527    1.377   1_655 S
C646   Cl692   1.777   .     S
C646   C648    1.409   .     A
C649   I693    2.135   .     S
C649   N672    1.376   .     A
C649   C1000   1.427   1_545 S
C650   I694    2.135   .     S
C650   N671    1.376   .     A
C650   C825    1.427   .     S
C651   N672    1.376   .     A
C651   I695    2.136   .     S
C651   C998    1.427   1_545 S
C652   N671    1.376   .     A
C652   I696    2.136   .     S
C652   C823    1.427   .     S
C653   O677    1.291   .     A
C653   C658    1.425   .     S
C653   O680    1.291   .     A
C654   C657    1.425   .     S
C654   O678    1.291   .     A
C654   O679    1.291   .     A
C655   C657    1.392   .     A
C655   Cl683   1.780   .     S
C655   C665    1.392   .     A
C656   C666    1.392   .     A
C656   Cl684   1.780   .     S
C656   C658    1.392   .     A
C657   C659    1.398   .     A
C658   C660    1.398   .     A
C659   Cl685   1.776   .     S
C659   C661    1.409   .     A
C660   Cl686   1.776   .     S
C660   C662    1.409   .     A
C661   C663    1.430   .     A
C661   C667    1.419   .     A
C662   C668    1.419   .     A
C662   C664    1.430   .     A
C663   C665    1.416   .     A
C663   C142    1.409   1_556 S
C664   C666    1.416   .     A
C667   Cl687   1.768   .     S
C667   C119    1.381   1_556 S
C668   Cl688   1.768   .     S
N671   Zn681   2.032   .     S
N672   Zn682   2.032   .     S
O673   Zn681   2.003   .     S
O674   Zn682   2.003   .     S
O675   Zn681   2.002   .     S
O676   Zn682   2.002   .     S
O677   Zn681   2.014   .     S
O678   Zn682   2.014   .     S
O679   Zn681   2.013   .     S
O680   Zn682   2.013   .     S
C697   O734    1.298   .     A
C697   O731    1.298   .     A
C697   C706    1.443   .     S
C698   O733    1.298   .     A
C698   O732    1.298   .     A
C698   C705    1.443   .     S
C699   H727    1.082   .     S
C699   C724    1.396   .     A
C700   H728    1.082   .     S
C700   C723    1.396   .     A
C700   C204    1.381   1_556 S
C701   C706    1.409   .     A
C701   Cl747   1.777   .     S
C701   C819    1.377   1_455 S
C702   C705    1.409   .     A
C702   Cl748   1.777   .     S
C702   C762    1.377   .     S
C703   C705    1.409   .     A
C703   Cl749   1.777   .     S
C703   C759    1.377   .     S
C704   Cl750   1.777   .     S
C704   C706    1.409   .     A
C704   C818    1.377   1_455 S
C707   I751    2.135   .     S
C707   N730    1.376   .     A
C708   I752    2.135   .     S
C708   N729    1.376   .     A
C708   C883    1.427   .     S
C709   N730    1.376   .     A
C709   I753    2.136   .     S
C710   N729    1.376   .     A
C710   I754    2.136   .     S
C710   C881    1.427   .     S
C711   O735    1.291   .     A
C711   C716    1.425   .     S
C711   O738    1.291   .     A
C712   C715    1.425   .     S
C712   O736    1.291   .     A
C712   O737    1.291   .     A
C713   C715    1.392   .     A
C713   Cl741   1.780   .     S
C713   C723    1.392   .     A
C714   C724    1.392   .     A
C714   Cl742   1.780   .     S
C714   C716    1.392   .     A
C715   C717    1.398   .     A
C716   C718    1.398   .     A
C717   Cl743   1.776   .     S
C717   C719    1.409   .     A
C718   Cl744   1.776   .     S
C718   C720    1.409   .     A
C719   C721    1.430   .     A
C719   C725    1.419   .     A
C720   C726    1.419   .     A
C720   C722    1.430   .     A
C721   C723    1.416   .     A
C721   C200    1.409   1_556 S
C722   C724    1.416   .     A
C725   Cl745   1.768   .     S
C725   C177    1.381   1_556 S
C726   Cl746   1.768   .     S
N729   Zn739   2.032   .     S
N730   Zn740   2.032   .     S
O731   Zn739   2.003   .     S
O732   Zn740   2.003   .     S
O733   Zn739   2.002   .     S
O734   Zn740   2.002   .     S
O735   Zn739   2.014   .     S
O736   Zn740   2.014   .     S
O737   Zn739   2.013   .     S
O738   Zn740   2.013   .     S
C755   O792    1.298   .     A
C755   O789    1.298   .     A
C755   C764    1.443   .     S
C756   O791    1.298   .     A
C756   O790    1.298   .     A
C756   C763    1.443   .     S
C757   H785    1.082   .     S
C757   C782    1.396   .     A
C758   H786    1.082   .     S
C758   C781    1.396   .     A
C758   C262    1.381   1_556 S
C759   C764    1.409   .     A
C759   Cl805   1.777   .     S
C760   C763    1.409   .     A
C760   Cl806   1.777   .     S
C760   C820    1.377   .     S
C761   C763    1.409   .     A
C761   Cl807   1.777   .     S
C761   C817    1.377   .     S
C762   Cl808   1.777   .     S
C762   C764    1.409   .     A
C765   I809    2.135   .     S
C765   N788    1.376   .     A
C766   I810    2.135   .     S
C766   N787    1.376   .     A
C766   C941    1.427   .     S
C767   N788    1.376   .     A
C767   I811    2.136   .     S
C768   N787    1.376   .     A
C768   I812    2.136   .     S
C768   C939    1.427   .     S
C769   O793    1.291   .     A
C769   C774    1.425   .     S
C769   O796    1.291   .     A
C770   C773    1.425   .     S
C770   O794    1.291   .     A
C770   O795    1.291   .     A
C771   C773    1.392   .     A
C771   Cl799   1.780   .     S
C771   C781    1.392   .     A
C772   C782    1.392   .     A
C772   Cl800   1.780   .     S
C772   C774    1.392   .     A
C773   C775    1.398   .     A
C774   C776    1.398   .     A
C775   Cl801   1.776   .     S
C775   C777    1.409   .     A
C776   Cl802   1.776   .     S
C776   C778    1.409   .     A
C777   C779    1.430   .     A
C777   C783    1.419   .     A
C778   C784    1.419   .     A
C778   C780    1.430   .     A
C779   C781    1.416   .     A
C779   C258    1.409   1_556 S
C780   C782    1.416   .     A
C783   Cl803   1.768   .     S
C783   C235    1.381   1_556 S
C784   Cl804   1.768   .     S
N787   Zn797   2.032   .     S
N788   Zn798   2.032   .     S
O789   Zn797   2.003   .     S
O790   Zn798   2.003   .     S
O791   Zn797   2.002   .     S
O792   Zn798   2.002   .     S
O793   Zn797   2.014   .     S
O794   Zn798   2.014   .     S
O795   Zn797   2.013   .     S
O796   Zn798   2.013   .     S
C813   O850    1.298   .     A
C813   O847    1.298   .     A
C813   C822    1.443   .     S
C814   O849    1.298   .     A
C814   O848    1.298   .     A
C814   C821    1.443   .     S
C815   H843    1.082   .     S
C815   C840    1.396   .     A
C816   H844    1.082   .     S
C816   C839    1.396   .     A
C816   C320    1.381   1_556 S
C817   C822    1.409   .     A
C817   Cl863   1.777   .     S
C818   C821    1.409   .     A
C818   Cl864   1.777   .     S
C818   C704    1.377   1_655 S
C819   C821    1.409   .     A
C819   Cl865   1.777   .     S
C819   C701    1.377   1_655 S
C820   Cl866   1.777   .     S
C820   C822    1.409   .     A
C823   I867    2.135   .     S
C823   N846    1.376   .     A
C824   I868    2.135   .     S
C824   N845    1.376   .     A
C824   C999    1.427   .     S
C825   N846    1.376   .     A
C825   I869    2.136   .     S
C826   N845    1.376   .     A
C826   I870    2.136   .     S
C826   C997    1.427   .     S
C827   O851    1.291   .     A
C827   C832    1.425   .     S
C827   O854    1.291   .     A
C828   C831    1.425   .     S
C828   O852    1.291   .     A
C828   O853    1.291   .     A
C829   C831    1.392   .     A
C829   Cl857   1.780   .     S
C829   C839    1.392   .     A
C830   C840    1.392   .     A
C830   Cl858   1.780   .     S
C830   C832    1.392   .     A
C831   C833    1.398   .     A
C832   C834    1.398   .     A
C833   Cl859   1.776   .     S
C833   C835    1.409   .     A
C834   Cl860   1.776   .     S
C834   C836    1.409   .     A
C835   C837    1.430   .     A
C835   C841    1.419   .     A
C836   C842    1.419   .     A
C836   C838    1.430   .     A
C837   C839    1.416   .     A
C837   C316    1.409   1_556 S
C838   C840    1.416   .     A
C841   Cl861   1.768   .     S
C841   C293    1.381   1_556 S
C842   Cl862   1.768   .     S
N845   Zn855   2.032   .     S
N846   Zn856   2.032   .     S
O847   Zn855   2.003   .     S
O848   Zn856   2.003   .     S
O849   Zn855   2.002   .     S
O850   Zn856   2.002   .     S
O851   Zn855   2.014   .     S
O852   Zn856   2.014   .     S
O853   Zn855   2.013   .     S
O854   Zn856   2.013   .     S
C871   O908    1.298   .     A
C871   O905    1.298   .     A
C871   C880    1.443   .     S
C872   O907    1.298   .     A
C872   O906    1.298   .     A
C872   C879    1.443   .     S
C873   H901    1.082   .     S
C873   C898    1.396   .     A
C874   H902    1.082   .     S
C874   C897    1.396   .     A
C874   C378    1.381   1_556 S
C875   C880    1.409   .     A
C875   Cl921   1.777   .     S
C875   C993    1.377   1_455 S
C876   C879    1.409   .     A
C876   Cl922   1.777   .     S
C876   C936    1.377   .     S
C877   C879    1.409   .     A
C877   Cl923   1.777   .     S
C877   C933    1.377   .     S
C878   Cl924   1.777   .     S
C878   C880    1.409   .     A
C878   C992    1.377   1_455 S
C881   I925    2.135   .     S
C881   N904    1.376   .     A
C882   I926    2.135   .     S
C882   N903    1.376   .     A
C882   C535    1.427   1_565 S
C883   N904    1.376   .     A
C883   I927    2.136   .     S
C884   N903    1.376   .     A
C884   I928    2.136   .     S
C884   C533    1.427   1_565 S
C885   O909    1.291   .     A
C885   C890    1.425   .     S
C885   O912    1.291   .     A
C886   C889    1.425   .     S
C886   O910    1.291   .     A
C886   O911    1.291   .     A
C887   C889    1.392   .     A
C887   Cl915   1.780   .     S
C887   C897    1.392   .     A
C888   C898    1.392   .     A
C888   Cl916   1.780   .     S
C888   C890    1.392   .     A
C889   C891    1.398   .     A
C890   C892    1.398   .     A
C891   Cl917   1.776   .     S
C891   C893    1.409   .     A
C892   Cl918   1.776   .     S
C892   C894    1.409   .     A
C893   C895    1.430   .     A
C893   C899    1.419   .     A
C894   C900    1.419   .     A
C894   C896    1.430   .     A
C895   C897    1.416   .     A
C895   C374    1.409   1_556 S
C896   C898    1.416   .     A
C899   Cl919   1.768   .     S
C899   C351    1.381   1_556 S
C900   Cl920   1.768   .     S
N903   Zn913   2.032   .     S
N904   Zn914   2.032   .     S
O905   Zn913   2.003   .     S
O906   Zn914   2.003   .     S
O907   Zn913   2.002   .     S
O908   Zn914   2.002   .     S
O909   Zn913   2.014   .     S
O910   Zn914   2.014   .     S
O911   Zn913   2.013   .     S
O912   Zn914   2.013   .     S
C929   O966    1.298   .     A
C929   O963    1.298   .     A
C929   C938    1.443   .     S
C930   O965    1.298   .     A
C930   O964    1.298   .     A
C930   C937    1.443   .     S
C931   H959    1.082   .     S
C931   C956    1.396   .     A
C932   H960    1.082   .     S
C932   C955    1.396   .     A
C932   C436    1.381   1_556 S
C933   C938    1.409   .     A
C933   Cl979   1.777   .     S
C934   C937    1.409   .     A
C934   Cl980   1.777   .     S
C934   C994    1.377   .     S
C935   C937    1.409   .     A
C935   Cl981   1.777   .     S
C935   C991    1.377   .     S
C936   Cl982   1.777   .     S
C936   C938    1.409   .     A
C939   I983    2.135   .     S
C939   N962    1.376   .     A
C940   I984    2.135   .     S
C940   N961    1.376   .     A
C940   C593    1.427   1_565 S
C941   N962    1.376   .     A
C941   I985    2.136   .     S
C942   N961    1.376   .     A
C942   I986    2.136   .     S
C942   C591    1.427   1_565 S
C943   O967    1.291   .     A
C943   C948    1.425   .     S
C943   O970    1.291   .     A
C944   C947    1.425   .     S
C944   O968    1.291   .     A
C944   O969    1.291   .     A
C945   C947    1.392   .     A
C945   Cl973   1.780   .     S
C945   C955    1.392   .     A
C946   C956    1.392   .     A
C946   Cl974   1.780   .     S
C946   C948    1.392   .     A
C947   C949    1.398   .     A
C948   C950    1.398   .     A
C949   Cl975   1.776   .     S
C949   C951    1.409   .     A
C950   Cl976   1.776   .     S
C950   C952    1.409   .     A
C951   C953    1.430   .     A
C951   C957    1.419   .     A
C952   C958    1.419   .     A
C952   C954    1.430   .     A
C953   C955    1.416   .     A
C953   C432    1.409   1_556 S
C954   C956    1.416   .     A
C957   Cl977   1.768   .     S
C957   C409    1.381   1_556 S
C958   Cl978   1.768   .     S
N961   Zn971   2.032   .     S
N962   Zn972   2.032   .     S
O963   Zn971   2.003   .     S
O964   Zn972   2.003   .     S
O965   Zn971   2.002   .     S
O966   Zn972   2.002   .     S
O967   Zn971   2.014   .     S
O968   Zn972   2.014   .     S
O969   Zn971   2.013   .     S
O970   Zn972   2.013   .     S
C987   O1024   1.298   .     A
C987   O1021   1.298   .     A
C987   C996    1.443   .     S
C988   O1023   1.298   .     A
C988   O1022   1.298   .     A
C988   C995    1.443   .     S
C989   H1017   1.082   .     S
C989   C1014   1.396   .     A
C990   H1018   1.082   .     S
C990   C1013   1.396   .     A
C990   C494    1.381   1_556 S
C991   C996    1.409   .     A
C991   Cl1037  1.777   .     S
C992   C995    1.409   .     A
C992   Cl1038  1.777   .     S
C992   C878    1.377   1_655 S
C993   C995    1.409   .     A
C993   Cl1039  1.777   .     S
C993   C875    1.377   1_655 S
C994   Cl1040  1.777   .     S
C994   C996    1.409   .     A
C997   I1041   2.135   .     S
C997   N1020   1.376   .     A
C998   I1042   2.135   .     S
C998   N1019   1.376   .     A
C998   C651    1.427   1_565 S
C999   N1020   1.376   .     A
C999   I1043   2.136   .     S
C1000  N1019   1.376   .     A
C1000  I1044   2.136   .     S
C1000  C649    1.427   1_565 S
C1001  O1025   1.291   .     A
C1001  C1006   1.425   .     S
C1001  O1028   1.291   .     A
C1002  C1005   1.425   .     S
C1002  O1026   1.291   .     A
C1002  O1027   1.291   .     A
C1003  C1005   1.392   .     A
C1003  Cl1031  1.780   .     S
C1003  C1013   1.392   .     A
C1004  C1014   1.392   .     A
C1004  Cl1032  1.780   .     S
C1004  C1006   1.392   .     A
C1005  C1007   1.398   .     A
C1006  C1008   1.398   .     A
C1007  Cl1033  1.776   .     S
C1007  C1009   1.409   .     A
C1008  Cl1034  1.776   .     S
C1008  C1010   1.409   .     A
C1009  C1011   1.430   .     A
C1009  C1015   1.419   .     A
C1010  C1016   1.419   .     A
C1010  C1012   1.430   .     A
C1011  C1013   1.416   .     A
C1011  C490    1.409   1_556 S
C1012  C1014   1.416   .     A
C1015  Cl1035  1.768   .     S
C1015  C467    1.381   1_556 S
C1016  Cl1036  1.768   .     S
N1019  Zn1029  2.032   .     S
N1020  Zn1030  2.032   .     S
O1021  Zn1029  2.003   .     S
O1022  Zn1030  2.003   .     S
O1023  Zn1029  2.002   .     S
O1024  Zn1030  2.002   .     S
O1025  Zn1029  2.014   .     S
O1026  Zn1030  2.014   .     S
O1027  Zn1029  2.013   .     S
O1028  Zn1030  2.013   .     S
