data_str_m3_o1_o10_pcu_sym.77
_audit_creation_date              2020-01-03
_audit_creation_method            'Materials Studio'
_symmetry_space_group_name_H-M    'P1'
_symmetry_Int_Tables_number       1
_symmetry_cell_setting            triclinic
loop_
_symmetry_equiv_pos_as_xyz
  x,y,z
_cell_length_a                    25.6785
_cell_length_b                    31.6165
_cell_length_c                    30.2480
_cell_angle_alpha                 90.9628
_cell_angle_beta                  97.9937
_cell_angle_gamma                 90.6816
loop_
_atom_site_label
_atom_site_type_symbol
_atom_site_fract_x
_atom_site_fract_y
_atom_site_fract_z
_atom_site_U_iso_or_equiv
_atom_site_adp_type
_atom_site_occupancy
C1     C     0.16657   0.08711   0.16632   0.00000  Uiso   1.00
C2     C     0.11829   0.02130   0.15939   0.00000  Uiso   1.00
C3     C     0.16670   0.29047   0.16766   0.00000  Uiso   1.00
C4     C     0.16663   0.04286   0.16567   0.00000  Uiso   1.00
C5     C     0.17511   0.20313   0.02483   0.00000  Uiso   1.00
C6     C     0.15822   0.13020   0.30850   0.00000  Uiso   1.00
C7     C     0.16569   0.20361   0.31070   0.00000  Uiso   1.00
C8     C     0.16764   0.12973   0.02263   0.00000  Uiso   1.00
C9     C     0.16676   0.24622   0.16702   0.00000  Uiso   1.00
C10    C     0.06741   0.16659   0.15496   0.00000  Uiso   1.00
C11    C     0.26593   0.16674   0.17837   0.00000  Uiso   1.00
C12    C     0.01228   0.16630   0.14876   0.00000  Uiso   1.00
C13    C     0.32105   0.16703   0.18458   0.00000  Uiso   1.00
C14    C     0.21501   0.02256   0.17286   0.00000  Uiso   1.00
C15    C     0.11832   0.31078   0.16047   0.00000  Uiso   1.00
C16    C     0.21505   0.31204   0.17394   0.00000  Uiso   1.00
H17    H     0.32540   0.16539   0.11467   0.00000  Uiso   1.00
H18    H     0.04812   0.03688   0.17814   0.00000  Uiso   1.00
H19    H     0.20292   0.30791   0.07671   0.00000  Uiso   1.00
H20    H     0.13042   0.02542   0.25661   0.00000  Uiso   1.00
H21    H     0.20693   0.27012   0.27063   0.00000  Uiso   1.00
H22    H     0.12640   0.06321   0.06270   0.00000  Uiso   1.00
H23    H     0.00793   0.16794   0.21867   0.00000  Uiso   1.00
H24    H     0.28453   0.03984   0.20962   0.00000  Uiso   1.00
H25    H     0.28512   0.03806   0.15349   0.00000  Uiso   1.00
H26    H     0.04881   0.29350   0.12371   0.00000  Uiso   1.00
H27    H     0.04821   0.29527   0.17984   0.00000  Uiso   1.00
H28    H     0.28458   0.29844   0.21129   0.00000  Uiso   1.00
H29    H     0.28521   0.29645   0.15519   0.00000  Uiso   1.00
H30    H     0.04876   0.03489   0.12204   0.00000  Uiso   1.00
N31    N     0.16665   0.16666   0.28573   0.00000  Uiso   1.00
N32    N     0.16668   0.16668   0.04760   0.00000  Uiso   1.00
N33    N     0.26318   0.04684   0.17869   0.00000  Uiso   1.00
N34    N     0.07015   0.28649   0.15464   0.00000  Uiso   1.00
N35    N     0.26327   0.28898   0.18068   0.00000  Uiso   1.00
N36    N     0.07006   0.04436   0.15265   0.00000  Uiso   1.00
O37    O     0.16666   0.10558   0.20487   0.00000  Uiso   1.00
O38    O     0.24770   0.26326   0.01666   0.00000  Uiso   1.00
O39    O     0.17766   0.28491   0.06577   0.00000  Uiso   1.00
O40    O     0.08564   0.07008   0.31667   0.00000  Uiso   1.00
O41    O     0.08083   0.10168   0.24401   0.00000  Uiso   1.00
O42    O     0.15568   0.04842   0.26756   0.00000  Uiso   1.00
O43    O     0.09011   0.23672   0.25046   0.00000  Uiso   1.00
O44    O     0.10461   0.26951   0.32411   0.00000  Uiso   1.00
O45    O     0.17353   0.28503   0.27205   0.00000  Uiso   1.00
O46    O     0.22872   0.06383   0.00923   0.00000  Uiso   1.00
O47    O     0.24322   0.09662   0.08288   0.00000  Uiso   1.00
O48    O     0.16667   0.22775   0.12846   0.00000  Uiso   1.00
O49    O     0.15980   0.04830   0.06128   0.00000  Uiso   1.00
O50    O     0.16666   0.10559   0.12843   0.00000  Uiso   1.00
O51    O     0.16667   0.22774   0.20490   0.00000  Uiso   1.00
O52    O     0.09058   0.16666   0.19595   0.00000  Uiso   1.00
O53    O     0.24275   0.16667   0.13739   0.00000  Uiso   1.00
O54    O     0.09058   0.16667   0.11950   0.00000  Uiso   1.00
O55    O     0.24275   0.16666   0.21383   0.00000  Uiso   1.00
O56    O     0.25251   0.23165   0.08932   0.00000  Uiso   1.00
S57    S     0.21523   0.24584   0.05000   0.00000  Uiso   1.00
S58    S     0.11811   0.08750   0.28333   0.00000  Uiso   1.00
S59    S     0.13175   0.24902   0.28853   0.00000  Uiso   1.00
S60    S     0.20159   0.08431   0.04480   0.00000  Uiso   1.00
Zn61   Zn    0.16667   0.16666   0.21771   0.00000  Uiso   1.00
Zn62   Zn    0.16667   0.16667   0.11563   0.00000  Uiso   1.00
C63    C     0.49990   0.08711   0.16632   0.00000  Uiso   1.00
C64    C     0.45162   0.02130   0.15939   0.00000  Uiso   1.00
C65    C     0.50003   0.29047   0.16766   0.00000  Uiso   1.00
C66    C     0.49997   0.04286   0.16567   0.00000  Uiso   1.00
C67    C     0.50844   0.20313   0.02483   0.00000  Uiso   1.00
C68    C     0.49156   0.13020   0.30850   0.00000  Uiso   1.00
C69    C     0.49902   0.20361   0.31070   0.00000  Uiso   1.00
C70    C     0.50098   0.12973   0.02263   0.00000  Uiso   1.00
C71    C     0.50010   0.24622   0.16702   0.00000  Uiso   1.00
C72    C     0.40074   0.16659   0.15496   0.00000  Uiso   1.00
C73    C     0.59926   0.16674   0.17837   0.00000  Uiso   1.00
C74    C     0.34561   0.16630   0.14876   0.00000  Uiso   1.00
C75    C     0.65439   0.16703   0.18458   0.00000  Uiso   1.00
C76    C     0.54834   0.02256   0.17286   0.00000  Uiso   1.00
C77    C     0.45166   0.31078   0.16047   0.00000  Uiso   1.00
C78    C     0.54838   0.31204   0.17394   0.00000  Uiso   1.00
H79    H     0.65873   0.16539   0.11467   0.00000  Uiso   1.00
H80    H     0.38145   0.03688   0.17814   0.00000  Uiso   1.00
H81    H     0.53625   0.30791   0.07671   0.00000  Uiso   1.00
H82    H     0.46375   0.02542   0.25661   0.00000  Uiso   1.00
H83    H     0.54027   0.27012   0.27063   0.00000  Uiso   1.00
H84    H     0.45973   0.06321   0.06270   0.00000  Uiso   1.00
H85    H     0.34127   0.16794   0.21867   0.00000  Uiso   1.00
H86    H     0.61786   0.03984   0.20962   0.00000  Uiso   1.00
H87    H     0.61845   0.03806   0.15349   0.00000  Uiso   1.00
H88    H     0.38214   0.29350   0.12371   0.00000  Uiso   1.00
H89    H     0.38155   0.29527   0.17984   0.00000  Uiso   1.00
H90    H     0.61791   0.29844   0.21129   0.00000  Uiso   1.00
H91    H     0.61855   0.29645   0.15519   0.00000  Uiso   1.00
H92    H     0.38209   0.03489   0.12204   0.00000  Uiso   1.00
N93    N     0.49999   0.16666   0.28573   0.00000  Uiso   1.00
N94    N     0.50001   0.16668   0.04760   0.00000  Uiso   1.00
N95    N     0.59651   0.04684   0.17869   0.00000  Uiso   1.00
N96    N     0.40349   0.28649   0.15464   0.00000  Uiso   1.00
N97    N     0.59660   0.28898   0.18068   0.00000  Uiso   1.00
N98    N     0.40340   0.04436   0.15265   0.00000  Uiso   1.00
O99    O     0.50000   0.10558   0.20487   0.00000  Uiso   1.00
O100   O     0.58103   0.26326   0.01666   0.00000  Uiso   1.00
O101   O     0.51099   0.28491   0.06577   0.00000  Uiso   1.00
O102   O     0.41897   0.07008   0.31667   0.00000  Uiso   1.00
O103   O     0.41416   0.10168   0.24401   0.00000  Uiso   1.00
O104   O     0.48901   0.04842   0.26756   0.00000  Uiso   1.00
O105   O     0.42345   0.23672   0.25046   0.00000  Uiso   1.00
O106   O     0.43795   0.26951   0.32411   0.00000  Uiso   1.00
O107   O     0.50687   0.28503   0.27205   0.00000  Uiso   1.00
O108   O     0.56205   0.06383   0.00923   0.00000  Uiso   1.00
O109   O     0.57655   0.09662   0.08288   0.00000  Uiso   1.00
O110   O     0.50000   0.22775   0.12846   0.00000  Uiso   1.00
O111   O     0.49313   0.04830   0.06128   0.00000  Uiso   1.00
O112   O     0.50000   0.10559   0.12843   0.00000  Uiso   1.00
O113   O     0.50000   0.22774   0.20490   0.00000  Uiso   1.00
O114   O     0.42392   0.16666   0.19595   0.00000  Uiso   1.00
O115   O     0.57608   0.16667   0.13739   0.00000  Uiso   1.00
O116   O     0.42392   0.16667   0.11950   0.00000  Uiso   1.00
O117   O     0.57608   0.16666   0.21383   0.00000  Uiso   1.00
O118   O     0.58584   0.23165   0.08932   0.00000  Uiso   1.00
S119   S     0.54856   0.24584   0.05000   0.00000  Uiso   1.00
S120   S     0.45144   0.08750   0.28333   0.00000  Uiso   1.00
S121   S     0.46508   0.24902   0.28853   0.00000  Uiso   1.00
S122   S     0.53492   0.08431   0.04480   0.00000  Uiso   1.00
Zn123  Zn    0.50000   0.16666   0.21771   0.00000  Uiso   1.00
Zn124  Zn    0.50000   0.16667   0.11563   0.00000  Uiso   1.00
C125   C     0.83324   0.08711   0.16632   0.00000  Uiso   1.00
C126   C     0.78495   0.02130   0.15939   0.00000  Uiso   1.00
C127   C     0.83337   0.29047   0.16766   0.00000  Uiso   1.00
C128   C     0.83330   0.04286   0.16567   0.00000  Uiso   1.00
C129   C     0.84178   0.20313   0.02483   0.00000  Uiso   1.00
C130   C     0.82489   0.13020   0.30850   0.00000  Uiso   1.00
C131   C     0.83236   0.20361   0.31070   0.00000  Uiso   1.00
C132   C     0.83431   0.12973   0.02263   0.00000  Uiso   1.00
C133   C     0.83343   0.24622   0.16702   0.00000  Uiso   1.00
C134   C     0.73407   0.16659   0.15496   0.00000  Uiso   1.00
C135   C     0.93260   0.16674   0.17837   0.00000  Uiso   1.00
C136   C     0.67895   0.16630   0.14876   0.00000  Uiso   1.00
C137   C     0.98772   0.16703   0.18458   0.00000  Uiso   1.00
C138   C     0.88168   0.02256   0.17286   0.00000  Uiso   1.00
C139   C     0.78499   0.31078   0.16047   0.00000  Uiso   1.00
C140   C     0.88171   0.31204   0.17394   0.00000  Uiso   1.00
H141   H     0.99207   0.16539   0.11467   0.00000  Uiso   1.00
H142   H     0.71479   0.03688   0.17814   0.00000  Uiso   1.00
H143   H     0.86958   0.30791   0.07671   0.00000  Uiso   1.00
H144   H     0.79708   0.02542   0.25661   0.00000  Uiso   1.00
H145   H     0.87360   0.27012   0.27063   0.00000  Uiso   1.00
H146   H     0.79307   0.06321   0.06270   0.00000  Uiso   1.00
H147   H     0.67460   0.16794   0.21867   0.00000  Uiso   1.00
H148   H     0.95119   0.03984   0.20962   0.00000  Uiso   1.00
H149   H     0.95179   0.03806   0.15349   0.00000  Uiso   1.00
H150   H     0.71547   0.29350   0.12371   0.00000  Uiso   1.00
H151   H     0.71488   0.29527   0.17984   0.00000  Uiso   1.00
H152   H     0.95124   0.29844   0.21129   0.00000  Uiso   1.00
H153   H     0.95188   0.29645   0.15519   0.00000  Uiso   1.00
H154   H     0.71542   0.03489   0.12204   0.00000  Uiso   1.00
N155   N     0.83332   0.16666   0.28573   0.00000  Uiso   1.00
N156   N     0.83335   0.16668   0.04760   0.00000  Uiso   1.00
N157   N     0.92985   0.04684   0.17869   0.00000  Uiso   1.00
N158   N     0.73682   0.28649   0.15464   0.00000  Uiso   1.00
N159   N     0.92994   0.28898   0.18068   0.00000  Uiso   1.00
N160   N     0.73673   0.04436   0.15265   0.00000  Uiso   1.00
O161   O     0.83333   0.10558   0.20487   0.00000  Uiso   1.00
O162   O     0.91436   0.26326   0.01666   0.00000  Uiso   1.00
O163   O     0.84432   0.28491   0.06577   0.00000  Uiso   1.00
O164   O     0.75230   0.07008   0.31667   0.00000  Uiso   1.00
O165   O     0.74749   0.10168   0.24401   0.00000  Uiso   1.00
O166   O     0.82234   0.04842   0.26756   0.00000  Uiso   1.00
O167   O     0.75678   0.23672   0.25046   0.00000  Uiso   1.00
O168   O     0.77128   0.26951   0.32411   0.00000  Uiso   1.00
O169   O     0.84020   0.28503   0.27205   0.00000  Uiso   1.00
O170   O     0.89539   0.06383   0.00923   0.00000  Uiso   1.00
O171   O     0.90989   0.09662   0.08288   0.00000  Uiso   1.00
O172   O     0.83334   0.22775   0.12846   0.00000  Uiso   1.00
O173   O     0.82647   0.04830   0.06128   0.00000  Uiso   1.00
O174   O     0.83333   0.10559   0.12843   0.00000  Uiso   1.00
O175   O     0.83334   0.22774   0.20490   0.00000  Uiso   1.00
O176   O     0.75725   0.16666   0.19595   0.00000  Uiso   1.00
O177   O     0.90942   0.16667   0.13739   0.00000  Uiso   1.00
O178   O     0.75725   0.16667   0.11950   0.00000  Uiso   1.00
O179   O     0.90942   0.16666   0.21383   0.00000  Uiso   1.00
O180   O     0.91917   0.23165   0.08932   0.00000  Uiso   1.00
S181   S     0.88189   0.24584   0.05000   0.00000  Uiso   1.00
S182   S     0.78477   0.08750   0.28333   0.00000  Uiso   1.00
S183   S     0.79841   0.24902   0.28853   0.00000  Uiso   1.00
S184   S     0.86825   0.08431   0.04480   0.00000  Uiso   1.00
Zn185  Zn    0.83333   0.16666   0.21771   0.00000  Uiso   1.00
Zn186  Zn    0.83333   0.16667   0.11563   0.00000  Uiso   1.00
C187   C     0.16657   0.42045   0.16632   0.00000  Uiso   1.00
C188   C     0.11829   0.35463   0.15939   0.00000  Uiso   1.00
C189   C     0.16670   0.62380   0.16766   0.00000  Uiso   1.00
C190   C     0.16663   0.37620   0.16567   0.00000  Uiso   1.00
C191   C     0.17511   0.53646   0.02483   0.00000  Uiso   1.00
C192   C     0.15822   0.46354   0.30850   0.00000  Uiso   1.00
C193   C     0.16569   0.53694   0.31070   0.00000  Uiso   1.00
C194   C     0.16764   0.46306   0.02263   0.00000  Uiso   1.00
C195   C     0.16676   0.57955   0.16702   0.00000  Uiso   1.00
C196   C     0.06741   0.49993   0.15496   0.00000  Uiso   1.00
C197   C     0.26593   0.50007   0.17837   0.00000  Uiso   1.00
C198   C     0.01228   0.49964   0.14876   0.00000  Uiso   1.00
C199   C     0.32105   0.50036   0.18458   0.00000  Uiso   1.00
C200   C     0.21501   0.35589   0.17286   0.00000  Uiso   1.00
C201   C     0.11832   0.64411   0.16047   0.00000  Uiso   1.00
C202   C     0.21505   0.64537   0.17394   0.00000  Uiso   1.00
H203   H     0.32540   0.49873   0.11467   0.00000  Uiso   1.00
H204   H     0.04812   0.37022   0.17814   0.00000  Uiso   1.00
H205   H     0.20292   0.64125   0.07671   0.00000  Uiso   1.00
H206   H     0.13042   0.35876   0.25661   0.00000  Uiso   1.00
H207   H     0.20693   0.60345   0.27063   0.00000  Uiso   1.00
H208   H     0.12640   0.39655   0.06270   0.00000  Uiso   1.00
H209   H     0.00793   0.50127   0.21867   0.00000  Uiso   1.00
H210   H     0.28453   0.37317   0.20962   0.00000  Uiso   1.00
H211   H     0.28512   0.37140   0.15349   0.00000  Uiso   1.00
H212   H     0.04881   0.62683   0.12371   0.00000  Uiso   1.00
H213   H     0.04821   0.62860   0.17984   0.00000  Uiso   1.00
H214   H     0.28458   0.63177   0.21129   0.00000  Uiso   1.00
H215   H     0.28521   0.62978   0.15519   0.00000  Uiso   1.00
H216   H     0.04876   0.36823   0.12204   0.00000  Uiso   1.00
N217   N     0.16665   0.49999   0.28573   0.00000  Uiso   1.00
N218   N     0.16668   0.50001   0.04760   0.00000  Uiso   1.00
N219   N     0.26318   0.38018   0.17869   0.00000  Uiso   1.00
N220   N     0.07015   0.61982   0.15464   0.00000  Uiso   1.00
N221   N     0.26327   0.62231   0.18068   0.00000  Uiso   1.00
N222   N     0.07006   0.37769   0.15265   0.00000  Uiso   1.00
O223   O     0.16666   0.43892   0.20487   0.00000  Uiso   1.00
O224   O     0.24770   0.59659   0.01666   0.00000  Uiso   1.00
O225   O     0.17766   0.61825   0.06577   0.00000  Uiso   1.00
O226   O     0.08564   0.40341   0.31667   0.00000  Uiso   1.00
O227   O     0.08083   0.43502   0.24401   0.00000  Uiso   1.00
O228   O     0.15568   0.38175   0.26756   0.00000  Uiso   1.00
O229   O     0.09011   0.57005   0.25046   0.00000  Uiso   1.00
O230   O     0.10461   0.60284   0.32411   0.00000  Uiso   1.00
O231   O     0.17353   0.61837   0.27205   0.00000  Uiso   1.00
O232   O     0.22872   0.39716   0.00923   0.00000  Uiso   1.00
O233   O     0.24322   0.42995   0.08288   0.00000  Uiso   1.00
O234   O     0.16667   0.56108   0.12846   0.00000  Uiso   1.00
O235   O     0.15980   0.38163   0.06128   0.00000  Uiso   1.00
O236   O     0.16666   0.43893   0.12843   0.00000  Uiso   1.00
O237   O     0.16667   0.56107   0.20490   0.00000  Uiso   1.00
O238   O     0.09058   0.50000   0.19595   0.00000  Uiso   1.00
O239   O     0.24275   0.50000   0.13739   0.00000  Uiso   1.00
O240   O     0.09058   0.50000   0.11950   0.00000  Uiso   1.00
O241   O     0.24275   0.50000   0.21383   0.00000  Uiso   1.00
O242   O     0.25251   0.56498   0.08932   0.00000  Uiso   1.00
S243   S     0.21523   0.57917   0.05000   0.00000  Uiso   1.00
S244   S     0.11811   0.42083   0.28333   0.00000  Uiso   1.00
S245   S     0.13175   0.58236   0.28853   0.00000  Uiso   1.00
S246   S     0.20159   0.41764   0.04480   0.00000  Uiso   1.00
Zn247  Zn    0.16667   0.49999   0.21771   0.00000  Uiso   1.00
Zn248  Zn    0.16667   0.50001   0.11563   0.00000  Uiso   1.00
C249   C     0.49990   0.42045   0.16632   0.00000  Uiso   1.00
C250   C     0.45162   0.35463   0.15939   0.00000  Uiso   1.00
C251   C     0.50003   0.62380   0.16766   0.00000  Uiso   1.00
C252   C     0.49997   0.37620   0.16567   0.00000  Uiso   1.00
C253   C     0.50844   0.53646   0.02483   0.00000  Uiso   1.00
C254   C     0.49156   0.46354   0.30850   0.00000  Uiso   1.00
C255   C     0.49902   0.53694   0.31070   0.00000  Uiso   1.00
C256   C     0.50098   0.46306   0.02263   0.00000  Uiso   1.00
C257   C     0.50010   0.57955   0.16702   0.00000  Uiso   1.00
C258   C     0.40074   0.49993   0.15496   0.00000  Uiso   1.00
C259   C     0.59926   0.50007   0.17837   0.00000  Uiso   1.00
C260   C     0.34561   0.49964   0.14876   0.00000  Uiso   1.00
C261   C     0.65439   0.50036   0.18458   0.00000  Uiso   1.00
C262   C     0.54834   0.35589   0.17286   0.00000  Uiso   1.00
C263   C     0.45166   0.64411   0.16047   0.00000  Uiso   1.00
C264   C     0.54838   0.64537   0.17394   0.00000  Uiso   1.00
H265   H     0.65873   0.49873   0.11467   0.00000  Uiso   1.00
H266   H     0.38145   0.37022   0.17814   0.00000  Uiso   1.00
H267   H     0.53625   0.64125   0.07671   0.00000  Uiso   1.00
H268   H     0.46375   0.35876   0.25661   0.00000  Uiso   1.00
H269   H     0.54027   0.60345   0.27063   0.00000  Uiso   1.00
H270   H     0.45973   0.39655   0.06270   0.00000  Uiso   1.00
H271   H     0.34127   0.50127   0.21867   0.00000  Uiso   1.00
H272   H     0.61786   0.37317   0.20962   0.00000  Uiso   1.00
H273   H     0.61845   0.37140   0.15349   0.00000  Uiso   1.00
H274   H     0.38214   0.62683   0.12371   0.00000  Uiso   1.00
H275   H     0.38155   0.62860   0.17984   0.00000  Uiso   1.00
H276   H     0.61791   0.63177   0.21129   0.00000  Uiso   1.00
H277   H     0.61855   0.62978   0.15519   0.00000  Uiso   1.00
H278   H     0.38209   0.36823   0.12204   0.00000  Uiso   1.00
N279   N     0.49999   0.49999   0.28573   0.00000  Uiso   1.00
N280   N     0.50001   0.50001   0.04760   0.00000  Uiso   1.00
N281   N     0.59651   0.38018   0.17869   0.00000  Uiso   1.00
N282   N     0.40349   0.61982   0.15464   0.00000  Uiso   1.00
N283   N     0.59660   0.62231   0.18068   0.00000  Uiso   1.00
N284   N     0.40340   0.37769   0.15265   0.00000  Uiso   1.00
O285   O     0.50000   0.43892   0.20487   0.00000  Uiso   1.00
O286   O     0.58103   0.59659   0.01666   0.00000  Uiso   1.00
O287   O     0.51099   0.61825   0.06577   0.00000  Uiso   1.00
O288   O     0.41897   0.40341   0.31667   0.00000  Uiso   1.00
O289   O     0.41416   0.43502   0.24401   0.00000  Uiso   1.00
O290   O     0.48901   0.38175   0.26756   0.00000  Uiso   1.00
O291   O     0.42345   0.57005   0.25046   0.00000  Uiso   1.00
O292   O     0.43795   0.60284   0.32411   0.00000  Uiso   1.00
O293   O     0.50687   0.61837   0.27205   0.00000  Uiso   1.00
O294   O     0.56205   0.39716   0.00923   0.00000  Uiso   1.00
O295   O     0.57655   0.42995   0.08288   0.00000  Uiso   1.00
O296   O     0.50000   0.56108   0.12846   0.00000  Uiso   1.00
O297   O     0.49313   0.38163   0.06128   0.00000  Uiso   1.00
O298   O     0.50000   0.43893   0.12843   0.00000  Uiso   1.00
O299   O     0.50000   0.56107   0.20490   0.00000  Uiso   1.00
O300   O     0.42392   0.50000   0.19595   0.00000  Uiso   1.00
O301   O     0.57608   0.50000   0.13739   0.00000  Uiso   1.00
O302   O     0.42392   0.50000   0.11950   0.00000  Uiso   1.00
O303   O     0.57608   0.50000   0.21383   0.00000  Uiso   1.00
O304   O     0.58584   0.56498   0.08932   0.00000  Uiso   1.00
S305   S     0.54856   0.57917   0.05000   0.00000  Uiso   1.00
S306   S     0.45144   0.42083   0.28333   0.00000  Uiso   1.00
S307   S     0.46508   0.58236   0.28853   0.00000  Uiso   1.00
S308   S     0.53492   0.41764   0.04480   0.00000  Uiso   1.00
Zn309  Zn    0.50000   0.49999   0.21771   0.00000  Uiso   1.00
Zn310  Zn    0.50000   0.50001   0.11563   0.00000  Uiso   1.00
C311   C     0.83324   0.42045   0.16632   0.00000  Uiso   1.00
C312   C     0.78495   0.35463   0.15939   0.00000  Uiso   1.00
C313   C     0.83337   0.62380   0.16766   0.00000  Uiso   1.00
C314   C     0.83330   0.37620   0.16567   0.00000  Uiso   1.00
C315   C     0.84178   0.53646   0.02483   0.00000  Uiso   1.00
C316   C     0.82489   0.46354   0.30850   0.00000  Uiso   1.00
C317   C     0.83236   0.53694   0.31070   0.00000  Uiso   1.00
C318   C     0.83431   0.46306   0.02263   0.00000  Uiso   1.00
C319   C     0.83343   0.57955   0.16702   0.00000  Uiso   1.00
C320   C     0.73407   0.49993   0.15496   0.00000  Uiso   1.00
C321   C     0.93260   0.50007   0.17837   0.00000  Uiso   1.00
C322   C     0.67895   0.49964   0.14876   0.00000  Uiso   1.00
C323   C     0.98772   0.50036   0.18458   0.00000  Uiso   1.00
C324   C     0.88168   0.35589   0.17286   0.00000  Uiso   1.00
C325   C     0.78499   0.64411   0.16047   0.00000  Uiso   1.00
C326   C     0.88171   0.64537   0.17394   0.00000  Uiso   1.00
H327   H     0.99207   0.49873   0.11467   0.00000  Uiso   1.00
H328   H     0.71479   0.37022   0.17814   0.00000  Uiso   1.00
H329   H     0.86958   0.64125   0.07671   0.00000  Uiso   1.00
H330   H     0.79708   0.35876   0.25661   0.00000  Uiso   1.00
H331   H     0.87360   0.60345   0.27063   0.00000  Uiso   1.00
H332   H     0.79307   0.39655   0.06270   0.00000  Uiso   1.00
H333   H     0.67460   0.50127   0.21867   0.00000  Uiso   1.00
H334   H     0.95119   0.37317   0.20962   0.00000  Uiso   1.00
H335   H     0.95179   0.37140   0.15349   0.00000  Uiso   1.00
H336   H     0.71547   0.62683   0.12371   0.00000  Uiso   1.00
H337   H     0.71488   0.62860   0.17984   0.00000  Uiso   1.00
H338   H     0.95124   0.63177   0.21129   0.00000  Uiso   1.00
H339   H     0.95188   0.62978   0.15519   0.00000  Uiso   1.00
H340   H     0.71542   0.36823   0.12204   0.00000  Uiso   1.00
N341   N     0.83332   0.49999   0.28573   0.00000  Uiso   1.00
N342   N     0.83335   0.50001   0.04760   0.00000  Uiso   1.00
N343   N     0.92985   0.38018   0.17869   0.00000  Uiso   1.00
N344   N     0.73682   0.61982   0.15464   0.00000  Uiso   1.00
N345   N     0.92994   0.62231   0.18068   0.00000  Uiso   1.00
N346   N     0.73673   0.37769   0.15265   0.00000  Uiso   1.00
O347   O     0.83333   0.43892   0.20487   0.00000  Uiso   1.00
O348   O     0.91436   0.59659   0.01666   0.00000  Uiso   1.00
O349   O     0.84432   0.61825   0.06577   0.00000  Uiso   1.00
O350   O     0.75230   0.40341   0.31667   0.00000  Uiso   1.00
O351   O     0.74749   0.43502   0.24401   0.00000  Uiso   1.00
O352   O     0.82234   0.38175   0.26756   0.00000  Uiso   1.00
O353   O     0.75678   0.57005   0.25046   0.00000  Uiso   1.00
O354   O     0.77128   0.60284   0.32411   0.00000  Uiso   1.00
O355   O     0.84020   0.61837   0.27205   0.00000  Uiso   1.00
O356   O     0.89539   0.39716   0.00923   0.00000  Uiso   1.00
O357   O     0.90989   0.42995   0.08288   0.00000  Uiso   1.00
O358   O     0.83334   0.56108   0.12846   0.00000  Uiso   1.00
O359   O     0.82647   0.38163   0.06128   0.00000  Uiso   1.00
O360   O     0.83333   0.43893   0.12843   0.00000  Uiso   1.00
O361   O     0.83334   0.56107   0.20490   0.00000  Uiso   1.00
O362   O     0.75725   0.50000   0.19595   0.00000  Uiso   1.00
O363   O     0.90942   0.50000   0.13739   0.00000  Uiso   1.00
O364   O     0.75725   0.50000   0.11950   0.00000  Uiso   1.00
O365   O     0.90942   0.50000   0.21383   0.00000  Uiso   1.00
O366   O     0.91917   0.56498   0.08932   0.00000  Uiso   1.00
S367   S     0.88189   0.57917   0.05000   0.00000  Uiso   1.00
S368   S     0.78477   0.42083   0.28333   0.00000  Uiso   1.00
S369   S     0.79841   0.58236   0.28853   0.00000  Uiso   1.00
S370   S     0.86825   0.41764   0.04480   0.00000  Uiso   1.00
Zn371  Zn    0.83333   0.49999   0.21771   0.00000  Uiso   1.00
Zn372  Zn    0.83333   0.50001   0.11563   0.00000  Uiso   1.00
C373   C     0.16657   0.75378   0.16632   0.00000  Uiso   1.00
C374   C     0.11829   0.68797   0.15939   0.00000  Uiso   1.00
C375   C     0.16670   0.95714   0.16766   0.00000  Uiso   1.00
C376   C     0.16663   0.70953   0.16567   0.00000  Uiso   1.00
C377   C     0.17511   0.86980   0.02483   0.00000  Uiso   1.00
C378   C     0.15822   0.79687   0.30850   0.00000  Uiso   1.00
C379   C     0.16569   0.87027   0.31070   0.00000  Uiso   1.00
C380   C     0.16764   0.79639   0.02263   0.00000  Uiso   1.00
C381   C     0.16676   0.91289   0.16702   0.00000  Uiso   1.00
C382   C     0.06741   0.83326   0.15496   0.00000  Uiso   1.00
C383   C     0.26593   0.83341   0.17837   0.00000  Uiso   1.00
C384   C     0.01228   0.83297   0.14876   0.00000  Uiso   1.00
C385   C     0.32105   0.83370   0.18458   0.00000  Uiso   1.00
C386   C     0.21501   0.68922   0.17286   0.00000  Uiso   1.00
C387   C     0.11832   0.97744   0.16047   0.00000  Uiso   1.00
C388   C     0.21505   0.97870   0.17394   0.00000  Uiso   1.00
H389   H     0.32540   0.83206   0.11467   0.00000  Uiso   1.00
H390   H     0.04812   0.70355   0.17814   0.00000  Uiso   1.00
H391   H     0.20292   0.97458   0.07671   0.00000  Uiso   1.00
H392   H     0.13042   0.69209   0.25661   0.00000  Uiso   1.00
H393   H     0.20693   0.93679   0.27063   0.00000  Uiso   1.00
H394   H     0.12640   0.72988   0.06270   0.00000  Uiso   1.00
H395   H     0.00793   0.83461   0.21867   0.00000  Uiso   1.00
H396   H     0.28453   0.70650   0.20962   0.00000  Uiso   1.00
H397   H     0.28512   0.70473   0.15349   0.00000  Uiso   1.00
H398   H     0.04881   0.96016   0.12371   0.00000  Uiso   1.00
H399   H     0.04821   0.96194   0.17984   0.00000  Uiso   1.00
H400   H     0.28458   0.96511   0.21129   0.00000  Uiso   1.00
H401   H     0.28521   0.96312   0.15519   0.00000  Uiso   1.00
H402   H     0.04876   0.70156   0.12204   0.00000  Uiso   1.00
N403   N     0.16665   0.83332   0.28573   0.00000  Uiso   1.00
N404   N     0.16668   0.83334   0.04760   0.00000  Uiso   1.00
N405   N     0.26318   0.71351   0.17869   0.00000  Uiso   1.00
N406   N     0.07015   0.95316   0.15464   0.00000  Uiso   1.00
N407   N     0.26327   0.95564   0.18068   0.00000  Uiso   1.00
N408   N     0.07006   0.71102   0.15265   0.00000  Uiso   1.00
O409   O     0.16666   0.77225   0.20487   0.00000  Uiso   1.00
O410   O     0.24770   0.92992   0.01666   0.00000  Uiso   1.00
O411   O     0.17766   0.95158   0.06577   0.00000  Uiso   1.00
O412   O     0.08564   0.73674   0.31667   0.00000  Uiso   1.00
O413   O     0.08083   0.76835   0.24401   0.00000  Uiso   1.00
O414   O     0.15568   0.71509   0.26756   0.00000  Uiso   1.00
O415   O     0.09011   0.90338   0.25046   0.00000  Uiso   1.00
O416   O     0.10461   0.93617   0.32411   0.00000  Uiso   1.00
O417   O     0.17353   0.95170   0.27205   0.00000  Uiso   1.00
O418   O     0.22872   0.73049   0.00923   0.00000  Uiso   1.00
O419   O     0.24322   0.76328   0.08288   0.00000  Uiso   1.00
O420   O     0.16667   0.89442   0.12846   0.00000  Uiso   1.00
O421   O     0.15980   0.71497   0.06128   0.00000  Uiso   1.00
O422   O     0.16666   0.77226   0.12843   0.00000  Uiso   1.00
O423   O     0.16667   0.89441   0.20490   0.00000  Uiso   1.00
O424   O     0.09058   0.83333   0.19595   0.00000  Uiso   1.00
O425   O     0.24275   0.83334   0.13739   0.00000  Uiso   1.00
O426   O     0.09058   0.83334   0.11950   0.00000  Uiso   1.00
O427   O     0.24275   0.83333   0.21383   0.00000  Uiso   1.00
O428   O     0.25251   0.89832   0.08932   0.00000  Uiso   1.00
S429   S     0.21523   0.91250   0.05000   0.00000  Uiso   1.00
S430   S     0.11811   0.75417   0.28333   0.00000  Uiso   1.00
S431   S     0.13175   0.91569   0.28853   0.00000  Uiso   1.00
S432   S     0.20159   0.75098   0.04480   0.00000  Uiso   1.00
Zn433  Zn    0.16667   0.83333   0.21771   0.00000  Uiso   1.00
Zn434  Zn    0.16667   0.83334   0.11563   0.00000  Uiso   1.00
C435   C     0.49990   0.75378   0.16632   0.00000  Uiso   1.00
C436   C     0.45162   0.68797   0.15939   0.00000  Uiso   1.00
C437   C     0.50003   0.95714   0.16766   0.00000  Uiso   1.00
C438   C     0.49997   0.70953   0.16567   0.00000  Uiso   1.00
C439   C     0.50844   0.86980   0.02483   0.00000  Uiso   1.00
C440   C     0.49156   0.79687   0.30850   0.00000  Uiso   1.00
C441   C     0.49902   0.87027   0.31070   0.00000  Uiso   1.00
C442   C     0.50098   0.79639   0.02263   0.00000  Uiso   1.00
C443   C     0.50010   0.91289   0.16702   0.00000  Uiso   1.00
C444   C     0.40074   0.83326   0.15496   0.00000  Uiso   1.00
C445   C     0.59926   0.83341   0.17837   0.00000  Uiso   1.00
C446   C     0.34561   0.83297   0.14876   0.00000  Uiso   1.00
C447   C     0.65439   0.83370   0.18458   0.00000  Uiso   1.00
C448   C     0.54834   0.68922   0.17286   0.00000  Uiso   1.00
C449   C     0.45166   0.97744   0.16047   0.00000  Uiso   1.00
C450   C     0.54838   0.97870   0.17394   0.00000  Uiso   1.00
H451   H     0.65873   0.83206   0.11467   0.00000  Uiso   1.00
H452   H     0.38145   0.70355   0.17814   0.00000  Uiso   1.00
H453   H     0.53625   0.97458   0.07671   0.00000  Uiso   1.00
H454   H     0.46375   0.69209   0.25661   0.00000  Uiso   1.00
H455   H     0.54027   0.93679   0.27063   0.00000  Uiso   1.00
H456   H     0.45973   0.72988   0.06270   0.00000  Uiso   1.00
H457   H     0.34127   0.83461   0.21867   0.00000  Uiso   1.00
H458   H     0.61786   0.70650   0.20962   0.00000  Uiso   1.00
H459   H     0.61845   0.70473   0.15349   0.00000  Uiso   1.00
H460   H     0.38214   0.96016   0.12371   0.00000  Uiso   1.00
H461   H     0.38155   0.96194   0.17984   0.00000  Uiso   1.00
H462   H     0.61791   0.96511   0.21129   0.00000  Uiso   1.00
H463   H     0.61855   0.96312   0.15519   0.00000  Uiso   1.00
H464   H     0.38209   0.70156   0.12204   0.00000  Uiso   1.00
N465   N     0.49999   0.83332   0.28573   0.00000  Uiso   1.00
N466   N     0.50001   0.83334   0.04760   0.00000  Uiso   1.00
N467   N     0.59651   0.71351   0.17869   0.00000  Uiso   1.00
N468   N     0.40349   0.95316   0.15464   0.00000  Uiso   1.00
N469   N     0.59660   0.95564   0.18068   0.00000  Uiso   1.00
N470   N     0.40340   0.71102   0.15265   0.00000  Uiso   1.00
O471   O     0.50000   0.77225   0.20487   0.00000  Uiso   1.00
O472   O     0.58103   0.92992   0.01666   0.00000  Uiso   1.00
O473   O     0.51099   0.95158   0.06577   0.00000  Uiso   1.00
O474   O     0.41897   0.73674   0.31667   0.00000  Uiso   1.00
O475   O     0.41416   0.76835   0.24401   0.00000  Uiso   1.00
O476   O     0.48901   0.71509   0.26756   0.00000  Uiso   1.00
O477   O     0.42345   0.90338   0.25046   0.00000  Uiso   1.00
O478   O     0.43795   0.93617   0.32411   0.00000  Uiso   1.00
O479   O     0.50687   0.95170   0.27205   0.00000  Uiso   1.00
O480   O     0.56205   0.73049   0.00923   0.00000  Uiso   1.00
O481   O     0.57655   0.76328   0.08288   0.00000  Uiso   1.00
O482   O     0.50000   0.89442   0.12846   0.00000  Uiso   1.00
O483   O     0.49313   0.71497   0.06128   0.00000  Uiso   1.00
O484   O     0.50000   0.77226   0.12843   0.00000  Uiso   1.00
O485   O     0.50000   0.89441   0.20490   0.00000  Uiso   1.00
O486   O     0.42392   0.83333   0.19595   0.00000  Uiso   1.00
O487   O     0.57608   0.83334   0.13739   0.00000  Uiso   1.00
O488   O     0.42392   0.83334   0.11950   0.00000  Uiso   1.00
O489   O     0.57608   0.83333   0.21383   0.00000  Uiso   1.00
O490   O     0.58584   0.89832   0.08932   0.00000  Uiso   1.00
S491   S     0.54856   0.91250   0.05000   0.00000  Uiso   1.00
S492   S     0.45144   0.75417   0.28333   0.00000  Uiso   1.00
S493   S     0.46508   0.91569   0.28853   0.00000  Uiso   1.00
S494   S     0.53492   0.75098   0.04480   0.00000  Uiso   1.00
Zn495  Zn    0.50000   0.83333   0.21771   0.00000  Uiso   1.00
Zn496  Zn    0.50000   0.83334   0.11563   0.00000  Uiso   1.00
C497   C     0.83324   0.75378   0.16632   0.00000  Uiso   1.00
C498   C     0.78495   0.68797   0.15939   0.00000  Uiso   1.00
C499   C     0.83337   0.95714   0.16766   0.00000  Uiso   1.00
C500   C     0.83330   0.70953   0.16567   0.00000  Uiso   1.00
C501   C     0.84178   0.86980   0.02483   0.00000  Uiso   1.00
C502   C     0.82489   0.79687   0.30850   0.00000  Uiso   1.00
C503   C     0.83236   0.87027   0.31070   0.00000  Uiso   1.00
C504   C     0.83431   0.79639   0.02263   0.00000  Uiso   1.00
C505   C     0.83343   0.91289   0.16702   0.00000  Uiso   1.00
C506   C     0.73407   0.83326   0.15496   0.00000  Uiso   1.00
C507   C     0.93260   0.83341   0.17837   0.00000  Uiso   1.00
C508   C     0.67895   0.83297   0.14876   0.00000  Uiso   1.00
C509   C     0.98772   0.83370   0.18458   0.00000  Uiso   1.00
C510   C     0.88168   0.68922   0.17286   0.00000  Uiso   1.00
C511   C     0.78499   0.97744   0.16047   0.00000  Uiso   1.00
C512   C     0.88171   0.97870   0.17394   0.00000  Uiso   1.00
H513   H     0.99207   0.83206   0.11467   0.00000  Uiso   1.00
H514   H     0.71479   0.70355   0.17814   0.00000  Uiso   1.00
H515   H     0.86958   0.97458   0.07671   0.00000  Uiso   1.00
H516   H     0.79708   0.69209   0.25661   0.00000  Uiso   1.00
H517   H     0.87360   0.93679   0.27063   0.00000  Uiso   1.00
H518   H     0.79307   0.72988   0.06270   0.00000  Uiso   1.00
H519   H     0.67460   0.83461   0.21867   0.00000  Uiso   1.00
H520   H     0.95119   0.70650   0.20962   0.00000  Uiso   1.00
H521   H     0.95179   0.70473   0.15349   0.00000  Uiso   1.00
H522   H     0.71547   0.96016   0.12371   0.00000  Uiso   1.00
H523   H     0.71488   0.96194   0.17984   0.00000  Uiso   1.00
H524   H     0.95124   0.96511   0.21129   0.00000  Uiso   1.00
H525   H     0.95188   0.96312   0.15519   0.00000  Uiso   1.00
H526   H     0.71542   0.70156   0.12204   0.00000  Uiso   1.00
N527   N     0.83332   0.83332   0.28573   0.00000  Uiso   1.00
N528   N     0.83335   0.83334   0.04760   0.00000  Uiso   1.00
N529   N     0.92985   0.71351   0.17869   0.00000  Uiso   1.00
N530   N     0.73682   0.95316   0.15464   0.00000  Uiso   1.00
N531   N     0.92994   0.95564   0.18068   0.00000  Uiso   1.00
N532   N     0.73673   0.71102   0.15265   0.00000  Uiso   1.00
O533   O     0.83333   0.77225   0.20487   0.00000  Uiso   1.00
O534   O     0.91436   0.92992   0.01666   0.00000  Uiso   1.00
O535   O     0.84432   0.95158   0.06577   0.00000  Uiso   1.00
O536   O     0.75230   0.73674   0.31667   0.00000  Uiso   1.00
O537   O     0.74749   0.76835   0.24401   0.00000  Uiso   1.00
O538   O     0.82234   0.71509   0.26756   0.00000  Uiso   1.00
O539   O     0.75678   0.90338   0.25046   0.00000  Uiso   1.00
O540   O     0.77128   0.93617   0.32411   0.00000  Uiso   1.00
O541   O     0.84020   0.95170   0.27205   0.00000  Uiso   1.00
O542   O     0.89539   0.73049   0.00923   0.00000  Uiso   1.00
O543   O     0.90989   0.76328   0.08288   0.00000  Uiso   1.00
O544   O     0.83334   0.89442   0.12846   0.00000  Uiso   1.00
O545   O     0.82647   0.71497   0.06128   0.00000  Uiso   1.00
O546   O     0.83333   0.77226   0.12843   0.00000  Uiso   1.00
O547   O     0.83334   0.89441   0.20490   0.00000  Uiso   1.00
O548   O     0.75725   0.83333   0.19595   0.00000  Uiso   1.00
O549   O     0.90942   0.83334   0.13739   0.00000  Uiso   1.00
O550   O     0.75725   0.83334   0.11950   0.00000  Uiso   1.00
O551   O     0.90942   0.83333   0.21383   0.00000  Uiso   1.00
O552   O     0.91917   0.89832   0.08932   0.00000  Uiso   1.00
S553   S     0.88189   0.91250   0.05000   0.00000  Uiso   1.00
S554   S     0.78477   0.75417   0.28333   0.00000  Uiso   1.00
S555   S     0.79841   0.91569   0.28853   0.00000  Uiso   1.00
S556   S     0.86825   0.75098   0.04480   0.00000  Uiso   1.00
Zn557  Zn    0.83333   0.83333   0.21771   0.00000  Uiso   1.00
Zn558  Zn    0.83333   0.83334   0.11563   0.00000  Uiso   1.00
C559   C     0.16657   0.08711   0.49965   0.00000  Uiso   1.00
C560   C     0.11829   0.02130   0.49272   0.00000  Uiso   1.00
C561   C     0.16670   0.29047   0.50099   0.00000  Uiso   1.00
C562   C     0.16663   0.04286   0.49900   0.00000  Uiso   1.00
C563   C     0.17511   0.20313   0.35816   0.00000  Uiso   1.00
C564   C     0.15822   0.13020   0.64184   0.00000  Uiso   1.00
C565   C     0.16569   0.20361   0.64403   0.00000  Uiso   1.00
C566   C     0.16764   0.12973   0.35597   0.00000  Uiso   1.00
C567   C     0.16676   0.24622   0.50035   0.00000  Uiso   1.00
C568   C     0.06741   0.16659   0.48830   0.00000  Uiso   1.00
C569   C     0.26593   0.16674   0.51170   0.00000  Uiso   1.00
C570   C     0.01228   0.16630   0.48209   0.00000  Uiso   1.00
C571   C     0.32105   0.16703   0.51791   0.00000  Uiso   1.00
C572   C     0.21501   0.02256   0.50620   0.00000  Uiso   1.00
C573   C     0.11832   0.31078   0.49380   0.00000  Uiso   1.00
C574   C     0.21505   0.31204   0.50728   0.00000  Uiso   1.00
H575   H     0.32540   0.16539   0.44800   0.00000  Uiso   1.00
H576   H     0.04812   0.03688   0.51147   0.00000  Uiso   1.00
H577   H     0.20292   0.30791   0.41005   0.00000  Uiso   1.00
H578   H     0.13042   0.02542   0.58995   0.00000  Uiso   1.00
H579   H     0.20693   0.27012   0.60396   0.00000  Uiso   1.00
H580   H     0.12640   0.06321   0.39604   0.00000  Uiso   1.00
H581   H     0.00793   0.16794   0.55200   0.00000  Uiso   1.00
H582   H     0.28453   0.03984   0.54295   0.00000  Uiso   1.00
H583   H     0.28512   0.03806   0.48683   0.00000  Uiso   1.00
H584   H     0.04881   0.29350   0.45704   0.00000  Uiso   1.00
H585   H     0.04821   0.29527   0.51317   0.00000  Uiso   1.00
H586   H     0.28458   0.29844   0.54463   0.00000  Uiso   1.00
H587   H     0.28521   0.29645   0.48853   0.00000  Uiso   1.00
H588   H     0.04876   0.03489   0.45537   0.00000  Uiso   1.00
N589   N     0.16665   0.16666   0.61907   0.00000  Uiso   1.00
N590   N     0.16668   0.16668   0.38093   0.00000  Uiso   1.00
N591   N     0.26318   0.04684   0.51202   0.00000  Uiso   1.00
N592   N     0.07015   0.28649   0.48798   0.00000  Uiso   1.00
N593   N     0.26327   0.28898   0.51402   0.00000  Uiso   1.00
N594   N     0.07006   0.04436   0.48598   0.00000  Uiso   1.00
O595   O     0.16666   0.10558   0.53821   0.00000  Uiso   1.00
O596   O     0.24770   0.26326   0.35000   0.00000  Uiso   1.00
O597   O     0.17766   0.28491   0.39910   0.00000  Uiso   1.00
O598   O     0.08564   0.07008   0.65000   0.00000  Uiso   1.00
O599   O     0.08083   0.10168   0.57734   0.00000  Uiso   1.00
O600   O     0.15568   0.04842   0.60090   0.00000  Uiso   1.00
O601   O     0.09011   0.23672   0.58379   0.00000  Uiso   1.00
O602   O     0.10461   0.26951   0.65744   0.00000  Uiso   1.00
O603   O     0.17353   0.28503   0.60539   0.00000  Uiso   1.00
O604   O     0.22872   0.06383   0.34256   0.00000  Uiso   1.00
O605   O     0.24322   0.09662   0.41621   0.00000  Uiso   1.00
O606   O     0.16667   0.22775   0.46179   0.00000  Uiso   1.00
O607   O     0.15980   0.04830   0.39461   0.00000  Uiso   1.00
O608   O     0.16666   0.10559   0.46176   0.00000  Uiso   1.00
O609   O     0.16667   0.22774   0.53824   0.00000  Uiso   1.00
O610   O     0.09058   0.16666   0.52928   0.00000  Uiso   1.00
O611   O     0.24275   0.16667   0.47072   0.00000  Uiso   1.00
O612   O     0.09058   0.16667   0.45284   0.00000  Uiso   1.00
O613   O     0.24275   0.16666   0.54716   0.00000  Uiso   1.00
O614   O     0.25251   0.23165   0.42266   0.00000  Uiso   1.00
S615   S     0.21523   0.24584   0.38334   0.00000  Uiso   1.00
S616   S     0.11811   0.08750   0.61666   0.00000  Uiso   1.00
S617   S     0.13175   0.24902   0.62187   0.00000  Uiso   1.00
S618   S     0.20159   0.08431   0.37813   0.00000  Uiso   1.00
Zn619  Zn    0.16667   0.16666   0.55104   0.00000  Uiso   1.00
Zn620  Zn    0.16667   0.16667   0.44896   0.00000  Uiso   1.00
C621   C     0.49990   0.08711   0.49965   0.00000  Uiso   1.00
C622   C     0.45162   0.02130   0.49272   0.00000  Uiso   1.00
C623   C     0.50003   0.29047   0.50099   0.00000  Uiso   1.00
C624   C     0.49997   0.04286   0.49900   0.00000  Uiso   1.00
C625   C     0.50844   0.20313   0.35816   0.00000  Uiso   1.00
C626   C     0.49156   0.13020   0.64184   0.00000  Uiso   1.00
C627   C     0.49902   0.20361   0.64403   0.00000  Uiso   1.00
C628   C     0.50098   0.12973   0.35597   0.00000  Uiso   1.00
C629   C     0.50010   0.24622   0.50035   0.00000  Uiso   1.00
C630   C     0.40074   0.16659   0.48830   0.00000  Uiso   1.00
C631   C     0.59926   0.16674   0.51170   0.00000  Uiso   1.00
C632   C     0.34561   0.16630   0.48209   0.00000  Uiso   1.00
C633   C     0.65439   0.16703   0.51791   0.00000  Uiso   1.00
C634   C     0.54834   0.02256   0.50620   0.00000  Uiso   1.00
C635   C     0.45166   0.31078   0.49380   0.00000  Uiso   1.00
C636   C     0.54838   0.31204   0.50728   0.00000  Uiso   1.00
H637   H     0.65873   0.16539   0.44800   0.00000  Uiso   1.00
H638   H     0.38145   0.03688   0.51147   0.00000  Uiso   1.00
H639   H     0.53625   0.30791   0.41005   0.00000  Uiso   1.00
H640   H     0.46375   0.02542   0.58995   0.00000  Uiso   1.00
H641   H     0.54027   0.27012   0.60396   0.00000  Uiso   1.00
H642   H     0.45973   0.06321   0.39604   0.00000  Uiso   1.00
H643   H     0.34127   0.16794   0.55200   0.00000  Uiso   1.00
H644   H     0.61786   0.03984   0.54295   0.00000  Uiso   1.00
H645   H     0.61845   0.03806   0.48683   0.00000  Uiso   1.00
H646   H     0.38214   0.29350   0.45704   0.00000  Uiso   1.00
H647   H     0.38155   0.29527   0.51317   0.00000  Uiso   1.00
H648   H     0.61791   0.29844   0.54463   0.00000  Uiso   1.00
H649   H     0.61855   0.29645   0.48853   0.00000  Uiso   1.00
H650   H     0.38209   0.03489   0.45537   0.00000  Uiso   1.00
N651   N     0.49999   0.16666   0.61907   0.00000  Uiso   1.00
N652   N     0.50001   0.16668   0.38093   0.00000  Uiso   1.00
N653   N     0.59651   0.04684   0.51202   0.00000  Uiso   1.00
N654   N     0.40349   0.28649   0.48798   0.00000  Uiso   1.00
N655   N     0.59660   0.28898   0.51402   0.00000  Uiso   1.00
N656   N     0.40340   0.04436   0.48598   0.00000  Uiso   1.00
O657   O     0.50000   0.10558   0.53821   0.00000  Uiso   1.00
O658   O     0.58103   0.26326   0.35000   0.00000  Uiso   1.00
O659   O     0.51099   0.28491   0.39910   0.00000  Uiso   1.00
O660   O     0.41897   0.07008   0.65000   0.00000  Uiso   1.00
O661   O     0.41416   0.10168   0.57734   0.00000  Uiso   1.00
O662   O     0.48901   0.04842   0.60090   0.00000  Uiso   1.00
O663   O     0.42345   0.23672   0.58379   0.00000  Uiso   1.00
O664   O     0.43795   0.26951   0.65744   0.00000  Uiso   1.00
O665   O     0.50687   0.28503   0.60539   0.00000  Uiso   1.00
O666   O     0.56205   0.06383   0.34256   0.00000  Uiso   1.00
O667   O     0.57655   0.09662   0.41621   0.00000  Uiso   1.00
O668   O     0.50000   0.22775   0.46179   0.00000  Uiso   1.00
O669   O     0.49313   0.04830   0.39461   0.00000  Uiso   1.00
O670   O     0.50000   0.10559   0.46176   0.00000  Uiso   1.00
O671   O     0.50000   0.22774   0.53824   0.00000  Uiso   1.00
O672   O     0.42392   0.16666   0.52928   0.00000  Uiso   1.00
O673   O     0.57608   0.16667   0.47072   0.00000  Uiso   1.00
O674   O     0.42392   0.16667   0.45284   0.00000  Uiso   1.00
O675   O     0.57608   0.16666   0.54716   0.00000  Uiso   1.00
O676   O     0.58584   0.23165   0.42266   0.00000  Uiso   1.00
S677   S     0.54856   0.24584   0.38334   0.00000  Uiso   1.00
S678   S     0.45144   0.08750   0.61666   0.00000  Uiso   1.00
S679   S     0.46508   0.24902   0.62187   0.00000  Uiso   1.00
S680   S     0.53492   0.08431   0.37813   0.00000  Uiso   1.00
Zn681  Zn    0.50000   0.16666   0.55104   0.00000  Uiso   1.00
Zn682  Zn    0.50000   0.16667   0.44896   0.00000  Uiso   1.00
C683   C     0.83324   0.08711   0.49965   0.00000  Uiso   1.00
C684   C     0.78495   0.02130   0.49272   0.00000  Uiso   1.00
C685   C     0.83337   0.29047   0.50099   0.00000  Uiso   1.00
C686   C     0.83330   0.04286   0.49900   0.00000  Uiso   1.00
C687   C     0.84178   0.20313   0.35816   0.00000  Uiso   1.00
C688   C     0.82489   0.13020   0.64184   0.00000  Uiso   1.00
C689   C     0.83236   0.20361   0.64403   0.00000  Uiso   1.00
C690   C     0.83431   0.12973   0.35597   0.00000  Uiso   1.00
C691   C     0.83343   0.24622   0.50035   0.00000  Uiso   1.00
C692   C     0.73407   0.16659   0.48830   0.00000  Uiso   1.00
C693   C     0.93260   0.16674   0.51170   0.00000  Uiso   1.00
C694   C     0.67895   0.16630   0.48209   0.00000  Uiso   1.00
C695   C     0.98772   0.16703   0.51791   0.00000  Uiso   1.00
C696   C     0.88168   0.02256   0.50620   0.00000  Uiso   1.00
C697   C     0.78499   0.31078   0.49380   0.00000  Uiso   1.00
C698   C     0.88171   0.31204   0.50728   0.00000  Uiso   1.00
H699   H     0.99207   0.16539   0.44800   0.00000  Uiso   1.00
H700   H     0.71479   0.03688   0.51147   0.00000  Uiso   1.00
H701   H     0.86958   0.30791   0.41005   0.00000  Uiso   1.00
H702   H     0.79708   0.02542   0.58995   0.00000  Uiso   1.00
H703   H     0.87360   0.27012   0.60396   0.00000  Uiso   1.00
H704   H     0.79307   0.06321   0.39604   0.00000  Uiso   1.00
H705   H     0.67460   0.16794   0.55200   0.00000  Uiso   1.00
H706   H     0.95119   0.03984   0.54295   0.00000  Uiso   1.00
H707   H     0.95179   0.03806   0.48683   0.00000  Uiso   1.00
H708   H     0.71547   0.29350   0.45704   0.00000  Uiso   1.00
H709   H     0.71488   0.29527   0.51317   0.00000  Uiso   1.00
H710   H     0.95124   0.29844   0.54463   0.00000  Uiso   1.00
H711   H     0.95188   0.29645   0.48853   0.00000  Uiso   1.00
H712   H     0.71542   0.03489   0.45537   0.00000  Uiso   1.00
N713   N     0.83332   0.16666   0.61907   0.00000  Uiso   1.00
N714   N     0.83335   0.16668   0.38093   0.00000  Uiso   1.00
N715   N     0.92985   0.04684   0.51202   0.00000  Uiso   1.00
N716   N     0.73682   0.28649   0.48798   0.00000  Uiso   1.00
N717   N     0.92994   0.28898   0.51402   0.00000  Uiso   1.00
N718   N     0.73673   0.04436   0.48598   0.00000  Uiso   1.00
O719   O     0.83333   0.10558   0.53821   0.00000  Uiso   1.00
O720   O     0.91436   0.26326   0.35000   0.00000  Uiso   1.00
O721   O     0.84432   0.28491   0.39910   0.00000  Uiso   1.00
O722   O     0.75230   0.07008   0.65000   0.00000  Uiso   1.00
O723   O     0.74749   0.10168   0.57734   0.00000  Uiso   1.00
O724   O     0.82234   0.04842   0.60090   0.00000  Uiso   1.00
O725   O     0.75678   0.23672   0.58379   0.00000  Uiso   1.00
O726   O     0.77128   0.26951   0.65744   0.00000  Uiso   1.00
O727   O     0.84020   0.28503   0.60539   0.00000  Uiso   1.00
O728   O     0.89539   0.06383   0.34256   0.00000  Uiso   1.00
O729   O     0.90989   0.09662   0.41621   0.00000  Uiso   1.00
O730   O     0.83334   0.22775   0.46179   0.00000  Uiso   1.00
O731   O     0.82647   0.04830   0.39461   0.00000  Uiso   1.00
O732   O     0.83333   0.10559   0.46176   0.00000  Uiso   1.00
O733   O     0.83334   0.22774   0.53824   0.00000  Uiso   1.00
O734   O     0.75725   0.16666   0.52928   0.00000  Uiso   1.00
O735   O     0.90942   0.16667   0.47072   0.00000  Uiso   1.00
O736   O     0.75725   0.16667   0.45284   0.00000  Uiso   1.00
O737   O     0.90942   0.16666   0.54716   0.00000  Uiso   1.00
O738   O     0.91917   0.23165   0.42266   0.00000  Uiso   1.00
S739   S     0.88189   0.24584   0.38334   0.00000  Uiso   1.00
S740   S     0.78477   0.08750   0.61666   0.00000  Uiso   1.00
S741   S     0.79841   0.24902   0.62187   0.00000  Uiso   1.00
S742   S     0.86825   0.08431   0.37813   0.00000  Uiso   1.00
Zn743  Zn    0.83333   0.16666   0.55104   0.00000  Uiso   1.00
Zn744  Zn    0.83333   0.16667   0.44896   0.00000  Uiso   1.00
C745   C     0.16657   0.42045   0.49965   0.00000  Uiso   1.00
C746   C     0.11829   0.35463   0.49272   0.00000  Uiso   1.00
C747   C     0.16670   0.62380   0.50099   0.00000  Uiso   1.00
C748   C     0.16663   0.37620   0.49900   0.00000  Uiso   1.00
C749   C     0.17511   0.53646   0.35816   0.00000  Uiso   1.00
C750   C     0.15822   0.46354   0.64184   0.00000  Uiso   1.00
C751   C     0.16569   0.53694   0.64403   0.00000  Uiso   1.00
C752   C     0.16764   0.46306   0.35597   0.00000  Uiso   1.00
C753   C     0.16676   0.57955   0.50035   0.00000  Uiso   1.00
C754   C     0.06741   0.49993   0.48830   0.00000  Uiso   1.00
C755   C     0.26593   0.50007   0.51170   0.00000  Uiso   1.00
C756   C     0.01228   0.49964   0.48209   0.00000  Uiso   1.00
C757   C     0.32105   0.50036   0.51791   0.00000  Uiso   1.00
C758   C     0.21501   0.35589   0.50620   0.00000  Uiso   1.00
C759   C     0.11832   0.64411   0.49380   0.00000  Uiso   1.00
C760   C     0.21505   0.64537   0.50728   0.00000  Uiso   1.00
H761   H     0.32540   0.49873   0.44800   0.00000  Uiso   1.00
H762   H     0.04812   0.37022   0.51147   0.00000  Uiso   1.00
H763   H     0.20292   0.64125   0.41005   0.00000  Uiso   1.00
H764   H     0.13042   0.35876   0.58995   0.00000  Uiso   1.00
H765   H     0.20693   0.60345   0.60396   0.00000  Uiso   1.00
H766   H     0.12640   0.39655   0.39604   0.00000  Uiso   1.00
H767   H     0.00793   0.50127   0.55200   0.00000  Uiso   1.00
H768   H     0.28453   0.37317   0.54295   0.00000  Uiso   1.00
H769   H     0.28512   0.37140   0.48683   0.00000  Uiso   1.00
H770   H     0.04881   0.62683   0.45704   0.00000  Uiso   1.00
H771   H     0.04821   0.62860   0.51317   0.00000  Uiso   1.00
H772   H     0.28458   0.63177   0.54463   0.00000  Uiso   1.00
H773   H     0.28521   0.62978   0.48853   0.00000  Uiso   1.00
H774   H     0.04876   0.36823   0.45537   0.00000  Uiso   1.00
N775   N     0.16665   0.49999   0.61907   0.00000  Uiso   1.00
N776   N     0.16668   0.50001   0.38093   0.00000  Uiso   1.00
N777   N     0.26318   0.38018   0.51202   0.00000  Uiso   1.00
N778   N     0.07015   0.61982   0.48798   0.00000  Uiso   1.00
N779   N     0.26327   0.62231   0.51402   0.00000  Uiso   1.00
N780   N     0.07006   0.37769   0.48598   0.00000  Uiso   1.00
O781   O     0.16666   0.43892   0.53821   0.00000  Uiso   1.00
O782   O     0.24770   0.59659   0.35000   0.00000  Uiso   1.00
O783   O     0.17766   0.61825   0.39910   0.00000  Uiso   1.00
O784   O     0.08564   0.40341   0.65000   0.00000  Uiso   1.00
O785   O     0.08083   0.43502   0.57734   0.00000  Uiso   1.00
O786   O     0.15568   0.38175   0.60090   0.00000  Uiso   1.00
O787   O     0.09011   0.57005   0.58379   0.00000  Uiso   1.00
O788   O     0.10461   0.60284   0.65744   0.00000  Uiso   1.00
O789   O     0.17353   0.61837   0.60539   0.00000  Uiso   1.00
O790   O     0.22872   0.39716   0.34256   0.00000  Uiso   1.00
O791   O     0.24322   0.42995   0.41621   0.00000  Uiso   1.00
O792   O     0.16667   0.56108   0.46179   0.00000  Uiso   1.00
O793   O     0.15980   0.38163   0.39461   0.00000  Uiso   1.00
O794   O     0.16666   0.43893   0.46176   0.00000  Uiso   1.00
O795   O     0.16667   0.56107   0.53824   0.00000  Uiso   1.00
O796   O     0.09058   0.50000   0.52928   0.00000  Uiso   1.00
O797   O     0.24275   0.50000   0.47072   0.00000  Uiso   1.00
O798   O     0.09058   0.50000   0.45284   0.00000  Uiso   1.00
O799   O     0.24275   0.50000   0.54716   0.00000  Uiso   1.00
O800   O     0.25251   0.56498   0.42266   0.00000  Uiso   1.00
S801   S     0.21523   0.57917   0.38334   0.00000  Uiso   1.00
S802   S     0.11811   0.42083   0.61666   0.00000  Uiso   1.00
S803   S     0.13175   0.58236   0.62187   0.00000  Uiso   1.00
S804   S     0.20159   0.41764   0.37813   0.00000  Uiso   1.00
Zn805  Zn    0.16667   0.49999   0.55104   0.00000  Uiso   1.00
Zn806  Zn    0.16667   0.50001   0.44896   0.00000  Uiso   1.00
C807   C     0.49990   0.42045   0.49965   0.00000  Uiso   1.00
C808   C     0.45162   0.35463   0.49272   0.00000  Uiso   1.00
C809   C     0.50003   0.62380   0.50099   0.00000  Uiso   1.00
C810   C     0.49997   0.37620   0.49900   0.00000  Uiso   1.00
C811   C     0.50844   0.53646   0.35816   0.00000  Uiso   1.00
C812   C     0.49156   0.46354   0.64184   0.00000  Uiso   1.00
C813   C     0.49902   0.53694   0.64403   0.00000  Uiso   1.00
C814   C     0.50098   0.46306   0.35597   0.00000  Uiso   1.00
C815   C     0.50010   0.57955   0.50035   0.00000  Uiso   1.00
C816   C     0.40074   0.49993   0.48830   0.00000  Uiso   1.00
C817   C     0.59926   0.50007   0.51170   0.00000  Uiso   1.00
C818   C     0.34561   0.49964   0.48209   0.00000  Uiso   1.00
C819   C     0.65439   0.50036   0.51791   0.00000  Uiso   1.00
C820   C     0.54834   0.35589   0.50620   0.00000  Uiso   1.00
C821   C     0.45166   0.64411   0.49380   0.00000  Uiso   1.00
C822   C     0.54838   0.64537   0.50728   0.00000  Uiso   1.00
H823   H     0.65873   0.49873   0.44800   0.00000  Uiso   1.00
H824   H     0.38145   0.37022   0.51147   0.00000  Uiso   1.00
H825   H     0.53625   0.64125   0.41005   0.00000  Uiso   1.00
H826   H     0.46375   0.35876   0.58995   0.00000  Uiso   1.00
H827   H     0.54027   0.60345   0.60396   0.00000  Uiso   1.00
H828   H     0.45973   0.39655   0.39604   0.00000  Uiso   1.00
H829   H     0.34127   0.50127   0.55200   0.00000  Uiso   1.00
H830   H     0.61786   0.37317   0.54295   0.00000  Uiso   1.00
H831   H     0.61845   0.37140   0.48683   0.00000  Uiso   1.00
H832   H     0.38214   0.62683   0.45704   0.00000  Uiso   1.00
H833   H     0.38155   0.62860   0.51317   0.00000  Uiso   1.00
H834   H     0.61791   0.63177   0.54463   0.00000  Uiso   1.00
H835   H     0.61855   0.62978   0.48853   0.00000  Uiso   1.00
H836   H     0.38209   0.36823   0.45537   0.00000  Uiso   1.00
N837   N     0.49999   0.49999   0.61907   0.00000  Uiso   1.00
N838   N     0.50001   0.50001   0.38093   0.00000  Uiso   1.00
N839   N     0.59651   0.38018   0.51202   0.00000  Uiso   1.00
N840   N     0.40349   0.61982   0.48798   0.00000  Uiso   1.00
N841   N     0.59660   0.62231   0.51402   0.00000  Uiso   1.00
N842   N     0.40340   0.37769   0.48598   0.00000  Uiso   1.00
O843   O     0.50000   0.43892   0.53821   0.00000  Uiso   1.00
O844   O     0.58103   0.59659   0.35000   0.00000  Uiso   1.00
O845   O     0.51099   0.61825   0.39910   0.00000  Uiso   1.00
O846   O     0.41897   0.40341   0.65000   0.00000  Uiso   1.00
O847   O     0.41416   0.43502   0.57734   0.00000  Uiso   1.00
O848   O     0.48901   0.38175   0.60090   0.00000  Uiso   1.00
O849   O     0.42345   0.57005   0.58379   0.00000  Uiso   1.00
O850   O     0.43795   0.60284   0.65744   0.00000  Uiso   1.00
O851   O     0.50687   0.61837   0.60539   0.00000  Uiso   1.00
O852   O     0.56205   0.39716   0.34256   0.00000  Uiso   1.00
O853   O     0.57655   0.42995   0.41621   0.00000  Uiso   1.00
O854   O     0.50000   0.56108   0.46179   0.00000  Uiso   1.00
O855   O     0.49313   0.38163   0.39461   0.00000  Uiso   1.00
O856   O     0.50000   0.43893   0.46176   0.00000  Uiso   1.00
O857   O     0.50000   0.56107   0.53824   0.00000  Uiso   1.00
O858   O     0.42392   0.50000   0.52928   0.00000  Uiso   1.00
O859   O     0.57608   0.50000   0.47072   0.00000  Uiso   1.00
O860   O     0.42392   0.50000   0.45284   0.00000  Uiso   1.00
O861   O     0.57608   0.50000   0.54716   0.00000  Uiso   1.00
O862   O     0.58584   0.56498   0.42266   0.00000  Uiso   1.00
S863   S     0.54856   0.57917   0.38334   0.00000  Uiso   1.00
S864   S     0.45144   0.42083   0.61666   0.00000  Uiso   1.00
S865   S     0.46508   0.58236   0.62187   0.00000  Uiso   1.00
S866   S     0.53492   0.41764   0.37813   0.00000  Uiso   1.00
Zn867  Zn    0.50000   0.49999   0.55104   0.00000  Uiso   1.00
Zn868  Zn    0.50000   0.50001   0.44896   0.00000  Uiso   1.00
C869   C     0.83324   0.42045   0.49965   0.00000  Uiso   1.00
C870   C     0.78495   0.35463   0.49272   0.00000  Uiso   1.00
C871   C     0.83337   0.62380   0.50099   0.00000  Uiso   1.00
C872   C     0.83330   0.37620   0.49900   0.00000  Uiso   1.00
C873   C     0.84178   0.53646   0.35816   0.00000  Uiso   1.00
C874   C     0.82489   0.46354   0.64184   0.00000  Uiso   1.00
C875   C     0.83236   0.53694   0.64403   0.00000  Uiso   1.00
C876   C     0.83431   0.46306   0.35597   0.00000  Uiso   1.00
C877   C     0.83343   0.57955   0.50035   0.00000  Uiso   1.00
C878   C     0.73407   0.49993   0.48830   0.00000  Uiso   1.00
C879   C     0.93260   0.50007   0.51170   0.00000  Uiso   1.00
C880   C     0.67895   0.49964   0.48209   0.00000  Uiso   1.00
C881   C     0.98772   0.50036   0.51791   0.00000  Uiso   1.00
C882   C     0.88168   0.35589   0.50620   0.00000  Uiso   1.00
C883   C     0.78499   0.64411   0.49380   0.00000  Uiso   1.00
C884   C     0.88171   0.64537   0.50728   0.00000  Uiso   1.00
H885   H     0.99207   0.49873   0.44800   0.00000  Uiso   1.00
H886   H     0.71479   0.37022   0.51147   0.00000  Uiso   1.00
H887   H     0.86958   0.64125   0.41005   0.00000  Uiso   1.00
H888   H     0.79708   0.35876   0.58995   0.00000  Uiso   1.00
H889   H     0.87360   0.60345   0.60396   0.00000  Uiso   1.00
H890   H     0.79307   0.39655   0.39604   0.00000  Uiso   1.00
H891   H     0.67460   0.50127   0.55200   0.00000  Uiso   1.00
H892   H     0.95119   0.37317   0.54295   0.00000  Uiso   1.00
H893   H     0.95179   0.37140   0.48683   0.00000  Uiso   1.00
H894   H     0.71547   0.62683   0.45704   0.00000  Uiso   1.00
H895   H     0.71488   0.62860   0.51317   0.00000  Uiso   1.00
H896   H     0.95124   0.63177   0.54463   0.00000  Uiso   1.00
H897   H     0.95188   0.62978   0.48853   0.00000  Uiso   1.00
H898   H     0.71542   0.36823   0.45537   0.00000  Uiso   1.00
N899   N     0.83332   0.49999   0.61907   0.00000  Uiso   1.00
N900   N     0.83335   0.50001   0.38093   0.00000  Uiso   1.00
N901   N     0.92985   0.38018   0.51202   0.00000  Uiso   1.00
N902   N     0.73682   0.61982   0.48798   0.00000  Uiso   1.00
N903   N     0.92994   0.62231   0.51402   0.00000  Uiso   1.00
N904   N     0.73673   0.37769   0.48598   0.00000  Uiso   1.00
O905   O     0.83333   0.43892   0.53821   0.00000  Uiso   1.00
O906   O     0.91436   0.59659   0.35000   0.00000  Uiso   1.00
O907   O     0.84432   0.61825   0.39910   0.00000  Uiso   1.00
O908   O     0.75230   0.40341   0.65000   0.00000  Uiso   1.00
O909   O     0.74749   0.43502   0.57734   0.00000  Uiso   1.00
O910   O     0.82234   0.38175   0.60090   0.00000  Uiso   1.00
O911   O     0.75678   0.57005   0.58379   0.00000  Uiso   1.00
O912   O     0.77128   0.60284   0.65744   0.00000  Uiso   1.00
O913   O     0.84020   0.61837   0.60539   0.00000  Uiso   1.00
O914   O     0.89539   0.39716   0.34256   0.00000  Uiso   1.00
O915   O     0.90989   0.42995   0.41621   0.00000  Uiso   1.00
O916   O     0.83334   0.56108   0.46179   0.00000  Uiso   1.00
O917   O     0.82647   0.38163   0.39461   0.00000  Uiso   1.00
O918   O     0.83333   0.43893   0.46176   0.00000  Uiso   1.00
O919   O     0.83334   0.56107   0.53824   0.00000  Uiso   1.00
O920   O     0.75725   0.50000   0.52928   0.00000  Uiso   1.00
O921   O     0.90942   0.50000   0.47072   0.00000  Uiso   1.00
O922   O     0.75725   0.50000   0.45284   0.00000  Uiso   1.00
O923   O     0.90942   0.50000   0.54716   0.00000  Uiso   1.00
O924   O     0.91917   0.56498   0.42266   0.00000  Uiso   1.00
S925   S     0.88189   0.57917   0.38334   0.00000  Uiso   1.00
S926   S     0.78477   0.42083   0.61666   0.00000  Uiso   1.00
S927   S     0.79841   0.58236   0.62187   0.00000  Uiso   1.00
S928   S     0.86825   0.41764   0.37813   0.00000  Uiso   1.00
Zn929  Zn    0.83333   0.49999   0.55104   0.00000  Uiso   1.00
Zn930  Zn    0.83333   0.50001   0.44896   0.00000  Uiso   1.00
C931   C     0.16657   0.75378   0.49965   0.00000  Uiso   1.00
C932   C     0.11829   0.68797   0.49272   0.00000  Uiso   1.00
C933   C     0.16670   0.95714   0.50099   0.00000  Uiso   1.00
C934   C     0.16663   0.70953   0.49900   0.00000  Uiso   1.00
C935   C     0.17511   0.86980   0.35816   0.00000  Uiso   1.00
C936   C     0.15822   0.79687   0.64184   0.00000  Uiso   1.00
C937   C     0.16569   0.87027   0.64403   0.00000  Uiso   1.00
C938   C     0.16764   0.79639   0.35597   0.00000  Uiso   1.00
C939   C     0.16676   0.91289   0.50035   0.00000  Uiso   1.00
C940   C     0.06741   0.83326   0.48830   0.00000  Uiso   1.00
C941   C     0.26593   0.83341   0.51170   0.00000  Uiso   1.00
C942   C     0.01228   0.83297   0.48209   0.00000  Uiso   1.00
C943   C     0.32105   0.83370   0.51791   0.00000  Uiso   1.00
C944   C     0.21501   0.68922   0.50620   0.00000  Uiso   1.00
C945   C     0.11832   0.97744   0.49380   0.00000  Uiso   1.00
C946   C     0.21505   0.97870   0.50728   0.00000  Uiso   1.00
H947   H     0.32540   0.83206   0.44800   0.00000  Uiso   1.00
H948   H     0.04812   0.70355   0.51147   0.00000  Uiso   1.00
H949   H     0.20292   0.97458   0.41005   0.00000  Uiso   1.00
H950   H     0.13042   0.69209   0.58995   0.00000  Uiso   1.00
H951   H     0.20693   0.93679   0.60396   0.00000  Uiso   1.00
H952   H     0.12640   0.72988   0.39604   0.00000  Uiso   1.00
H953   H     0.00793   0.83461   0.55200   0.00000  Uiso   1.00
H954   H     0.28453   0.70650   0.54295   0.00000  Uiso   1.00
H955   H     0.28512   0.70473   0.48683   0.00000  Uiso   1.00
H956   H     0.04881   0.96016   0.45704   0.00000  Uiso   1.00
H957   H     0.04821   0.96194   0.51317   0.00000  Uiso   1.00
H958   H     0.28458   0.96511   0.54463   0.00000  Uiso   1.00
H959   H     0.28521   0.96312   0.48853   0.00000  Uiso   1.00
H960   H     0.04876   0.70156   0.45537   0.00000  Uiso   1.00
N961   N     0.16665   0.83332   0.61907   0.00000  Uiso   1.00
N962   N     0.16668   0.83334   0.38093   0.00000  Uiso   1.00
N963   N     0.26318   0.71351   0.51202   0.00000  Uiso   1.00
N964   N     0.07015   0.95316   0.48798   0.00000  Uiso   1.00
N965   N     0.26327   0.95564   0.51402   0.00000  Uiso   1.00
N966   N     0.07006   0.71102   0.48598   0.00000  Uiso   1.00
O967   O     0.16666   0.77225   0.53821   0.00000  Uiso   1.00
O968   O     0.24770   0.92992   0.35000   0.00000  Uiso   1.00
O969   O     0.17766   0.95158   0.39910   0.00000  Uiso   1.00
O970   O     0.08564   0.73674   0.65000   0.00000  Uiso   1.00
O971   O     0.08083   0.76835   0.57734   0.00000  Uiso   1.00
O972   O     0.15568   0.71509   0.60090   0.00000  Uiso   1.00
O973   O     0.09011   0.90338   0.58379   0.00000  Uiso   1.00
O974   O     0.10461   0.93617   0.65744   0.00000  Uiso   1.00
O975   O     0.17353   0.95170   0.60539   0.00000  Uiso   1.00
O976   O     0.22872   0.73049   0.34256   0.00000  Uiso   1.00
O977   O     0.24322   0.76328   0.41621   0.00000  Uiso   1.00
O978   O     0.16667   0.89442   0.46179   0.00000  Uiso   1.00
O979   O     0.15980   0.71497   0.39461   0.00000  Uiso   1.00
O980   O     0.16666   0.77226   0.46176   0.00000  Uiso   1.00
O981   O     0.16667   0.89441   0.53824   0.00000  Uiso   1.00
O982   O     0.09058   0.83333   0.52928   0.00000  Uiso   1.00
O983   O     0.24275   0.83334   0.47072   0.00000  Uiso   1.00
O984   O     0.09058   0.83334   0.45284   0.00000  Uiso   1.00
O985   O     0.24275   0.83333   0.54716   0.00000  Uiso   1.00
O986   O     0.25251   0.89832   0.42266   0.00000  Uiso   1.00
S987   S     0.21523   0.91250   0.38334   0.00000  Uiso   1.00
S988   S     0.11811   0.75417   0.61666   0.00000  Uiso   1.00
S989   S     0.13175   0.91569   0.62187   0.00000  Uiso   1.00
S990   S     0.20159   0.75098   0.37813   0.00000  Uiso   1.00
Zn991  Zn    0.16667   0.83333   0.55104   0.00000  Uiso   1.00
Zn992  Zn    0.16667   0.83334   0.44896   0.00000  Uiso   1.00
C993   C     0.49990   0.75378   0.49965   0.00000  Uiso   1.00
C994   C     0.45162   0.68797   0.49272   0.00000  Uiso   1.00
C995   C     0.50003   0.95714   0.50099   0.00000  Uiso   1.00
C996   C     0.49997   0.70953   0.49900   0.00000  Uiso   1.00
C997   C     0.50844   0.86980   0.35816   0.00000  Uiso   1.00
C998   C     0.49156   0.79687   0.64184   0.00000  Uiso   1.00
C999   C     0.49902   0.87027   0.64403   0.00000  Uiso   1.00
C1000  C     0.50098   0.79639   0.35597   0.00000  Uiso   1.00
C1001  C     0.50010   0.91289   0.50035   0.00000  Uiso   1.00
C1002  C     0.40074   0.83326   0.48830   0.00000  Uiso   1.00
C1003  C     0.59926   0.83341   0.51170   0.00000  Uiso   1.00
C1004  C     0.34561   0.83297   0.48209   0.00000  Uiso   1.00
C1005  C     0.65439   0.83370   0.51791   0.00000  Uiso   1.00
C1006  C     0.54834   0.68922   0.50620   0.00000  Uiso   1.00
C1007  C     0.45166   0.97744   0.49380   0.00000  Uiso   1.00
C1008  C     0.54838   0.97870   0.50728   0.00000  Uiso   1.00
H1009  H     0.65873   0.83206   0.44800   0.00000  Uiso   1.00
H1010  H     0.38145   0.70355   0.51147   0.00000  Uiso   1.00
H1011  H     0.53625   0.97458   0.41005   0.00000  Uiso   1.00
H1012  H     0.46375   0.69209   0.58995   0.00000  Uiso   1.00
H1013  H     0.54027   0.93679   0.60396   0.00000  Uiso   1.00
H1014  H     0.45973   0.72988   0.39604   0.00000  Uiso   1.00
H1015  H     0.34127   0.83461   0.55200   0.00000  Uiso   1.00
H1016  H     0.61786   0.70650   0.54295   0.00000  Uiso   1.00
H1017  H     0.61845   0.70473   0.48683   0.00000  Uiso   1.00
H1018  H     0.38214   0.96016   0.45704   0.00000  Uiso   1.00
H1019  H     0.38155   0.96194   0.51317   0.00000  Uiso   1.00
H1020  H     0.61791   0.96511   0.54463   0.00000  Uiso   1.00
H1021  H     0.61855   0.96312   0.48853   0.00000  Uiso   1.00
H1022  H     0.38209   0.70156   0.45537   0.00000  Uiso   1.00
N1023  N     0.49999   0.83332   0.61907   0.00000  Uiso   1.00
N1024  N     0.50001   0.83334   0.38093   0.00000  Uiso   1.00
N1025  N     0.59651   0.71351   0.51202   0.00000  Uiso   1.00
N1026  N     0.40349   0.95316   0.48798   0.00000  Uiso   1.00
N1027  N     0.59660   0.95564   0.51402   0.00000  Uiso   1.00
N1028  N     0.40340   0.71102   0.48598   0.00000  Uiso   1.00
O1029  O     0.50000   0.77225   0.53821   0.00000  Uiso   1.00
O1030  O     0.58103   0.92992   0.35000   0.00000  Uiso   1.00
O1031  O     0.51099   0.95158   0.39910   0.00000  Uiso   1.00
O1032  O     0.41897   0.73674   0.65000   0.00000  Uiso   1.00
O1033  O     0.41416   0.76835   0.57734   0.00000  Uiso   1.00
O1034  O     0.48901   0.71509   0.60090   0.00000  Uiso   1.00
O1035  O     0.42345   0.90338   0.58379   0.00000  Uiso   1.00
O1036  O     0.43795   0.93617   0.65744   0.00000  Uiso   1.00
O1037  O     0.50687   0.95170   0.60539   0.00000  Uiso   1.00
O1038  O     0.56205   0.73049   0.34256   0.00000  Uiso   1.00
O1039  O     0.57655   0.76328   0.41621   0.00000  Uiso   1.00
O1040  O     0.50000   0.89442   0.46179   0.00000  Uiso   1.00
O1041  O     0.49313   0.71497   0.39461   0.00000  Uiso   1.00
O1042  O     0.50000   0.77226   0.46176   0.00000  Uiso   1.00
O1043  O     0.50000   0.89441   0.53824   0.00000  Uiso   1.00
O1044  O     0.42392   0.83333   0.52928   0.00000  Uiso   1.00
O1045  O     0.57608   0.83334   0.47072   0.00000  Uiso   1.00
O1046  O     0.42392   0.83334   0.45284   0.00000  Uiso   1.00
O1047  O     0.57608   0.83333   0.54716   0.00000  Uiso   1.00
O1048  O     0.58584   0.89832   0.42266   0.00000  Uiso   1.00
S1049  S     0.54856   0.91250   0.38334   0.00000  Uiso   1.00
S1050  S     0.45144   0.75417   0.61666   0.00000  Uiso   1.00
S1051  S     0.46508   0.91569   0.62187   0.00000  Uiso   1.00
S1052  S     0.53492   0.75098   0.37813   0.00000  Uiso   1.00
Zn1053 Zn    0.50000   0.83333   0.55104   0.00000  Uiso   1.00
Zn1054 Zn    0.50000   0.83334   0.44896   0.00000  Uiso   1.00
C1055  C     0.83324   0.75378   0.49965   0.00000  Uiso   1.00
C1056  C     0.78495   0.68797   0.49272   0.00000  Uiso   1.00
C1057  C     0.83337   0.95714   0.50099   0.00000  Uiso   1.00
C1058  C     0.83330   0.70953   0.49900   0.00000  Uiso   1.00
C1059  C     0.84178   0.86980   0.35816   0.00000  Uiso   1.00
C1060  C     0.82489   0.79687   0.64184   0.00000  Uiso   1.00
C1061  C     0.83236   0.87027   0.64403   0.00000  Uiso   1.00
C1062  C     0.83431   0.79639   0.35597   0.00000  Uiso   1.00
C1063  C     0.83343   0.91289   0.50035   0.00000  Uiso   1.00
C1064  C     0.73407   0.83326   0.48830   0.00000  Uiso   1.00
C1065  C     0.93260   0.83341   0.51170   0.00000  Uiso   1.00
C1066  C     0.67895   0.83297   0.48209   0.00000  Uiso   1.00
C1067  C     0.98772   0.83370   0.51791   0.00000  Uiso   1.00
C1068  C     0.88168   0.68922   0.50620   0.00000  Uiso   1.00
C1069  C     0.78499   0.97744   0.49380   0.00000  Uiso   1.00
C1070  C     0.88171   0.97870   0.50728   0.00000  Uiso   1.00
H1071  H     0.99207   0.83206   0.44800   0.00000  Uiso   1.00
H1072  H     0.71479   0.70355   0.51147   0.00000  Uiso   1.00
H1073  H     0.86958   0.97458   0.41005   0.00000  Uiso   1.00
H1074  H     0.79708   0.69209   0.58995   0.00000  Uiso   1.00
H1075  H     0.87360   0.93679   0.60396   0.00000  Uiso   1.00
H1076  H     0.79307   0.72988   0.39604   0.00000  Uiso   1.00
H1077  H     0.67460   0.83461   0.55200   0.00000  Uiso   1.00
H1078  H     0.95119   0.70650   0.54295   0.00000  Uiso   1.00
H1079  H     0.95179   0.70473   0.48683   0.00000  Uiso   1.00
H1080  H     0.71547   0.96016   0.45704   0.00000  Uiso   1.00
H1081  H     0.71488   0.96194   0.51317   0.00000  Uiso   1.00
H1082  H     0.95124   0.96511   0.54463   0.00000  Uiso   1.00
H1083  H     0.95188   0.96312   0.48853   0.00000  Uiso   1.00
H1084  H     0.71542   0.70156   0.45537   0.00000  Uiso   1.00
N1085  N     0.83332   0.83332   0.61907   0.00000  Uiso   1.00
N1086  N     0.83335   0.83334   0.38093   0.00000  Uiso   1.00
N1087  N     0.92985   0.71351   0.51202   0.00000  Uiso   1.00
N1088  N     0.73682   0.95316   0.48798   0.00000  Uiso   1.00
N1089  N     0.92994   0.95564   0.51402   0.00000  Uiso   1.00
N1090  N     0.73673   0.71102   0.48598   0.00000  Uiso   1.00
O1091  O     0.83333   0.77225   0.53821   0.00000  Uiso   1.00
O1092  O     0.91436   0.92992   0.35000   0.00000  Uiso   1.00
O1093  O     0.84432   0.95158   0.39910   0.00000  Uiso   1.00
O1094  O     0.75230   0.73674   0.65000   0.00000  Uiso   1.00
O1095  O     0.74749   0.76835   0.57734   0.00000  Uiso   1.00
O1096  O     0.82234   0.71509   0.60090   0.00000  Uiso   1.00
O1097  O     0.75678   0.90338   0.58379   0.00000  Uiso   1.00
O1098  O     0.77128   0.93617   0.65744   0.00000  Uiso   1.00
O1099  O     0.84020   0.95170   0.60539   0.00000  Uiso   1.00
O1100  O     0.89539   0.73049   0.34256   0.00000  Uiso   1.00
O1101  O     0.90989   0.76328   0.41621   0.00000  Uiso   1.00
O1102  O     0.83334   0.89442   0.46179   0.00000  Uiso   1.00
O1103  O     0.82647   0.71497   0.39461   0.00000  Uiso   1.00
O1104  O     0.83333   0.77226   0.46176   0.00000  Uiso   1.00
O1105  O     0.83334   0.89441   0.53824   0.00000  Uiso   1.00
O1106  O     0.75725   0.83333   0.52928   0.00000  Uiso   1.00
O1107  O     0.90942   0.83334   0.47072   0.00000  Uiso   1.00
O1108  O     0.75725   0.83334   0.45284   0.00000  Uiso   1.00
O1109  O     0.90942   0.83333   0.54716   0.00000  Uiso   1.00
O1110  O     0.91917   0.89832   0.42266   0.00000  Uiso   1.00
S1111  S     0.88189   0.91250   0.38334   0.00000  Uiso   1.00
S1112  S     0.78477   0.75417   0.61666   0.00000  Uiso   1.00
S1113  S     0.79841   0.91569   0.62187   0.00000  Uiso   1.00
S1114  S     0.86825   0.75098   0.37813   0.00000  Uiso   1.00
Zn1115 Zn    0.83333   0.83333   0.55104   0.00000  Uiso   1.00
Zn1116 Zn    0.83333   0.83334   0.44896   0.00000  Uiso   1.00
C1117  C     0.16657   0.08711   0.83298   0.00000  Uiso   1.00
C1118  C     0.11829   0.02130   0.82606   0.00000  Uiso   1.00
C1119  C     0.16670   0.29047   0.83433   0.00000  Uiso   1.00
C1120  C     0.16663   0.04286   0.83234   0.00000  Uiso   1.00
C1121  C     0.17511   0.20313   0.69150   0.00000  Uiso   1.00
C1122  C     0.15822   0.13020   0.97517   0.00000  Uiso   1.00
C1123  C     0.16569   0.20361   0.97737   0.00000  Uiso   1.00
C1124  C     0.16764   0.12973   0.68930   0.00000  Uiso   1.00
C1125  C     0.16676   0.24622   0.83368   0.00000  Uiso   1.00
C1126  C     0.06741   0.16659   0.82163   0.00000  Uiso   1.00
C1127  C     0.26593   0.16674   0.84504   0.00000  Uiso   1.00
C1128  C     0.01228   0.16630   0.81542   0.00000  Uiso   1.00
C1129  C     0.32105   0.16703   0.85124   0.00000  Uiso   1.00
C1130  C     0.21501   0.02256   0.83953   0.00000  Uiso   1.00
C1131  C     0.11832   0.31078   0.82714   0.00000  Uiso   1.00
C1132  C     0.21505   0.31204   0.84061   0.00000  Uiso   1.00
H1133  H     0.32540   0.16539   0.78133   0.00000  Uiso   1.00
H1134  H     0.04812   0.03688   0.84481   0.00000  Uiso   1.00
H1135  H     0.20292   0.30791   0.74338   0.00000  Uiso   1.00
H1136  H     0.13042   0.02542   0.92328   0.00000  Uiso   1.00
H1137  H     0.20693   0.27012   0.93730   0.00000  Uiso   1.00
H1138  H     0.12640   0.06321   0.72937   0.00000  Uiso   1.00
H1139  H     0.00793   0.16794   0.88533   0.00000  Uiso   1.00
H1140  H     0.28453   0.03984   0.87629   0.00000  Uiso   1.00
H1141  H     0.28512   0.03806   0.82016   0.00000  Uiso   1.00
H1142  H     0.04881   0.29350   0.79038   0.00000  Uiso   1.00
H1143  H     0.04821   0.29527   0.84651   0.00000  Uiso   1.00
H1144  H     0.28458   0.29844   0.87796   0.00000  Uiso   1.00
H1145  H     0.28521   0.29645   0.82186   0.00000  Uiso   1.00
H1146  H     0.04876   0.03489   0.78870   0.00000  Uiso   1.00
N1147  N     0.16665   0.16666   0.95240   0.00000  Uiso   1.00
N1148  N     0.16668   0.16668   0.71427   0.00000  Uiso   1.00
N1149  N     0.26318   0.04684   0.84536   0.00000  Uiso   1.00
N1150  N     0.07015   0.28649   0.82131   0.00000  Uiso   1.00
N1151  N     0.26327   0.28898   0.84735   0.00000  Uiso   1.00
N1152  N     0.07006   0.04436   0.81932   0.00000  Uiso   1.00
O1153  O     0.16666   0.10558   0.87154   0.00000  Uiso   1.00
O1154  O     0.24770   0.26326   0.68333   0.00000  Uiso   1.00
O1155  O     0.17766   0.28491   0.73244   0.00000  Uiso   1.00
O1156  O     0.08564   0.07008   0.98334   0.00000  Uiso   1.00
O1157  O     0.08083   0.10168   0.91068   0.00000  Uiso   1.00
O1158  O     0.15568   0.04842   0.93423   0.00000  Uiso   1.00
O1159  O     0.09011   0.23672   0.91712   0.00000  Uiso   1.00
O1160  O     0.10461   0.26951   0.99077   0.00000  Uiso   1.00
O1161  O     0.17353   0.28503   0.93872   0.00000  Uiso   1.00
O1162  O     0.22872   0.06383   0.67589   0.00000  Uiso   1.00
O1163  O     0.24322   0.09662   0.74954   0.00000  Uiso   1.00
O1164  O     0.16667   0.22775   0.79513   0.00000  Uiso   1.00
O1165  O     0.15980   0.04830   0.72795   0.00000  Uiso   1.00
O1166  O     0.16666   0.10559   0.79510   0.00000  Uiso   1.00
O1167  O     0.16667   0.22774   0.87157   0.00000  Uiso   1.00
O1168  O     0.09058   0.16666   0.86261   0.00000  Uiso   1.00
O1169  O     0.24275   0.16667   0.80405   0.00000  Uiso   1.00
O1170  O     0.09058   0.16667   0.78617   0.00000  Uiso   1.00
O1171  O     0.24275   0.16666   0.88050   0.00000  Uiso   1.00
O1172  O     0.25251   0.23165   0.75599   0.00000  Uiso   1.00
S1173  S     0.21523   0.24584   0.71667   0.00000  Uiso   1.00
S1174  S     0.11811   0.08750   0.95000   0.00000  Uiso   1.00
S1175  S     0.13175   0.24902   0.95520   0.00000  Uiso   1.00
S1176  S     0.20159   0.08431   0.71147   0.00000  Uiso   1.00
Zn1177 Zn    0.16667   0.16666   0.88437   0.00000  Uiso   1.00
Zn1178 Zn    0.16667   0.16667   0.78229   0.00000  Uiso   1.00
C1179  C     0.49990   0.08711   0.83298   0.00000  Uiso   1.00
C1180  C     0.45162   0.02130   0.82606   0.00000  Uiso   1.00
C1181  C     0.50003   0.29047   0.83433   0.00000  Uiso   1.00
C1182  C     0.49997   0.04286   0.83234   0.00000  Uiso   1.00
C1183  C     0.50844   0.20313   0.69150   0.00000  Uiso   1.00
C1184  C     0.49156   0.13020   0.97517   0.00000  Uiso   1.00
C1185  C     0.49902   0.20361   0.97737   0.00000  Uiso   1.00
C1186  C     0.50098   0.12973   0.68930   0.00000  Uiso   1.00
C1187  C     0.50010   0.24622   0.83368   0.00000  Uiso   1.00
C1188  C     0.40074   0.16659   0.82163   0.00000  Uiso   1.00
C1189  C     0.59926   0.16674   0.84504   0.00000  Uiso   1.00
C1190  C     0.34561   0.16630   0.81542   0.00000  Uiso   1.00
C1191  C     0.65439   0.16703   0.85124   0.00000  Uiso   1.00
C1192  C     0.54834   0.02256   0.83953   0.00000  Uiso   1.00
C1193  C     0.45166   0.31078   0.82714   0.00000  Uiso   1.00
C1194  C     0.54838   0.31204   0.84061   0.00000  Uiso   1.00
H1195  H     0.65873   0.16539   0.78133   0.00000  Uiso   1.00
H1196  H     0.38145   0.03688   0.84481   0.00000  Uiso   1.00
H1197  H     0.53625   0.30791   0.74338   0.00000  Uiso   1.00
H1198  H     0.46375   0.02542   0.92328   0.00000  Uiso   1.00
H1199  H     0.54027   0.27012   0.93730   0.00000  Uiso   1.00
H1200  H     0.45973   0.06321   0.72937   0.00000  Uiso   1.00
H1201  H     0.34127   0.16794   0.88533   0.00000  Uiso   1.00
H1202  H     0.61786   0.03984   0.87629   0.00000  Uiso   1.00
H1203  H     0.61845   0.03806   0.82016   0.00000  Uiso   1.00
H1204  H     0.38214   0.29350   0.79038   0.00000  Uiso   1.00
H1205  H     0.38155   0.29527   0.84651   0.00000  Uiso   1.00
H1206  H     0.61791   0.29844   0.87796   0.00000  Uiso   1.00
H1207  H     0.61855   0.29645   0.82186   0.00000  Uiso   1.00
H1208  H     0.38209   0.03489   0.78870   0.00000  Uiso   1.00
N1209  N     0.49999   0.16666   0.95240   0.00000  Uiso   1.00
N1210  N     0.50001   0.16668   0.71427   0.00000  Uiso   1.00
N1211  N     0.59651   0.04684   0.84536   0.00000  Uiso   1.00
N1212  N     0.40349   0.28649   0.82131   0.00000  Uiso   1.00
N1213  N     0.59660   0.28898   0.84735   0.00000  Uiso   1.00
N1214  N     0.40340   0.04436   0.81932   0.00000  Uiso   1.00
O1215  O     0.50000   0.10558   0.87154   0.00000  Uiso   1.00
O1216  O     0.58103   0.26326   0.68333   0.00000  Uiso   1.00
O1217  O     0.51099   0.28491   0.73244   0.00000  Uiso   1.00
O1218  O     0.41897   0.07008   0.98334   0.00000  Uiso   1.00
O1219  O     0.41416   0.10168   0.91068   0.00000  Uiso   1.00
O1220  O     0.48901   0.04842   0.93423   0.00000  Uiso   1.00
O1221  O     0.42345   0.23672   0.91712   0.00000  Uiso   1.00
O1222  O     0.43795   0.26951   0.99077   0.00000  Uiso   1.00
O1223  O     0.50687   0.28503   0.93872   0.00000  Uiso   1.00
O1224  O     0.56205   0.06383   0.67589   0.00000  Uiso   1.00
O1225  O     0.57655   0.09662   0.74954   0.00000  Uiso   1.00
O1226  O     0.50000   0.22775   0.79513   0.00000  Uiso   1.00
O1227  O     0.49313   0.04830   0.72795   0.00000  Uiso   1.00
O1228  O     0.50000   0.10559   0.79510   0.00000  Uiso   1.00
O1229  O     0.50000   0.22774   0.87157   0.00000  Uiso   1.00
O1230  O     0.42392   0.16666   0.86261   0.00000  Uiso   1.00
O1231  O     0.57608   0.16667   0.80405   0.00000  Uiso   1.00
O1232  O     0.42392   0.16667   0.78617   0.00000  Uiso   1.00
O1233  O     0.57608   0.16666   0.88050   0.00000  Uiso   1.00
O1234  O     0.58584   0.23165   0.75599   0.00000  Uiso   1.00
S1235  S     0.54856   0.24584   0.71667   0.00000  Uiso   1.00
S1236  S     0.45144   0.08750   0.95000   0.00000  Uiso   1.00
S1237  S     0.46508   0.24902   0.95520   0.00000  Uiso   1.00
S1238  S     0.53492   0.08431   0.71147   0.00000  Uiso   1.00
Zn1239 Zn    0.50000   0.16666   0.88437   0.00000  Uiso   1.00
Zn1240 Zn    0.50000   0.16667   0.78229   0.00000  Uiso   1.00
C1241  C     0.83324   0.08711   0.83298   0.00000  Uiso   1.00
C1242  C     0.78495   0.02130   0.82606   0.00000  Uiso   1.00
C1243  C     0.83337   0.29047   0.83433   0.00000  Uiso   1.00
C1244  C     0.83330   0.04286   0.83234   0.00000  Uiso   1.00
C1245  C     0.84178   0.20313   0.69150   0.00000  Uiso   1.00
C1246  C     0.82489   0.13020   0.97517   0.00000  Uiso   1.00
C1247  C     0.83236   0.20361   0.97737   0.00000  Uiso   1.00
C1248  C     0.83431   0.12973   0.68930   0.00000  Uiso   1.00
C1249  C     0.83343   0.24622   0.83368   0.00000  Uiso   1.00
C1250  C     0.73407   0.16659   0.82163   0.00000  Uiso   1.00
C1251  C     0.93260   0.16674   0.84504   0.00000  Uiso   1.00
C1252  C     0.67895   0.16630   0.81542   0.00000  Uiso   1.00
C1253  C     0.98772   0.16703   0.85124   0.00000  Uiso   1.00
C1254  C     0.88168   0.02256   0.83953   0.00000  Uiso   1.00
C1255  C     0.78499   0.31078   0.82714   0.00000  Uiso   1.00
C1256  C     0.88171   0.31204   0.84061   0.00000  Uiso   1.00
H1257  H     0.99207   0.16539   0.78133   0.00000  Uiso   1.00
H1258  H     0.71479   0.03688   0.84481   0.00000  Uiso   1.00
H1259  H     0.86958   0.30791   0.74338   0.00000  Uiso   1.00
H1260  H     0.79708   0.02542   0.92328   0.00000  Uiso   1.00
H1261  H     0.87360   0.27012   0.93730   0.00000  Uiso   1.00
H1262  H     0.79307   0.06321   0.72937   0.00000  Uiso   1.00
H1263  H     0.67460   0.16794   0.88533   0.00000  Uiso   1.00
H1264  H     0.95119   0.03984   0.87629   0.00000  Uiso   1.00
H1265  H     0.95179   0.03806   0.82016   0.00000  Uiso   1.00
H1266  H     0.71547   0.29350   0.79038   0.00000  Uiso   1.00
H1267  H     0.71488   0.29527   0.84651   0.00000  Uiso   1.00
H1268  H     0.95124   0.29844   0.87796   0.00000  Uiso   1.00
H1269  H     0.95188   0.29645   0.82186   0.00000  Uiso   1.00
H1270  H     0.71542   0.03489   0.78870   0.00000  Uiso   1.00
N1271  N     0.83332   0.16666   0.95240   0.00000  Uiso   1.00
N1272  N     0.83335   0.16668   0.71427   0.00000  Uiso   1.00
N1273  N     0.92985   0.04684   0.84536   0.00000  Uiso   1.00
N1274  N     0.73682   0.28649   0.82131   0.00000  Uiso   1.00
N1275  N     0.92994   0.28898   0.84735   0.00000  Uiso   1.00
N1276  N     0.73673   0.04436   0.81932   0.00000  Uiso   1.00
O1277  O     0.83333   0.10558   0.87154   0.00000  Uiso   1.00
O1278  O     0.91436   0.26326   0.68333   0.00000  Uiso   1.00
O1279  O     0.84432   0.28491   0.73244   0.00000  Uiso   1.00
O1280  O     0.75230   0.07008   0.98334   0.00000  Uiso   1.00
O1281  O     0.74749   0.10168   0.91068   0.00000  Uiso   1.00
O1282  O     0.82234   0.04842   0.93423   0.00000  Uiso   1.00
O1283  O     0.75678   0.23672   0.91712   0.00000  Uiso   1.00
O1284  O     0.77128   0.26951   0.99077   0.00000  Uiso   1.00
O1285  O     0.84020   0.28503   0.93872   0.00000  Uiso   1.00
O1286  O     0.89539   0.06383   0.67589   0.00000  Uiso   1.00
O1287  O     0.90989   0.09662   0.74954   0.00000  Uiso   1.00
O1288  O     0.83334   0.22775   0.79513   0.00000  Uiso   1.00
O1289  O     0.82647   0.04830   0.72795   0.00000  Uiso   1.00
O1290  O     0.83333   0.10559   0.79510   0.00000  Uiso   1.00
O1291  O     0.83334   0.22774   0.87157   0.00000  Uiso   1.00
O1292  O     0.75725   0.16666   0.86261   0.00000  Uiso   1.00
O1293  O     0.90942   0.16667   0.80405   0.00000  Uiso   1.00
O1294  O     0.75725   0.16667   0.78617   0.00000  Uiso   1.00
O1295  O     0.90942   0.16666   0.88050   0.00000  Uiso   1.00
O1296  O     0.91917   0.23165   0.75599   0.00000  Uiso   1.00
S1297  S     0.88189   0.24584   0.71667   0.00000  Uiso   1.00
S1298  S     0.78477   0.08750   0.95000   0.00000  Uiso   1.00
S1299  S     0.79841   0.24902   0.95520   0.00000  Uiso   1.00
S1300  S     0.86825   0.08431   0.71147   0.00000  Uiso   1.00
Zn1301 Zn    0.83333   0.16666   0.88437   0.00000  Uiso   1.00
Zn1302 Zn    0.83333   0.16667   0.78229   0.00000  Uiso   1.00
C1303  C     0.16657   0.42045   0.83298   0.00000  Uiso   1.00
C1304  C     0.11829   0.35463   0.82606   0.00000  Uiso   1.00
C1305  C     0.16670   0.62380   0.83433   0.00000  Uiso   1.00
C1306  C     0.16663   0.37620   0.83234   0.00000  Uiso   1.00
C1307  C     0.17511   0.53646   0.69150   0.00000  Uiso   1.00
C1308  C     0.15822   0.46354   0.97517   0.00000  Uiso   1.00
C1309  C     0.16569   0.53694   0.97737   0.00000  Uiso   1.00
C1310  C     0.16764   0.46306   0.68930   0.00000  Uiso   1.00
C1311  C     0.16676   0.57955   0.83368   0.00000  Uiso   1.00
C1312  C     0.06741   0.49993   0.82163   0.00000  Uiso   1.00
C1313  C     0.26593   0.50007   0.84504   0.00000  Uiso   1.00
C1314  C     0.01228   0.49964   0.81542   0.00000  Uiso   1.00
C1315  C     0.32105   0.50036   0.85124   0.00000  Uiso   1.00
C1316  C     0.21501   0.35589   0.83953   0.00000  Uiso   1.00
C1317  C     0.11832   0.64411   0.82714   0.00000  Uiso   1.00
C1318  C     0.21505   0.64537   0.84061   0.00000  Uiso   1.00
H1319  H     0.32540   0.49873   0.78133   0.00000  Uiso   1.00
H1320  H     0.04812   0.37022   0.84481   0.00000  Uiso   1.00
H1321  H     0.20292   0.64125   0.74338   0.00000  Uiso   1.00
H1322  H     0.13042   0.35876   0.92328   0.00000  Uiso   1.00
H1323  H     0.20693   0.60345   0.93730   0.00000  Uiso   1.00
H1324  H     0.12640   0.39655   0.72937   0.00000  Uiso   1.00
H1325  H     0.00793   0.50127   0.88533   0.00000  Uiso   1.00
H1326  H     0.28453   0.37317   0.87629   0.00000  Uiso   1.00
H1327  H     0.28512   0.37140   0.82016   0.00000  Uiso   1.00
H1328  H     0.04881   0.62683   0.79038   0.00000  Uiso   1.00
H1329  H     0.04821   0.62860   0.84651   0.00000  Uiso   1.00
H1330  H     0.28458   0.63177   0.87796   0.00000  Uiso   1.00
H1331  H     0.28521   0.62978   0.82186   0.00000  Uiso   1.00
H1332  H     0.04876   0.36823   0.78870   0.00000  Uiso   1.00
N1333  N     0.16665   0.49999   0.95240   0.00000  Uiso   1.00
N1334  N     0.16668   0.50001   0.71427   0.00000  Uiso   1.00
N1335  N     0.26318   0.38018   0.84536   0.00000  Uiso   1.00
N1336  N     0.07015   0.61982   0.82131   0.00000  Uiso   1.00
N1337  N     0.26327   0.62231   0.84735   0.00000  Uiso   1.00
N1338  N     0.07006   0.37769   0.81932   0.00000  Uiso   1.00
O1339  O     0.16666   0.43892   0.87154   0.00000  Uiso   1.00
O1340  O     0.24770   0.59659   0.68333   0.00000  Uiso   1.00
O1341  O     0.17766   0.61825   0.73244   0.00000  Uiso   1.00
O1342  O     0.08564   0.40341   0.98334   0.00000  Uiso   1.00
O1343  O     0.08083   0.43502   0.91068   0.00000  Uiso   1.00
O1344  O     0.15568   0.38175   0.93423   0.00000  Uiso   1.00
O1345  O     0.09011   0.57005   0.91712   0.00000  Uiso   1.00
O1346  O     0.10461   0.60284   0.99077   0.00000  Uiso   1.00
O1347  O     0.17353   0.61837   0.93872   0.00000  Uiso   1.00
O1348  O     0.22872   0.39716   0.67589   0.00000  Uiso   1.00
O1349  O     0.24322   0.42995   0.74954   0.00000  Uiso   1.00
O1350  O     0.16667   0.56108   0.79513   0.00000  Uiso   1.00
O1351  O     0.15980   0.38163   0.72795   0.00000  Uiso   1.00
O1352  O     0.16666   0.43893   0.79510   0.00000  Uiso   1.00
O1353  O     0.16667   0.56107   0.87157   0.00000  Uiso   1.00
O1354  O     0.09058   0.50000   0.86261   0.00000  Uiso   1.00
O1355  O     0.24275   0.50000   0.80405   0.00000  Uiso   1.00
O1356  O     0.09058   0.50000   0.78617   0.00000  Uiso   1.00
O1357  O     0.24275   0.50000   0.88050   0.00000  Uiso   1.00
O1358  O     0.25251   0.56498   0.75599   0.00000  Uiso   1.00
S1359  S     0.21523   0.57917   0.71667   0.00000  Uiso   1.00
S1360  S     0.11811   0.42083   0.95000   0.00000  Uiso   1.00
S1361  S     0.13175   0.58236   0.95520   0.00000  Uiso   1.00
S1362  S     0.20159   0.41764   0.71147   0.00000  Uiso   1.00
Zn1363 Zn    0.16667   0.49999   0.88437   0.00000  Uiso   1.00
Zn1364 Zn    0.16667   0.50001   0.78229   0.00000  Uiso   1.00
C1365  C     0.49990   0.42045   0.83298   0.00000  Uiso   1.00
C1366  C     0.45162   0.35463   0.82606   0.00000  Uiso   1.00
C1367  C     0.50003   0.62380   0.83433   0.00000  Uiso   1.00
C1368  C     0.49997   0.37620   0.83234   0.00000  Uiso   1.00
C1369  C     0.50844   0.53646   0.69150   0.00000  Uiso   1.00
C1370  C     0.49156   0.46354   0.97517   0.00000  Uiso   1.00
C1371  C     0.49902   0.53694   0.97737   0.00000  Uiso   1.00
C1372  C     0.50098   0.46306   0.68930   0.00000  Uiso   1.00
C1373  C     0.50010   0.57955   0.83368   0.00000  Uiso   1.00
C1374  C     0.40074   0.49993   0.82163   0.00000  Uiso   1.00
C1375  C     0.59926   0.50007   0.84504   0.00000  Uiso   1.00
C1376  C     0.34561   0.49964   0.81542   0.00000  Uiso   1.00
C1377  C     0.65439   0.50036   0.85124   0.00000  Uiso   1.00
C1378  C     0.54834   0.35589   0.83953   0.00000  Uiso   1.00
C1379  C     0.45166   0.64411   0.82714   0.00000  Uiso   1.00
C1380  C     0.54838   0.64537   0.84061   0.00000  Uiso   1.00
H1381  H     0.65873   0.49873   0.78133   0.00000  Uiso   1.00
H1382  H     0.38145   0.37022   0.84481   0.00000  Uiso   1.00
H1383  H     0.53625   0.64125   0.74338   0.00000  Uiso   1.00
H1384  H     0.46375   0.35876   0.92328   0.00000  Uiso   1.00
H1385  H     0.54027   0.60345   0.93730   0.00000  Uiso   1.00
H1386  H     0.45973   0.39655   0.72937   0.00000  Uiso   1.00
H1387  H     0.34127   0.50127   0.88533   0.00000  Uiso   1.00
H1388  H     0.61786   0.37317   0.87629   0.00000  Uiso   1.00
H1389  H     0.61845   0.37140   0.82016   0.00000  Uiso   1.00
H1390  H     0.38214   0.62683   0.79038   0.00000  Uiso   1.00
H1391  H     0.38155   0.62860   0.84651   0.00000  Uiso   1.00
H1392  H     0.61791   0.63177   0.87796   0.00000  Uiso   1.00
H1393  H     0.61855   0.62978   0.82186   0.00000  Uiso   1.00
H1394  H     0.38209   0.36823   0.78870   0.00000  Uiso   1.00
N1395  N     0.49999   0.49999   0.95240   0.00000  Uiso   1.00
N1396  N     0.50001   0.50001   0.71427   0.00000  Uiso   1.00
N1397  N     0.59651   0.38018   0.84536   0.00000  Uiso   1.00
N1398  N     0.40349   0.61982   0.82131   0.00000  Uiso   1.00
N1399  N     0.59660   0.62231   0.84735   0.00000  Uiso   1.00
N1400  N     0.40340   0.37769   0.81932   0.00000  Uiso   1.00
O1401  O     0.50000   0.43892   0.87154   0.00000  Uiso   1.00
O1402  O     0.58103   0.59659   0.68333   0.00000  Uiso   1.00
O1403  O     0.51099   0.61825   0.73244   0.00000  Uiso   1.00
O1404  O     0.41897   0.40341   0.98334   0.00000  Uiso   1.00
O1405  O     0.41416   0.43502   0.91068   0.00000  Uiso   1.00
O1406  O     0.48901   0.38175   0.93423   0.00000  Uiso   1.00
O1407  O     0.42345   0.57005   0.91712   0.00000  Uiso   1.00
O1408  O     0.43795   0.60284   0.99077   0.00000  Uiso   1.00
O1409  O     0.50687   0.61837   0.93872   0.00000  Uiso   1.00
O1410  O     0.56205   0.39716   0.67589   0.00000  Uiso   1.00
O1411  O     0.57655   0.42995   0.74954   0.00000  Uiso   1.00
O1412  O     0.50000   0.56108   0.79513   0.00000  Uiso   1.00
O1413  O     0.49313   0.38163   0.72795   0.00000  Uiso   1.00
O1414  O     0.50000   0.43893   0.79510   0.00000  Uiso   1.00
O1415  O     0.50000   0.56107   0.87157   0.00000  Uiso   1.00
O1416  O     0.42392   0.50000   0.86261   0.00000  Uiso   1.00
O1417  O     0.57608   0.50000   0.80405   0.00000  Uiso   1.00
O1418  O     0.42392   0.50000   0.78617   0.00000  Uiso   1.00
O1419  O     0.57608   0.50000   0.88050   0.00000  Uiso   1.00
O1420  O     0.58584   0.56498   0.75599   0.00000  Uiso   1.00
S1421  S     0.54856   0.57917   0.71667   0.00000  Uiso   1.00
S1422  S     0.45144   0.42083   0.95000   0.00000  Uiso   1.00
S1423  S     0.46508   0.58236   0.95520   0.00000  Uiso   1.00
S1424  S     0.53492   0.41764   0.71147   0.00000  Uiso   1.00
Zn1425 Zn    0.50000   0.49999   0.88437   0.00000  Uiso   1.00
Zn1426 Zn    0.50000   0.50001   0.78229   0.00000  Uiso   1.00
C1427  C     0.83324   0.42045   0.83298   0.00000  Uiso   1.00
C1428  C     0.78495   0.35463   0.82606   0.00000  Uiso   1.00
C1429  C     0.83337   0.62380   0.83433   0.00000  Uiso   1.00
C1430  C     0.83330   0.37620   0.83234   0.00000  Uiso   1.00
C1431  C     0.84178   0.53646   0.69150   0.00000  Uiso   1.00
C1432  C     0.82489   0.46354   0.97517   0.00000  Uiso   1.00
C1433  C     0.83236   0.53694   0.97737   0.00000  Uiso   1.00
C1434  C     0.83431   0.46306   0.68930   0.00000  Uiso   1.00
C1435  C     0.83343   0.57955   0.83368   0.00000  Uiso   1.00
C1436  C     0.73407   0.49993   0.82163   0.00000  Uiso   1.00
C1437  C     0.93260   0.50007   0.84504   0.00000  Uiso   1.00
C1438  C     0.67895   0.49964   0.81542   0.00000  Uiso   1.00
C1439  C     0.98772   0.50036   0.85124   0.00000  Uiso   1.00
C1440  C     0.88168   0.35589   0.83953   0.00000  Uiso   1.00
C1441  C     0.78499   0.64411   0.82714   0.00000  Uiso   1.00
C1442  C     0.88171   0.64537   0.84061   0.00000  Uiso   1.00
H1443  H     0.99207   0.49873   0.78133   0.00000  Uiso   1.00
H1444  H     0.71479   0.37022   0.84481   0.00000  Uiso   1.00
H1445  H     0.86958   0.64125   0.74338   0.00000  Uiso   1.00
H1446  H     0.79708   0.35876   0.92328   0.00000  Uiso   1.00
H1447  H     0.87360   0.60345   0.93730   0.00000  Uiso   1.00
H1448  H     0.79307   0.39655   0.72937   0.00000  Uiso   1.00
H1449  H     0.67460   0.50127   0.88533   0.00000  Uiso   1.00
H1450  H     0.95119   0.37317   0.87629   0.00000  Uiso   1.00
H1451  H     0.95179   0.37140   0.82016   0.00000  Uiso   1.00
H1452  H     0.71547   0.62683   0.79038   0.00000  Uiso   1.00
H1453  H     0.71488   0.62860   0.84651   0.00000  Uiso   1.00
H1454  H     0.95124   0.63177   0.87796   0.00000  Uiso   1.00
H1455  H     0.95188   0.62978   0.82186   0.00000  Uiso   1.00
H1456  H     0.71542   0.36823   0.78870   0.00000  Uiso   1.00
N1457  N     0.83332   0.49999   0.95240   0.00000  Uiso   1.00
N1458  N     0.83335   0.50001   0.71427   0.00000  Uiso   1.00
N1459  N     0.92985   0.38018   0.84536   0.00000  Uiso   1.00
N1460  N     0.73682   0.61982   0.82131   0.00000  Uiso   1.00
N1461  N     0.92994   0.62231   0.84735   0.00000  Uiso   1.00
N1462  N     0.73673   0.37769   0.81932   0.00000  Uiso   1.00
O1463  O     0.83333   0.43892   0.87154   0.00000  Uiso   1.00
O1464  O     0.91436   0.59659   0.68333   0.00000  Uiso   1.00
O1465  O     0.84432   0.61825   0.73244   0.00000  Uiso   1.00
O1466  O     0.75230   0.40341   0.98334   0.00000  Uiso   1.00
O1467  O     0.74749   0.43502   0.91068   0.00000  Uiso   1.00
O1468  O     0.82234   0.38175   0.93423   0.00000  Uiso   1.00
O1469  O     0.75678   0.57005   0.91712   0.00000  Uiso   1.00
O1470  O     0.77128   0.60284   0.99077   0.00000  Uiso   1.00
O1471  O     0.84020   0.61837   0.93872   0.00000  Uiso   1.00
O1472  O     0.89539   0.39716   0.67589   0.00000  Uiso   1.00
O1473  O     0.90989   0.42995   0.74954   0.00000  Uiso   1.00
O1474  O     0.83334   0.56108   0.79513   0.00000  Uiso   1.00
O1475  O     0.82647   0.38163   0.72795   0.00000  Uiso   1.00
O1476  O     0.83333   0.43893   0.79510   0.00000  Uiso   1.00
O1477  O     0.83334   0.56107   0.87157   0.00000  Uiso   1.00
O1478  O     0.75725   0.50000   0.86261   0.00000  Uiso   1.00
O1479  O     0.90942   0.50000   0.80405   0.00000  Uiso   1.00
O1480  O     0.75725   0.50000   0.78617   0.00000  Uiso   1.00
O1481  O     0.90942   0.50000   0.88050   0.00000  Uiso   1.00
O1482  O     0.91917   0.56498   0.75599   0.00000  Uiso   1.00
S1483  S     0.88189   0.57917   0.71667   0.00000  Uiso   1.00
S1484  S     0.78477   0.42083   0.95000   0.00000  Uiso   1.00
S1485  S     0.79841   0.58236   0.95520   0.00000  Uiso   1.00
S1486  S     0.86825   0.41764   0.71147   0.00000  Uiso   1.00
Zn1487 Zn    0.83333   0.49999   0.88437   0.00000  Uiso   1.00
Zn1488 Zn    0.83333   0.50001   0.78229   0.00000  Uiso   1.00
C1489  C     0.16657   0.75378   0.83298   0.00000  Uiso   1.00
C1490  C     0.11829   0.68797   0.82606   0.00000  Uiso   1.00
C1491  C     0.16670   0.95714   0.83433   0.00000  Uiso   1.00
C1492  C     0.16663   0.70953   0.83234   0.00000  Uiso   1.00
C1493  C     0.17511   0.86980   0.69150   0.00000  Uiso   1.00
C1494  C     0.15822   0.79687   0.97517   0.00000  Uiso   1.00
C1495  C     0.16569   0.87027   0.97737   0.00000  Uiso   1.00
C1496  C     0.16764   0.79639   0.68930   0.00000  Uiso   1.00
C1497  C     0.16676   0.91289   0.83368   0.00000  Uiso   1.00
C1498  C     0.06741   0.83326   0.82163   0.00000  Uiso   1.00
C1499  C     0.26593   0.83341   0.84504   0.00000  Uiso   1.00
C1500  C     0.01228   0.83297   0.81542   0.00000  Uiso   1.00
C1501  C     0.32105   0.83370   0.85124   0.00000  Uiso   1.00
C1502  C     0.21501   0.68922   0.83953   0.00000  Uiso   1.00
C1503  C     0.11832   0.97744   0.82714   0.00000  Uiso   1.00
C1504  C     0.21505   0.97870   0.84061   0.00000  Uiso   1.00
H1505  H     0.32540   0.83206   0.78133   0.00000  Uiso   1.00
H1506  H     0.04812   0.70355   0.84481   0.00000  Uiso   1.00
H1507  H     0.20292   0.97458   0.74338   0.00000  Uiso   1.00
H1508  H     0.13042   0.69209   0.92328   0.00000  Uiso   1.00
H1509  H     0.20693   0.93679   0.93730   0.00000  Uiso   1.00
H1510  H     0.12640   0.72988   0.72937   0.00000  Uiso   1.00
H1511  H     0.00793   0.83461   0.88533   0.00000  Uiso   1.00
H1512  H     0.28453   0.70650   0.87629   0.00000  Uiso   1.00
H1513  H     0.28512   0.70473   0.82016   0.00000  Uiso   1.00
H1514  H     0.04881   0.96016   0.79038   0.00000  Uiso   1.00
H1515  H     0.04821   0.96194   0.84651   0.00000  Uiso   1.00
H1516  H     0.28458   0.96511   0.87796   0.00000  Uiso   1.00
H1517  H     0.28521   0.96312   0.82186   0.00000  Uiso   1.00
H1518  H     0.04876   0.70156   0.78870   0.00000  Uiso   1.00
N1519  N     0.16665   0.83332   0.95240   0.00000  Uiso   1.00
N1520  N     0.16668   0.83334   0.71427   0.00000  Uiso   1.00
N1521  N     0.26318   0.71351   0.84536   0.00000  Uiso   1.00
N1522  N     0.07015   0.95316   0.82131   0.00000  Uiso   1.00
N1523  N     0.26327   0.95564   0.84735   0.00000  Uiso   1.00
N1524  N     0.07006   0.71102   0.81932   0.00000  Uiso   1.00
O1525  O     0.16666   0.77225   0.87154   0.00000  Uiso   1.00
O1526  O     0.24770   0.92992   0.68333   0.00000  Uiso   1.00
O1527  O     0.17766   0.95158   0.73244   0.00000  Uiso   1.00
O1528  O     0.08564   0.73674   0.98334   0.00000  Uiso   1.00
O1529  O     0.08083   0.76835   0.91068   0.00000  Uiso   1.00
O1530  O     0.15568   0.71509   0.93423   0.00000  Uiso   1.00
O1531  O     0.09011   0.90338   0.91712   0.00000  Uiso   1.00
O1532  O     0.10461   0.93617   0.99077   0.00000  Uiso   1.00
O1533  O     0.17353   0.95170   0.93872   0.00000  Uiso   1.00
O1534  O     0.22872   0.73049   0.67589   0.00000  Uiso   1.00
O1535  O     0.24322   0.76328   0.74954   0.00000  Uiso   1.00
O1536  O     0.16667   0.89442   0.79513   0.00000  Uiso   1.00
O1537  O     0.15980   0.71497   0.72795   0.00000  Uiso   1.00
O1538  O     0.16666   0.77226   0.79510   0.00000  Uiso   1.00
O1539  O     0.16667   0.89441   0.87157   0.00000  Uiso   1.00
O1540  O     0.09058   0.83333   0.86261   0.00000  Uiso   1.00
O1541  O     0.24275   0.83334   0.80405   0.00000  Uiso   1.00
O1542  O     0.09058   0.83334   0.78617   0.00000  Uiso   1.00
O1543  O     0.24275   0.83333   0.88050   0.00000  Uiso   1.00
O1544  O     0.25251   0.89832   0.75599   0.00000  Uiso   1.00
S1545  S     0.21523   0.91250   0.71667   0.00000  Uiso   1.00
S1546  S     0.11811   0.75417   0.95000   0.00000  Uiso   1.00
S1547  S     0.13175   0.91569   0.95520   0.00000  Uiso   1.00
S1548  S     0.20159   0.75098   0.71147   0.00000  Uiso   1.00
Zn1549 Zn    0.16667   0.83333   0.88437   0.00000  Uiso   1.00
Zn1550 Zn    0.16667   0.83334   0.78229   0.00000  Uiso   1.00
C1551  C     0.49990   0.75378   0.83298   0.00000  Uiso   1.00
C1552  C     0.45162   0.68797   0.82606   0.00000  Uiso   1.00
C1553  C     0.50003   0.95714   0.83433   0.00000  Uiso   1.00
C1554  C     0.49997   0.70953   0.83234   0.00000  Uiso   1.00
C1555  C     0.50844   0.86980   0.69150   0.00000  Uiso   1.00
C1556  C     0.49156   0.79687   0.97517   0.00000  Uiso   1.00
C1557  C     0.49902   0.87027   0.97737   0.00000  Uiso   1.00
C1558  C     0.50098   0.79639   0.68930   0.00000  Uiso   1.00
C1559  C     0.50010   0.91289   0.83368   0.00000  Uiso   1.00
C1560  C     0.40074   0.83326   0.82163   0.00000  Uiso   1.00
C1561  C     0.59926   0.83341   0.84504   0.00000  Uiso   1.00
C1562  C     0.34561   0.83297   0.81542   0.00000  Uiso   1.00
C1563  C     0.65439   0.83370   0.85124   0.00000  Uiso   1.00
C1564  C     0.54834   0.68922   0.83953   0.00000  Uiso   1.00
C1565  C     0.45166   0.97744   0.82714   0.00000  Uiso   1.00
C1566  C     0.54838   0.97870   0.84061   0.00000  Uiso   1.00
H1567  H     0.65873   0.83206   0.78133   0.00000  Uiso   1.00
H1568  H     0.38145   0.70355   0.84481   0.00000  Uiso   1.00
H1569  H     0.53625   0.97458   0.74338   0.00000  Uiso   1.00
H1570  H     0.46375   0.69209   0.92328   0.00000  Uiso   1.00
H1571  H     0.54027   0.93679   0.93730   0.00000  Uiso   1.00
H1572  H     0.45973   0.72988   0.72937   0.00000  Uiso   1.00
H1573  H     0.34127   0.83461   0.88533   0.00000  Uiso   1.00
H1574  H     0.61786   0.70650   0.87629   0.00000  Uiso   1.00
H1575  H     0.61845   0.70473   0.82016   0.00000  Uiso   1.00
H1576  H     0.38214   0.96016   0.79038   0.00000  Uiso   1.00
H1577  H     0.38155   0.96194   0.84651   0.00000  Uiso   1.00
H1578  H     0.61791   0.96511   0.87796   0.00000  Uiso   1.00
H1579  H     0.61855   0.96312   0.82186   0.00000  Uiso   1.00
H1580  H     0.38209   0.70156   0.78870   0.00000  Uiso   1.00
N1581  N     0.49999   0.83332   0.95240   0.00000  Uiso   1.00
N1582  N     0.50001   0.83334   0.71427   0.00000  Uiso   1.00
N1583  N     0.59651   0.71351   0.84536   0.00000  Uiso   1.00
N1584  N     0.40349   0.95316   0.82131   0.00000  Uiso   1.00
N1585  N     0.59660   0.95564   0.84735   0.00000  Uiso   1.00
N1586  N     0.40340   0.71102   0.81932   0.00000  Uiso   1.00
O1587  O     0.50000   0.77225   0.87154   0.00000  Uiso   1.00
O1588  O     0.58103   0.92992   0.68333   0.00000  Uiso   1.00
O1589  O     0.51099   0.95158   0.73244   0.00000  Uiso   1.00
O1590  O     0.41897   0.73674   0.98334   0.00000  Uiso   1.00
O1591  O     0.41416   0.76835   0.91068   0.00000  Uiso   1.00
O1592  O     0.48901   0.71509   0.93423   0.00000  Uiso   1.00
O1593  O     0.42345   0.90338   0.91712   0.00000  Uiso   1.00
O1594  O     0.43795   0.93617   0.99077   0.00000  Uiso   1.00
O1595  O     0.50687   0.95170   0.93872   0.00000  Uiso   1.00
O1596  O     0.56205   0.73049   0.67589   0.00000  Uiso   1.00
O1597  O     0.57655   0.76328   0.74954   0.00000  Uiso   1.00
O1598  O     0.50000   0.89442   0.79513   0.00000  Uiso   1.00
O1599  O     0.49313   0.71497   0.72795   0.00000  Uiso   1.00
O1600  O     0.50000   0.77226   0.79510   0.00000  Uiso   1.00
O1601  O     0.50000   0.89441   0.87157   0.00000  Uiso   1.00
O1602  O     0.42392   0.83333   0.86261   0.00000  Uiso   1.00
O1603  O     0.57608   0.83334   0.80405   0.00000  Uiso   1.00
O1604  O     0.42392   0.83334   0.78617   0.00000  Uiso   1.00
O1605  O     0.57608   0.83333   0.88050   0.00000  Uiso   1.00
O1606  O     0.58584   0.89832   0.75599   0.00000  Uiso   1.00
S1607  S     0.54856   0.91250   0.71667   0.00000  Uiso   1.00
S1608  S     0.45144   0.75417   0.95000   0.00000  Uiso   1.00
S1609  S     0.46508   0.91569   0.95520   0.00000  Uiso   1.00
S1610  S     0.53492   0.75098   0.71147   0.00000  Uiso   1.00
Zn1611 Zn    0.50000   0.83333   0.88437   0.00000  Uiso   1.00
Zn1612 Zn    0.50000   0.83334   0.78229   0.00000  Uiso   1.00
C1613  C     0.83324   0.75378   0.83298   0.00000  Uiso   1.00
C1614  C     0.78495   0.68797   0.82606   0.00000  Uiso   1.00
C1615  C     0.83337   0.95714   0.83433   0.00000  Uiso   1.00
C1616  C     0.83330   0.70953   0.83234   0.00000  Uiso   1.00
C1617  C     0.84178   0.86980   0.69150   0.00000  Uiso   1.00
C1618  C     0.82489   0.79687   0.97517   0.00000  Uiso   1.00
C1619  C     0.83236   0.87027   0.97737   0.00000  Uiso   1.00
C1620  C     0.83431   0.79639   0.68930   0.00000  Uiso   1.00
C1621  C     0.83343   0.91289   0.83368   0.00000  Uiso   1.00
C1622  C     0.73407   0.83326   0.82163   0.00000  Uiso   1.00
C1623  C     0.93260   0.83341   0.84504   0.00000  Uiso   1.00
C1624  C     0.67895   0.83297   0.81542   0.00000  Uiso   1.00
C1625  C     0.98772   0.83370   0.85124   0.00000  Uiso   1.00
C1626  C     0.88168   0.68922   0.83953   0.00000  Uiso   1.00
C1627  C     0.78499   0.97744   0.82714   0.00000  Uiso   1.00
C1628  C     0.88171   0.97870   0.84061   0.00000  Uiso   1.00
H1629  H     0.99207   0.83206   0.78133   0.00000  Uiso   1.00
H1630  H     0.71479   0.70355   0.84481   0.00000  Uiso   1.00
H1631  H     0.86958   0.97458   0.74338   0.00000  Uiso   1.00
H1632  H     0.79708   0.69209   0.92328   0.00000  Uiso   1.00
H1633  H     0.87360   0.93679   0.93730   0.00000  Uiso   1.00
H1634  H     0.79307   0.72988   0.72937   0.00000  Uiso   1.00
H1635  H     0.67460   0.83461   0.88533   0.00000  Uiso   1.00
H1636  H     0.95119   0.70650   0.87629   0.00000  Uiso   1.00
H1637  H     0.95179   0.70473   0.82016   0.00000  Uiso   1.00
H1638  H     0.71547   0.96016   0.79038   0.00000  Uiso   1.00
H1639  H     0.71488   0.96194   0.84651   0.00000  Uiso   1.00
H1640  H     0.95124   0.96511   0.87796   0.00000  Uiso   1.00
H1641  H     0.95188   0.96312   0.82186   0.00000  Uiso   1.00
H1642  H     0.71542   0.70156   0.78870   0.00000  Uiso   1.00
N1643  N     0.83332   0.83332   0.95240   0.00000  Uiso   1.00
N1644  N     0.83335   0.83334   0.71427   0.00000  Uiso   1.00
N1645  N     0.92985   0.71351   0.84536   0.00000  Uiso   1.00
N1646  N     0.73682   0.95316   0.82131   0.00000  Uiso   1.00
N1647  N     0.92994   0.95564   0.84735   0.00000  Uiso   1.00
N1648  N     0.73673   0.71102   0.81932   0.00000  Uiso   1.00
O1649  O     0.83333   0.77225   0.87154   0.00000  Uiso   1.00
O1650  O     0.91436   0.92992   0.68333   0.00000  Uiso   1.00
O1651  O     0.84432   0.95158   0.73244   0.00000  Uiso   1.00
O1652  O     0.75230   0.73674   0.98334   0.00000  Uiso   1.00
O1653  O     0.74749   0.76835   0.91068   0.00000  Uiso   1.00
O1654  O     0.82234   0.71509   0.93423   0.00000  Uiso   1.00
O1655  O     0.75678   0.90338   0.91712   0.00000  Uiso   1.00
O1656  O     0.77128   0.93617   0.99077   0.00000  Uiso   1.00
O1657  O     0.84020   0.95170   0.93872   0.00000  Uiso   1.00
O1658  O     0.89539   0.73049   0.67589   0.00000  Uiso   1.00
O1659  O     0.90989   0.76328   0.74954   0.00000  Uiso   1.00
O1660  O     0.83334   0.89442   0.79513   0.00000  Uiso   1.00
O1661  O     0.82647   0.71497   0.72795   0.00000  Uiso   1.00
O1662  O     0.83333   0.77226   0.79510   0.00000  Uiso   1.00
O1663  O     0.83334   0.89441   0.87157   0.00000  Uiso   1.00
O1664  O     0.75725   0.83333   0.86261   0.00000  Uiso   1.00
O1665  O     0.90942   0.83334   0.80405   0.00000  Uiso   1.00
O1666  O     0.75725   0.83334   0.78617   0.00000  Uiso   1.00
O1667  O     0.90942   0.83333   0.88050   0.00000  Uiso   1.00
O1668  O     0.91917   0.89832   0.75599   0.00000  Uiso   1.00
S1669  S     0.88189   0.91250   0.71667   0.00000  Uiso   1.00
S1670  S     0.78477   0.75417   0.95000   0.00000  Uiso   1.00
S1671  S     0.79841   0.91569   0.95520   0.00000  Uiso   1.00
S1672  S     0.86825   0.75098   0.71147   0.00000  Uiso   1.00
Zn1673 Zn    0.83333   0.83333   0.88437   0.00000  Uiso   1.00
Zn1674 Zn    0.83333   0.83334   0.78229   0.00000  Uiso   1.00
loop_
_geom_bond_atom_site_label_1
_geom_bond_atom_site_label_2
_geom_bond_distance
_geom_bond_site_symmetry_2
_ccdc_geom_bond_type
C1     C4      1.399   .     S
C1     O50     1.295   .     A
C1     O37     1.295   .     A
C2     C4      1.397   .     A
C2     N36     1.436   .     S
C2     C387    1.387   1_545 S
C3     C9      1.399   .     S
C3     C15     1.397   .     A
C3     C16     1.397   .     A
C4     C14     1.397   .     A
C5     S57     1.783   .     S
C5     N32     1.383   .     A
C5     C1123   1.423   1_554 S
C6     N31     1.383   .     A
C6     S58     1.783   .     S
C6     C566    1.423   .     S
C7     S59     1.781   .     S
C7     N31     1.383   .     A
C7     C563    1.423   .     S
C8     S60     1.781   .     S
C8     N32     1.383   .     A
C8     C1122   1.423   1_554 S
C9     O51     1.295   .     A
C9     O48     1.295   .     A
C10    O52     1.298   .     A
C10    C12     1.402   .     S
C10    O54     1.297   .     A
C11    C13     1.402   .     S
C11    O53     1.298   .     A
C11    O55     1.297   .     A
C12    C137    1.327   1_455 S
C12    H141    1.088   1_455 S
C13    C74     1.327   .     S
C13    H85     1.088   .     S
C14    N33     1.436   .     S
C14    C388    1.387   1_545 S
C15    N34     1.436   .     S
C15    C188    1.387   .     S
C16    N35     1.436   .     S
C16    C200    1.387   .     S
H17    C74     1.088   .     S
H18    N36     1.045   .     S
H19    O39     0.990   .     S
H20    O42     0.990   .     S
H21    O45     0.989   .     S
H22    O49     0.989   .     S
H23    C137    1.088   1_455 S
H24    N33     1.045   .     S
H25    N33     1.045   .     S
H26    N34     1.045   .     S
H27    N34     1.045   .     S
H28    N35     1.045   .     S
H29    N35     1.045   .     S
H30    N36     1.045   .     S
N31    Zn61    2.058   .     S
N32    Zn62    2.058   .     S
O37    Zn61    1.963   .     S
O38    S57     1.502   .     D
O39    S57     1.680   .     S
O40    S58     1.502   .     D
O41    S58     1.498   .     D
O42    S58     1.680   .     S
O43    S59     1.501   .     D
O44    S59     1.503   .     D
O45    S59     1.684   .     S
O46    S60     1.503   .     D
O47    S60     1.501   .     D
O48    Zn62    1.963   .     S
O49    S60     1.684   .     S
O50    Zn62    1.976   .     S
O51    Zn61    1.976   .     S
O52    Zn61    1.973   .     S
O53    Zn62    1.973   .     S
O54    Zn62    1.973   .     S
O55    Zn61    1.973   .     S
O56    S57     1.498   .     D
C63    C66     1.399   .     S
C63    O112    1.295   .     A
C63    O99     1.295   .     A
C64    C66     1.397   .     A
C64    N98     1.436   .     S
C64    C449    1.387   1_545 S
C65    C71     1.399   .     S
C65    C77     1.397   .     A
C65    C78     1.397   .     A
C66    C76     1.397   .     A
C67    S119    1.783   .     S
C67    N94     1.383   .     A
C67    C1185   1.423   1_554 S
C68    N93     1.383   .     A
C68    S120    1.783   .     S
C68    C628    1.423   .     S
C69    S121    1.781   .     S
C69    N93     1.383   .     A
C69    C625    1.423   .     S
C70    S122    1.781   .     S
C70    N94     1.383   .     A
C70    C1184   1.423   1_554 S
C71    O113    1.295   .     A
C71    O110    1.295   .     A
C72    O114    1.298   .     A
C72    C74     1.402   .     S
C72    O116    1.297   .     A
C73    C75     1.402   .     S
C73    O115    1.298   .     A
C73    O117    1.297   .     A
C75    C136    1.327   .     S
C75    H147    1.088   .     S
C76    N95     1.436   .     S
C76    C450    1.387   1_545 S
C77    N96     1.436   .     S
C77    C250    1.387   .     S
C78    N97     1.436   .     S
C78    C262    1.387   .     S
H79    C136    1.088   .     S
H80    N98     1.045   .     S
H81    O101    0.990   .     S
H82    O104    0.990   .     S
H83    O107    0.989   .     S
H84    O111    0.989   .     S
H86    N95     1.045   .     S
H87    N95     1.045   .     S
H88    N96     1.045   .     S
H89    N96     1.045   .     S
H90    N97     1.045   .     S
H91    N97     1.045   .     S
H92    N98     1.045   .     S
N93    Zn123   2.058   .     S
N94    Zn124   2.058   .     S
O99    Zn123   1.963   .     S
O100   S119    1.502   .     D
O101   S119    1.680   .     S
O102   S120    1.502   .     D
O103   S120    1.498   .     D
O104   S120    1.680   .     S
O105   S121    1.501   .     D
O106   S121    1.503   .     D
O107   S121    1.684   .     S
O108   S122    1.503   .     D
O109   S122    1.501   .     D
O110   Zn124   1.963   .     S
O111   S122    1.684   .     S
O112   Zn124   1.976   .     S
O113   Zn123   1.976   .     S
O114   Zn123   1.973   .     S
O115   Zn124   1.973   .     S
O116   Zn124   1.973   .     S
O117   Zn123   1.973   .     S
O118   S119    1.498   .     D
C125   C128    1.399   .     S
C125   O174    1.295   .     A
C125   O161    1.295   .     A
C126   C128    1.397   .     A
C126   N160    1.436   .     S
C126   C511    1.387   1_545 S
C127   C133    1.399   .     S
C127   C139    1.397   .     A
C127   C140    1.397   .     A
C128   C138    1.397   .     A
C129   S181    1.783   .     S
C129   N156    1.383   .     A
C129   C1247   1.423   1_554 S
C130   N155    1.383   .     A
C130   S182    1.783   .     S
C130   C690    1.423   .     S
C131   S183    1.781   .     S
C131   N155    1.383   .     A
C131   C687    1.423   .     S
C132   S184    1.781   .     S
C132   N156    1.383   .     A
C132   C1246   1.423   1_554 S
C133   O175    1.295   .     A
C133   O172    1.295   .     A
C134   O176    1.298   .     A
C134   C136    1.402   .     S
C134   O178    1.297   .     A
C135   C137    1.402   .     S
C135   O177    1.298   .     A
C135   O179    1.297   .     A
C137   C12     1.327   1_655 S
C137   H23     1.088   1_655 S
C138   N157    1.436   .     S
C138   C512    1.387   1_545 S
C139   N158    1.436   .     S
C139   C312    1.387   .     S
C140   N159    1.436   .     S
C140   C324    1.387   .     S
H141   C12     1.088   1_655 S
H142   N160    1.045   .     S
H143   O163    0.990   .     S
H144   O166    0.990   .     S
H145   O169    0.989   .     S
H146   O173    0.989   .     S
H148   N157    1.045   .     S
H149   N157    1.045   .     S
H150   N158    1.045   .     S
H151   N158    1.045   .     S
H152   N159    1.045   .     S
H153   N159    1.045   .     S
H154   N160    1.045   .     S
N155   Zn185   2.058   .     S
N156   Zn186   2.058   .     S
O161   Zn185   1.963   .     S
O162   S181    1.502   .     D
O163   S181    1.680   .     S
O164   S182    1.502   .     D
O165   S182    1.498   .     D
O166   S182    1.680   .     S
O167   S183    1.501   .     D
O168   S183    1.503   .     D
O169   S183    1.684   .     S
O170   S184    1.503   .     D
O171   S184    1.501   .     D
O172   Zn186   1.963   .     S
O173   S184    1.684   .     S
O174   Zn186   1.976   .     S
O175   Zn185   1.976   .     S
O176   Zn185   1.973   .     S
O177   Zn186   1.973   .     S
O178   Zn186   1.973   .     S
O179   Zn185   1.973   .     S
O180   S181    1.498   .     D
C187   C190    1.399   .     S
C187   O236    1.295   .     A
C187   O223    1.295   .     A
C188   C190    1.397   .     A
C188   N222    1.436   .     S
C189   C195    1.399   .     S
C189   C201    1.397   .     A
C189   C202    1.397   .     A
C190   C200    1.397   .     A
C191   S243    1.783   .     S
C191   N218    1.383   .     A
C191   C1309   1.423   1_554 S
C192   N217    1.383   .     A
C192   S244    1.783   .     S
C192   C752    1.423   .     S
C193   S245    1.781   .     S
C193   N217    1.383   .     A
C193   C749    1.423   .     S
C194   S246    1.781   .     S
C194   N218    1.383   .     A
C194   C1308   1.423   1_554 S
C195   O237    1.295   .     A
C195   O234    1.295   .     A
C196   O238    1.298   .     A
C196   C198    1.402   .     S
C196   O240    1.297   .     A
C197   C199    1.402   .     S
C197   O239    1.298   .     A
C197   O241    1.297   .     A
C198   C323    1.327   1_455 S
C198   H327    1.088   1_455 S
C199   C260    1.327   .     S
C199   H271    1.088   .     S
C200   N219    1.436   .     S
C201   N220    1.436   .     S
C201   C374    1.387   .     S
C202   N221    1.436   .     S
C202   C386    1.387   .     S
H203   C260    1.088   .     S
H204   N222    1.045   .     S
H205   O225    0.990   .     S
H206   O228    0.990   .     S
H207   O231    0.989   .     S
H208   O235    0.989   .     S
H209   C323    1.088   1_455 S
H210   N219    1.045   .     S
H211   N219    1.045   .     S
H212   N220    1.045   .     S
H213   N220    1.045   .     S
H214   N221    1.045   .     S
H215   N221    1.045   .     S
H216   N222    1.045   .     S
N217   Zn247   2.058   .     S
N218   Zn248   2.058   .     S
O223   Zn247   1.963   .     S
O224   S243    1.502   .     D
O225   S243    1.680   .     S
O226   S244    1.502   .     D
O227   S244    1.498   .     D
O228   S244    1.680   .     S
O229   S245    1.501   .     D
O230   S245    1.503   .     D
O231   S245    1.684   .     S
O232   S246    1.503   .     D
O233   S246    1.501   .     D
O234   Zn248   1.963   .     S
O235   S246    1.684   .     S
O236   Zn248   1.976   .     S
O237   Zn247   1.976   .     S
O238   Zn247   1.973   .     S
O239   Zn248   1.973   .     S
O240   Zn248   1.973   .     S
O241   Zn247   1.973   .     S
O242   S243    1.498   .     D
C249   C252    1.399   .     S
C249   O298    1.295   .     A
C249   O285    1.295   .     A
C250   C252    1.397   .     A
C250   N284    1.436   .     S
C251   C257    1.399   .     S
C251   C263    1.397   .     A
C251   C264    1.397   .     A
C252   C262    1.397   .     A
C253   S305    1.783   .     S
C253   N280    1.383   .     A
C253   C1371   1.423   1_554 S
C254   N279    1.383   .     A
C254   S306    1.783   .     S
C254   C814    1.423   .     S
C255   S307    1.781   .     S
C255   N279    1.383   .     A
C255   C811    1.423   .     S
C256   S308    1.781   .     S
C256   N280    1.383   .     A
C256   C1370   1.423   1_554 S
C257   O299    1.295   .     A
C257   O296    1.295   .     A
C258   O300    1.298   .     A
C258   C260    1.402   .     S
C258   O302    1.297   .     A
C259   C261    1.402   .     S
C259   O301    1.298   .     A
C259   O303    1.297   .     A
C261   C322    1.327   .     S
C261   H333    1.088   .     S
C262   N281    1.436   .     S
C263   N282    1.436   .     S
C263   C436    1.387   .     S
C264   N283    1.436   .     S
C264   C448    1.387   .     S
H265   C322    1.088   .     S
H266   N284    1.045   .     S
H267   O287    0.990   .     S
H268   O290    0.990   .     S
H269   O293    0.989   .     S
H270   O297    0.989   .     S
H272   N281    1.045   .     S
H273   N281    1.045   .     S
H274   N282    1.045   .     S
H275   N282    1.045   .     S
H276   N283    1.045   .     S
H277   N283    1.045   .     S
H278   N284    1.045   .     S
N279   Zn309   2.058   .     S
N280   Zn310   2.058   .     S
O285   Zn309   1.963   .     S
O286   S305    1.502   .     D
O287   S305    1.680   .     S
O288   S306    1.502   .     D
O289   S306    1.498   .     D
O290   S306    1.680   .     S
O291   S307    1.501   .     D
O292   S307    1.503   .     D
O293   S307    1.684   .     S
O294   S308    1.503   .     D
O295   S308    1.501   .     D
O296   Zn310   1.963   .     S
O297   S308    1.684   .     S
O298   Zn310   1.976   .     S
O299   Zn309   1.976   .     S
O300   Zn309   1.973   .     S
O301   Zn310   1.973   .     S
O302   Zn310   1.973   .     S
O303   Zn309   1.973   .     S
O304   S305    1.498   .     D
C311   C314    1.399   .     S
C311   O360    1.295   .     A
C311   O347    1.295   .     A
C312   C314    1.397   .     A
C312   N346    1.436   .     S
C313   C319    1.399   .     S
C313   C325    1.397   .     A
C313   C326    1.397   .     A
C314   C324    1.397   .     A
C315   S367    1.783   .     S
C315   N342    1.383   .     A
C315   C1433   1.423   1_554 S
C316   N341    1.383   .     A
C316   S368    1.783   .     S
C316   C876    1.423   .     S
C317   S369    1.781   .     S
C317   N341    1.383   .     A
C317   C873    1.423   .     S
C318   S370    1.781   .     S
C318   N342    1.383   .     A
C318   C1432   1.423   1_554 S
C319   O361    1.295   .     A
C319   O358    1.295   .     A
C320   O362    1.298   .     A
C320   C322    1.402   .     S
C320   O364    1.297   .     A
C321   C323    1.402   .     S
C321   O363    1.298   .     A
C321   O365    1.297   .     A
C323   C198    1.327   1_655 S
C323   H209    1.088   1_655 S
C324   N343    1.436   .     S
C325   N344    1.436   .     S
C325   C498    1.387   .     S
C326   N345    1.436   .     S
C326   C510    1.387   .     S
H327   C198    1.088   1_655 S
H328   N346    1.045   .     S
H329   O349    0.990   .     S
H330   O352    0.990   .     S
H331   O355    0.989   .     S
H332   O359    0.989   .     S
H334   N343    1.045   .     S
H335   N343    1.045   .     S
H336   N344    1.045   .     S
H337   N344    1.045   .     S
H338   N345    1.045   .     S
H339   N345    1.045   .     S
H340   N346    1.045   .     S
N341   Zn371   2.058   .     S
N342   Zn372   2.058   .     S
O347   Zn371   1.963   .     S
O348   S367    1.502   .     D
O349   S367    1.680   .     S
O350   S368    1.502   .     D
O351   S368    1.498   .     D
O352   S368    1.680   .     S
O353   S369    1.501   .     D
O354   S369    1.503   .     D
O355   S369    1.684   .     S
O356   S370    1.503   .     D
O357   S370    1.501   .     D
O358   Zn372   1.963   .     S
O359   S370    1.684   .     S
O360   Zn372   1.976   .     S
O361   Zn371   1.976   .     S
O362   Zn371   1.973   .     S
O363   Zn372   1.973   .     S
O364   Zn372   1.973   .     S
O365   Zn371   1.973   .     S
O366   S367    1.498   .     D
C373   C376    1.399   .     S
C373   O422    1.295   .     A
C373   O409    1.295   .     A
C374   C376    1.397   .     A
C374   N408    1.436   .     S
C375   C381    1.399   .     S
C375   C387    1.397   .     A
C375   C388    1.397   .     A
C376   C386    1.397   .     A
C377   S429    1.783   .     S
C377   N404    1.383   .     A
C377   C1495   1.423   1_554 S
C378   N403    1.383   .     A
C378   S430    1.783   .     S
C378   C938    1.423   .     S
C379   S431    1.781   .     S
C379   N403    1.383   .     A
C379   C935    1.423   .     S
C380   S432    1.781   .     S
C380   N404    1.383   .     A
C380   C1494   1.423   1_554 S
C381   O423    1.295   .     A
C381   O420    1.295   .     A
C382   O424    1.298   .     A
C382   C384    1.402   .     S
C382   O426    1.297   .     A
C383   C385    1.402   .     S
C383   O425    1.298   .     A
C383   O427    1.297   .     A
C384   C509    1.327   1_455 S
C384   H513    1.088   1_455 S
C385   C446    1.327   .     S
C385   H457    1.088   .     S
C386   N405    1.436   .     S
C387   N406    1.436   .     S
C387   C2      1.387   1_565 S
C388   N407    1.436   .     S
C388   C14     1.387   1_565 S
H389   C446    1.088   .     S
H390   N408    1.045   .     S
H391   O411    0.990   .     S
H392   O414    0.990   .     S
H393   O417    0.989   .     S
H394   O421    0.989   .     S
H395   C509    1.088   1_455 S
H396   N405    1.045   .     S
H397   N405    1.045   .     S
H398   N406    1.045   .     S
H399   N406    1.045   .     S
H400   N407    1.045   .     S
H401   N407    1.045   .     S
H402   N408    1.045   .     S
N403   Zn433   2.058   .     S
N404   Zn434   2.058   .     S
O409   Zn433   1.963   .     S
O410   S429    1.502   .     D
O411   S429    1.680   .     S
O412   S430    1.502   .     D
O413   S430    1.498   .     D
O414   S430    1.680   .     S
O415   S431    1.501   .     D
O416   S431    1.503   .     D
O417   S431    1.684   .     S
O418   S432    1.503   .     D
O419   S432    1.501   .     D
O420   Zn434   1.963   .     S
O421   S432    1.684   .     S
O422   Zn434   1.976   .     S
O423   Zn433   1.976   .     S
O424   Zn433   1.973   .     S
O425   Zn434   1.973   .     S
O426   Zn434   1.973   .     S
O427   Zn433   1.973   .     S
O428   S429    1.498   .     D
C435   C438    1.399   .     S
C435   O484    1.295   .     A
C435   O471    1.295   .     A
C436   C438    1.397   .     A
C436   N470    1.436   .     S
C437   C443    1.399   .     S
C437   C449    1.397   .     A
C437   C450    1.397   .     A
C438   C448    1.397   .     A
C439   S491    1.783   .     S
C439   N466    1.383   .     A
C439   C1557   1.423   1_554 S
C440   N465    1.383   .     A
C440   S492    1.783   .     S
C440   C1000   1.423   .     S
C441   S493    1.781   .     S
C441   N465    1.383   .     A
C441   C997    1.423   .     S
C442   S494    1.781   .     S
C442   N466    1.383   .     A
C442   C1556   1.423   1_554 S
C443   O485    1.295   .     A
C443   O482    1.295   .     A
C444   O486    1.298   .     A
C444   C446    1.402   .     S
C444   O488    1.297   .     A
C445   C447    1.402   .     S
C445   O487    1.298   .     A
C445   O489    1.297   .     A
C447   C508    1.327   .     S
C447   H519    1.088   .     S
C448   N467    1.436   .     S
C449   N468    1.436   .     S
C449   C64     1.387   1_565 S
C450   N469    1.436   .     S
C450   C76     1.387   1_565 S
H451   C508    1.088   .     S
H452   N470    1.045   .     S
H453   O473    0.990   .     S
H454   O476    0.990   .     S
H455   O479    0.989   .     S
H456   O483    0.989   .     S
H458   N467    1.045   .     S
H459   N467    1.045   .     S
H460   N468    1.045   .     S
H461   N468    1.045   .     S
H462   N469    1.045   .     S
H463   N469    1.045   .     S
H464   N470    1.045   .     S
N465   Zn495   2.058   .     S
N466   Zn496   2.058   .     S
O471   Zn495   1.963   .     S
O472   S491    1.502   .     D
O473   S491    1.680   .     S
O474   S492    1.502   .     D
O475   S492    1.498   .     D
O476   S492    1.680   .     S
O477   S493    1.501   .     D
O478   S493    1.503   .     D
O479   S493    1.684   .     S
O480   S494    1.503   .     D
O481   S494    1.501   .     D
O482   Zn496   1.963   .     S
O483   S494    1.684   .     S
O484   Zn496   1.976   .     S
O485   Zn495   1.976   .     S
O486   Zn495   1.973   .     S
O487   Zn496   1.973   .     S
O488   Zn496   1.973   .     S
O489   Zn495   1.973   .     S
O490   S491    1.498   .     D
C497   C500    1.399   .     S
C497   O546    1.295   .     A
C497   O533    1.295   .     A
C498   C500    1.397   .     A
C498   N532    1.436   .     S
C499   C505    1.399   .     S
C499   C511    1.397   .     A
C499   C512    1.397   .     A
C500   C510    1.397   .     A
C501   S553    1.783   .     S
C501   N528    1.383   .     A
C501   C1619   1.423   1_554 S
C502   N527    1.383   .     A
C502   S554    1.783   .     S
C502   C1062   1.423   .     S
C503   S555    1.781   .     S
C503   N527    1.383   .     A
C503   C1059   1.423   .     S
C504   S556    1.781   .     S
C504   N528    1.383   .     A
C504   C1618   1.423   1_554 S
C505   O547    1.295   .     A
C505   O544    1.295   .     A
C506   O548    1.298   .     A
C506   C508    1.402   .     S
C506   O550    1.297   .     A
C507   C509    1.402   .     S
C507   O549    1.298   .     A
C507   O551    1.297   .     A
C509   C384    1.327   1_655 S
C509   H395    1.088   1_655 S
C510   N529    1.436   .     S
C511   N530    1.436   .     S
C511   C126    1.387   1_565 S
C512   N531    1.436   .     S
C512   C138    1.387   1_565 S
H513   C384    1.088   1_655 S
H514   N532    1.045   .     S
H515   O535    0.990   .     S
H516   O538    0.990   .     S
H517   O541    0.989   .     S
H518   O545    0.989   .     S
H520   N529    1.045   .     S
H521   N529    1.045   .     S
H522   N530    1.045   .     S
H523   N530    1.045   .     S
H524   N531    1.045   .     S
H525   N531    1.045   .     S
H526   N532    1.045   .     S
N527   Zn557   2.058   .     S
N528   Zn558   2.058   .     S
O533   Zn557   1.963   .     S
O534   S553    1.502   .     D
O535   S553    1.680   .     S
O536   S554    1.502   .     D
O537   S554    1.498   .     D
O538   S554    1.680   .     S
O539   S555    1.501   .     D
O540   S555    1.503   .     D
O541   S555    1.684   .     S
O542   S556    1.503   .     D
O543   S556    1.501   .     D
O544   Zn558   1.963   .     S
O545   S556    1.684   .     S
O546   Zn558   1.976   .     S
O547   Zn557   1.976   .     S
O548   Zn557   1.973   .     S
O549   Zn558   1.973   .     S
O550   Zn558   1.973   .     S
O551   Zn557   1.973   .     S
O552   S553    1.498   .     D
C559   C562    1.399   .     S
C559   O608    1.295   .     A
C559   O595    1.295   .     A
C560   C562    1.397   .     A
C560   N594    1.436   .     S
C560   C945    1.387   1_545 S
C561   C567    1.399   .     S
C561   C573    1.397   .     A
C561   C574    1.397   .     A
C562   C572    1.397   .     A
C563   S615    1.783   .     S
C563   N590    1.383   .     A
C564   N589    1.383   .     A
C564   S616    1.783   .     S
C564   C1124   1.423   .     S
C565   S617    1.781   .     S
C565   N589    1.383   .     A
C565   C1121   1.423   .     S
C566   S618    1.781   .     S
C566   N590    1.383   .     A
C567   O609    1.295   .     A
C567   O606    1.295   .     A
C568   O610    1.298   .     A
C568   C570    1.402   .     S
C568   O612    1.297   .     A
C569   C571    1.402   .     S
C569   O611    1.298   .     A
C569   O613    1.297   .     A
C570   C695    1.327   1_455 S
C570   H699    1.088   1_455 S
C571   C632    1.327   .     S
C571   H643    1.088   .     S
C572   N591    1.436   .     S
C572   C946    1.387   1_545 S
C573   N592    1.436   .     S
C573   C746    1.387   .     S
C574   N593    1.436   .     S
C574   C758    1.387   .     S
H575   C632    1.088   .     S
H576   N594    1.045   .     S
H577   O597    0.990   .     S
H578   O600    0.990   .     S
H579   O603    0.989   .     S
H580   O607    0.989   .     S
H581   C695    1.088   1_455 S
H582   N591    1.045   .     S
H583   N591    1.045   .     S
H584   N592    1.045   .     S
H585   N592    1.045   .     S
H586   N593    1.045   .     S
H587   N593    1.045   .     S
H588   N594    1.045   .     S
N589   Zn619   2.058   .     S
N590   Zn620   2.058   .     S
O595   Zn619   1.963   .     S
O596   S615    1.502   .     D
O597   S615    1.680   .     S
O598   S616    1.502   .     D
O599   S616    1.498   .     D
O600   S616    1.680   .     S
O601   S617    1.501   .     D
O602   S617    1.503   .     D
O603   S617    1.684   .     S
O604   S618    1.503   .     D
O605   S618    1.501   .     D
O606   Zn620   1.963   .     S
O607   S618    1.684   .     S
O608   Zn620   1.976   .     S
O609   Zn619   1.976   .     S
O610   Zn619   1.973   .     S
O611   Zn620   1.973   .     S
O612   Zn620   1.973   .     S
O613   Zn619   1.973   .     S
O614   S615    1.498   .     D
C621   C624    1.399   .     S
C621   O670    1.295   .     A
C621   O657    1.295   .     A
C622   C624    1.397   .     A
C622   N656    1.436   .     S
C622   C1007   1.387   1_545 S
C623   C629    1.399   .     S
C623   C635    1.397   .     A
C623   C636    1.397   .     A
C624   C634    1.397   .     A
C625   S677    1.783   .     S
C625   N652    1.383   .     A
C626   N651    1.383   .     A
C626   S678    1.783   .     S
C626   C1186   1.423   .     S
C627   S679    1.781   .     S
C627   N651    1.383   .     A
C627   C1183   1.423   .     S
C628   S680    1.781   .     S
C628   N652    1.383   .     A
C629   O671    1.295   .     A
C629   O668    1.295   .     A
C630   O672    1.298   .     A
C630   C632    1.402   .     S
C630   O674    1.297   .     A
C631   C633    1.402   .     S
C631   O673    1.298   .     A
C631   O675    1.297   .     A
C633   C694    1.327   .     S
C633   H705    1.088   .     S
C634   N653    1.436   .     S
C634   C1008   1.387   1_545 S
C635   N654    1.436   .     S
C635   C808    1.387   .     S
C636   N655    1.436   .     S
C636   C820    1.387   .     S
H637   C694    1.088   .     S
H638   N656    1.045   .     S
H639   O659    0.990   .     S
H640   O662    0.990   .     S
H641   O665    0.989   .     S
H642   O669    0.989   .     S
H644   N653    1.045   .     S
H645   N653    1.045   .     S
H646   N654    1.045   .     S
H647   N654    1.045   .     S
H648   N655    1.045   .     S
H649   N655    1.045   .     S
H650   N656    1.045   .     S
N651   Zn681   2.058   .     S
N652   Zn682   2.058   .     S
O657   Zn681   1.963   .     S
O658   S677    1.502   .     D
O659   S677    1.680   .     S
O660   S678    1.502   .     D
O661   S678    1.498   .     D
O662   S678    1.680   .     S
O663   S679    1.501   .     D
O664   S679    1.503   .     D
O665   S679    1.684   .     S
O666   S680    1.503   .     D
O667   S680    1.501   .     D
O668   Zn682   1.963   .     S
O669   S680    1.684   .     S
O670   Zn682   1.976   .     S
O671   Zn681   1.976   .     S
O672   Zn681   1.973   .     S
O673   Zn682   1.973   .     S
O674   Zn682   1.973   .     S
O675   Zn681   1.973   .     S
O676   S677    1.498   .     D
C683   C686    1.399   .     S
C683   O732    1.295   .     A
C683   O719    1.295   .     A
C684   C686    1.397   .     A
C684   N718    1.436   .     S
C684   C1069   1.387   1_545 S
C685   C691    1.399   .     S
C685   C697    1.397   .     A
C685   C698    1.397   .     A
C686   C696    1.397   .     A
C687   S739    1.783   .     S
C687   N714    1.383   .     A
C688   N713    1.383   .     A
C688   S740    1.783   .     S
C688   C1248   1.423   .     S
C689   S741    1.781   .     S
C689   N713    1.383   .     A
C689   C1245   1.423   .     S
C690   S742    1.781   .     S
C690   N714    1.383   .     A
C691   O733    1.295   .     A
C691   O730    1.295   .     A
C692   O734    1.298   .     A
C692   C694    1.402   .     S
C692   O736    1.297   .     A
C693   C695    1.402   .     S
C693   O735    1.298   .     A
C693   O737    1.297   .     A
C695   C570    1.327   1_655 S
C695   H581    1.088   1_655 S
C696   N715    1.436   .     S
C696   C1070   1.387   1_545 S
C697   N716    1.436   .     S
C697   C870    1.387   .     S
C698   N717    1.436   .     S
C698   C882    1.387   .     S
H699   C570    1.088   1_655 S
H700   N718    1.045   .     S
H701   O721    0.990   .     S
H702   O724    0.990   .     S
H703   O727    0.989   .     S
H704   O731    0.989   .     S
H706   N715    1.045   .     S
H707   N715    1.045   .     S
H708   N716    1.045   .     S
H709   N716    1.045   .     S
H710   N717    1.045   .     S
H711   N717    1.045   .     S
H712   N718    1.045   .     S
N713   Zn743   2.058   .     S
N714   Zn744   2.058   .     S
O719   Zn743   1.963   .     S
O720   S739    1.502   .     D
O721   S739    1.680   .     S
O722   S740    1.502   .     D
O723   S740    1.498   .     D
O724   S740    1.680   .     S
O725   S741    1.501   .     D
O726   S741    1.503   .     D
O727   S741    1.684   .     S
O728   S742    1.503   .     D
O729   S742    1.501   .     D
O730   Zn744   1.963   .     S
O731   S742    1.684   .     S
O732   Zn744   1.976   .     S
O733   Zn743   1.976   .     S
O734   Zn743   1.973   .     S
O735   Zn744   1.973   .     S
O736   Zn744   1.973   .     S
O737   Zn743   1.973   .     S
O738   S739    1.498   .     D
C745   C748    1.399   .     S
C745   O794    1.295   .     A
C745   O781    1.295   .     A
C746   C748    1.397   .     A
C746   N780    1.436   .     S
C747   C753    1.399   .     S
C747   C759    1.397   .     A
C747   C760    1.397   .     A
C748   C758    1.397   .     A
C749   S801    1.783   .     S
C749   N776    1.383   .     A
C750   N775    1.383   .     A
C750   S802    1.783   .     S
C750   C1310   1.423   .     S
C751   S803    1.781   .     S
C751   N775    1.383   .     A
C751   C1307   1.423   .     S
C752   S804    1.781   .     S
C752   N776    1.383   .     A
C753   O795    1.295   .     A
C753   O792    1.295   .     A
C754   O796    1.298   .     A
C754   C756    1.402   .     S
C754   O798    1.297   .     A
C755   C757    1.402   .     S
C755   O797    1.298   .     A
C755   O799    1.297   .     A
C756   C881    1.327   1_455 S
C756   H885    1.088   1_455 S
C757   C818    1.327   .     S
C757   H829    1.088   .     S
C758   N777    1.436   .     S
C759   N778    1.436   .     S
C759   C932    1.387   .     S
C760   N779    1.436   .     S
C760   C944    1.387   .     S
H761   C818    1.088   .     S
H762   N780    1.045   .     S
H763   O783    0.990   .     S
H764   O786    0.990   .     S
H765   O789    0.989   .     S
H766   O793    0.989   .     S
H767   C881    1.088   1_455 S
H768   N777    1.045   .     S
H769   N777    1.045   .     S
H770   N778    1.045   .     S
H771   N778    1.045   .     S
H772   N779    1.045   .     S
H773   N779    1.045   .     S
H774   N780    1.045   .     S
N775   Zn805   2.058   .     S
N776   Zn806   2.058   .     S
O781   Zn805   1.963   .     S
O782   S801    1.502   .     D
O783   S801    1.680   .     S
O784   S802    1.502   .     D
O785   S802    1.498   .     D
O786   S802    1.680   .     S
O787   S803    1.501   .     D
O788   S803    1.503   .     D
O789   S803    1.684   .     S
O790   S804    1.503   .     D
O791   S804    1.501   .     D
O792   Zn806   1.963   .     S
O793   S804    1.684   .     S
O794   Zn806   1.976   .     S
O795   Zn805   1.976   .     S
O796   Zn805   1.973   .     S
O797   Zn806   1.973   .     S
O798   Zn806   1.973   .     S
O799   Zn805   1.973   .     S
O800   S801    1.498   .     D
C807   C810    1.399   .     S
C807   O856    1.295   .     A
C807   O843    1.295   .     A
C808   C810    1.397   .     A
C808   N842    1.436   .     S
C809   C815    1.399   .     S
C809   C821    1.397   .     A
C809   C822    1.397   .     A
C810   C820    1.397   .     A
C811   S863    1.783   .     S
C811   N838    1.383   .     A
C812   N837    1.383   .     A
C812   S864    1.783   .     S
C812   C1372   1.423   .     S
C813   S865    1.781   .     S
C813   N837    1.383   .     A
C813   C1369   1.423   .     S
C814   S866    1.781   .     S
C814   N838    1.383   .     A
C815   O857    1.295   .     A
C815   O854    1.295   .     A
C816   O858    1.298   .     A
C816   C818    1.402   .     S
C816   O860    1.297   .     A
C817   C819    1.402   .     S
C817   O859    1.298   .     A
C817   O861    1.297   .     A
C819   C880    1.327   .     S
C819   H891    1.088   .     S
C820   N839    1.436   .     S
C821   N840    1.436   .     S
C821   C994    1.387   .     S
C822   N841    1.436   .     S
C822   C1006   1.387   .     S
H823   C880    1.088   .     S
H824   N842    1.045   .     S
H825   O845    0.990   .     S
H826   O848    0.990   .     S
H827   O851    0.989   .     S
H828   O855    0.989   .     S
H830   N839    1.045   .     S
H831   N839    1.045   .     S
H832   N840    1.045   .     S
H833   N840    1.045   .     S
H834   N841    1.045   .     S
H835   N841    1.045   .     S
H836   N842    1.045   .     S
N837   Zn867   2.058   .     S
N838   Zn868   2.058   .     S
O843   Zn867   1.963   .     S
O844   S863    1.502   .     D
O845   S863    1.680   .     S
O846   S864    1.502   .     D
O847   S864    1.498   .     D
O848   S864    1.680   .     S
O849   S865    1.501   .     D
O850   S865    1.503   .     D
O851   S865    1.684   .     S
O852   S866    1.503   .     D
O853   S866    1.501   .     D
O854   Zn868   1.963   .     S
O855   S866    1.684   .     S
O856   Zn868   1.976   .     S
O857   Zn867   1.976   .     S
O858   Zn867   1.973   .     S
O859   Zn868   1.973   .     S
O860   Zn868   1.973   .     S
O861   Zn867   1.973   .     S
O862   S863    1.498   .     D
C869   C872    1.399   .     S
C869   O918    1.295   .     A
C869   O905    1.295   .     A
C870   C872    1.397   .     A
C870   N904    1.436   .     S
C871   C877    1.399   .     S
C871   C883    1.397   .     A
C871   C884    1.397   .     A
C872   C882    1.397   .     A
C873   S925    1.783   .     S
C873   N900    1.383   .     A
C874   N899    1.383   .     A
C874   S926    1.783   .     S
C874   C1434   1.423   .     S
C875   S927    1.781   .     S
C875   N899    1.383   .     A
C875   C1431   1.423   .     S
C876   S928    1.781   .     S
C876   N900    1.383   .     A
C877   O919    1.295   .     A
C877   O916    1.295   .     A
C878   O920    1.298   .     A
C878   C880    1.402   .     S
C878   O922    1.297   .     A
C879   C881    1.402   .     S
C879   O921    1.298   .     A
C879   O923    1.297   .     A
C881   C756    1.327   1_655 S
C881   H767    1.088   1_655 S
C882   N901    1.436   .     S
C883   N902    1.436   .     S
C883   C1056   1.387   .     S
C884   N903    1.436   .     S
C884   C1068   1.387   .     S
H885   C756    1.088   1_655 S
H886   N904    1.045   .     S
H887   O907    0.990   .     S
H888   O910    0.990   .     S
H889   O913    0.989   .     S
H890   O917    0.989   .     S
H892   N901    1.045   .     S
H893   N901    1.045   .     S
H894   N902    1.045   .     S
H895   N902    1.045   .     S
H896   N903    1.045   .     S
H897   N903    1.045   .     S
H898   N904    1.045   .     S
N899   Zn929   2.058   .     S
N900   Zn930   2.058   .     S
O905   Zn929   1.963   .     S
O906   S925    1.502   .     D
O907   S925    1.680   .     S
O908   S926    1.502   .     D
O909   S926    1.498   .     D
O910   S926    1.680   .     S
O911   S927    1.501   .     D
O912   S927    1.503   .     D
O913   S927    1.684   .     S
O914   S928    1.503   .     D
O915   S928    1.501   .     D
O916   Zn930   1.963   .     S
O917   S928    1.684   .     S
O918   Zn930   1.976   .     S
O919   Zn929   1.976   .     S
O920   Zn929   1.973   .     S
O921   Zn930   1.973   .     S
O922   Zn930   1.973   .     S
O923   Zn929   1.973   .     S
O924   S925    1.498   .     D
C931   C934    1.399   .     S
C931   O980    1.295   .     A
C931   O967    1.295   .     A
C932   C934    1.397   .     A
C932   N966    1.436   .     S
C933   C939    1.399   .     S
C933   C945    1.397   .     A
C933   C946    1.397   .     A
C934   C944    1.397   .     A
C935   S987    1.783   .     S
C935   N962    1.383   .     A
C936   N961    1.383   .     A
C936   S988    1.783   .     S
C936   C1496   1.423   .     S
C937   S989    1.781   .     S
C937   N961    1.383   .     A
C937   C1493   1.423   .     S
C938   S990    1.781   .     S
C938   N962    1.383   .     A
C939   O981    1.295   .     A
C939   O978    1.295   .     A
C940   O982    1.298   .     A
C940   C942    1.402   .     S
C940   O984    1.297   .     A
C941   C943    1.402   .     S
C941   O983    1.298   .     A
C941   O985    1.297   .     A
C942   C1067   1.327   1_455 S
C942   H1071   1.088   1_455 S
C943   C1004   1.327   .     S
C943   H1015   1.088   .     S
C944   N963    1.436   .     S
C945   N964    1.436   .     S
C945   C560    1.387   1_565 S
C946   N965    1.436   .     S
C946   C572    1.387   1_565 S
H947   C1004   1.088   .     S
H948   N966    1.045   .     S
H949   O969    0.990   .     S
H950   O972    0.990   .     S
H951   O975    0.989   .     S
H952   O979    0.989   .     S
H953   C1067   1.088   1_455 S
H954   N963    1.045   .     S
H955   N963    1.045   .     S
H956   N964    1.045   .     S
H957   N964    1.045   .     S
H958   N965    1.045   .     S
H959   N965    1.045   .     S
H960   N966    1.045   .     S
N961   Zn991   2.058   .     S
N962   Zn992   2.058   .     S
O967   Zn991   1.963   .     S
O968   S987    1.502   .     D
O969   S987    1.680   .     S
O970   S988    1.502   .     D
O971   S988    1.498   .     D
O972   S988    1.680   .     S
O973   S989    1.501   .     D
O974   S989    1.503   .     D
O975   S989    1.684   .     S
O976   S990    1.503   .     D
O977   S990    1.501   .     D
O978   Zn992   1.963   .     S
O979   S990    1.684   .     S
O980   Zn992   1.976   .     S
O981   Zn991   1.976   .     S
O982   Zn991   1.973   .     S
O983   Zn992   1.973   .     S
O984   Zn992   1.973   .     S
O985   Zn991   1.973   .     S
O986   S987    1.498   .     D
C993   C996    1.399   .     S
C993   O1042   1.295   .     A
C993   O1029   1.295   .     A
C994   C996    1.397   .     A
C994   N1028   1.436   .     S
C995   C1001   1.399   .     S
C995   C1007   1.397   .     A
C995   C1008   1.397   .     A
C996   C1006   1.397   .     A
C997   S1049   1.783   .     S
C997   N1024   1.383   .     A
C998   N1023   1.383   .     A
C998   S1050   1.783   .     S
C998   C1558   1.423   .     S
C999   S1051   1.781   .     S
C999   N1023   1.383   .     A
C999   C1555   1.423   .     S
C1000  S1052   1.781   .     S
C1000  N1024   1.383   .     A
C1001  O1043   1.295   .     A
C1001  O1040   1.295   .     A
C1002  O1044   1.298   .     A
C1002  C1004   1.402   .     S
C1002  O1046   1.297   .     A
C1003  C1005   1.402   .     S
C1003  O1045   1.298   .     A
C1003  O1047   1.297   .     A
C1005  C1066   1.327   .     S
C1005  H1077   1.088   .     S
C1006  N1025   1.436   .     S
C1007  N1026   1.436   .     S
C1007  C622    1.387   1_565 S
C1008  N1027   1.436   .     S
C1008  C634    1.387   1_565 S
H1009  C1066   1.088   .     S
H1010  N1028   1.045   .     S
H1011  O1031   0.990   .     S
H1012  O1034   0.990   .     S
H1013  O1037   0.989   .     S
H1014  O1041   0.989   .     S
H1016  N1025   1.045   .     S
H1017  N1025   1.045   .     S
H1018  N1026   1.045   .     S
H1019  N1026   1.045   .     S
H1020  N1027   1.045   .     S
H1021  N1027   1.045   .     S
H1022  N1028   1.045   .     S
N1023  Zn1053  2.058   .     S
N1024  Zn1054  2.058   .     S
O1029  Zn1053  1.963   .     S
O1030  S1049   1.502   .     D
O1031  S1049   1.680   .     S
O1032  S1050   1.502   .     D
O1033  S1050   1.498   .     D
O1034  S1050   1.680   .     S
O1035  S1051   1.501   .     D
O1036  S1051   1.503   .     D
O1037  S1051   1.684   .     S
O1038  S1052   1.503   .     D
O1039  S1052   1.501   .     D
O1040  Zn1054  1.963   .     S
O1041  S1052   1.684   .     S
O1042  Zn1054  1.976   .     S
O1043  Zn1053  1.976   .     S
O1044  Zn1053  1.973   .     S
O1045  Zn1054  1.973   .     S
O1046  Zn1054  1.973   .     S
O1047  Zn1053  1.973   .     S
O1048  S1049   1.498   .     D
C1055  C1058   1.399   .     S
C1055  O1104   1.295   .     A
C1055  O1091   1.295   .     A
C1056  C1058   1.397   .     A
C1056  N1090   1.436   .     S
C1057  C1063   1.399   .     S
C1057  C1069   1.397   .     A
C1057  C1070   1.397   .     A
C1058  C1068   1.397   .     A
C1059  S1111   1.783   .     S
C1059  N1086   1.383   .     A
C1060  N1085   1.383   .     A
C1060  S1112   1.783   .     S
C1060  C1620   1.423   .     S
C1061  S1113   1.781   .     S
C1061  N1085   1.383   .     A
C1061  C1617   1.423   .     S
C1062  S1114   1.781   .     S
C1062  N1086   1.383   .     A
C1063  O1105   1.295   .     A
C1063  O1102   1.295   .     A
C1064  O1106   1.298   .     A
C1064  C1066   1.402   .     S
C1064  O1108   1.297   .     A
C1065  C1067   1.402   .     S
C1065  O1107   1.298   .     A
C1065  O1109   1.297   .     A
C1067  C942    1.327   1_655 S
C1067  H953    1.088   1_655 S
C1068  N1087   1.436   .     S
C1069  N1088   1.436   .     S
C1069  C684    1.387   1_565 S
C1070  N1089   1.436   .     S
C1070  C696    1.387   1_565 S
H1071  C942    1.088   1_655 S
H1072  N1090   1.045   .     S
H1073  O1093   0.990   .     S
H1074  O1096   0.990   .     S
H1075  O1099   0.989   .     S
H1076  O1103   0.989   .     S
H1078  N1087   1.045   .     S
H1079  N1087   1.045   .     S
H1080  N1088   1.045   .     S
H1081  N1088   1.045   .     S
H1082  N1089   1.045   .     S
H1083  N1089   1.045   .     S
H1084  N1090   1.045   .     S
N1085  Zn1115  2.058   .     S
N1086  Zn1116  2.058   .     S
O1091  Zn1115  1.963   .     S
O1092  S1111   1.502   .     D
O1093  S1111   1.680   .     S
O1094  S1112   1.502   .     D
O1095  S1112   1.498   .     D
O1096  S1112   1.680   .     S
O1097  S1113   1.501   .     D
O1098  S1113   1.503   .     D
O1099  S1113   1.684   .     S
O1100  S1114   1.503   .     D
O1101  S1114   1.501   .     D
O1102  Zn1116  1.963   .     S
O1103  S1114   1.684   .     S
O1104  Zn1116  1.976   .     S
O1105  Zn1115  1.976   .     S
O1106  Zn1115  1.973   .     S
O1107  Zn1116  1.973   .     S
O1108  Zn1116  1.973   .     S
O1109  Zn1115  1.973   .     S
O1110  S1111   1.498   .     D
C1117  C1120   1.399   .     S
C1117  O1166   1.295   .     A
C1117  O1153   1.295   .     A
C1118  C1120   1.397   .     A
C1118  N1152   1.436   .     S
C1118  C1503   1.387   1_545 S
C1119  C1125   1.399   .     S
C1119  C1131   1.397   .     A
C1119  C1132   1.397   .     A
C1120  C1130   1.397   .     A
C1121  S1173   1.783   .     S
C1121  N1148   1.383   .     A
C1122  N1147   1.383   .     A
C1122  S1174   1.783   .     S
C1122  C8      1.423   1_556 S
C1123  S1175   1.781   .     S
C1123  N1147   1.383   .     A
C1123  C5      1.423   1_556 S
C1124  S1176   1.781   .     S
C1124  N1148   1.383   .     A
C1125  O1167   1.295   .     A
C1125  O1164   1.295   .     A
C1126  O1168   1.298   .     A
C1126  C1128   1.402   .     S
C1126  O1170   1.297   .     A
C1127  C1129   1.402   .     S
C1127  O1169   1.298   .     A
C1127  O1171   1.297   .     A
C1128  C1253   1.327   1_455 S
C1128  H1257   1.088   1_455 S
C1129  C1190   1.327   .     S
C1129  H1201   1.088   .     S
C1130  N1149   1.436   .     S
C1130  C1504   1.387   1_545 S
C1131  N1150   1.436   .     S
C1131  C1304   1.387   .     S
C1132  N1151   1.436   .     S
C1132  C1316   1.387   .     S
H1133  C1190   1.088   .     S
H1134  N1152   1.045   .     S
H1135  O1155   0.990   .     S
H1136  O1158   0.990   .     S
H1137  O1161   0.989   .     S
H1138  O1165   0.989   .     S
H1139  C1253   1.088   1_455 S
H1140  N1149   1.045   .     S
H1141  N1149   1.045   .     S
H1142  N1150   1.045   .     S
H1143  N1150   1.045   .     S
H1144  N1151   1.045   .     S
H1145  N1151   1.045   .     S
H1146  N1152   1.045   .     S
N1147  Zn1177  2.058   .     S
N1148  Zn1178  2.058   .     S
O1153  Zn1177  1.963   .     S
O1154  S1173   1.502   .     D
O1155  S1173   1.680   .     S
O1156  S1174   1.502   .     D
O1157  S1174   1.498   .     D
O1158  S1174   1.680   .     S
O1159  S1175   1.501   .     D
O1160  S1175   1.503   .     D
O1161  S1175   1.684   .     S
O1162  S1176   1.503   .     D
O1163  S1176   1.501   .     D
O1164  Zn1178  1.963   .     S
O1165  S1176   1.684   .     S
O1166  Zn1178  1.976   .     S
O1167  Zn1177  1.976   .     S
O1168  Zn1177  1.973   .     S
O1169  Zn1178  1.973   .     S
O1170  Zn1178  1.973   .     S
O1171  Zn1177  1.973   .     S
O1172  S1173   1.498   .     D
C1179  C1182   1.399   .     S
C1179  O1228   1.295   .     A
C1179  O1215   1.295   .     A
C1180  C1182   1.397   .     A
C1180  N1214   1.436   .     S
C1180  C1565   1.387   1_545 S
C1181  C1187   1.399   .     S
C1181  C1193   1.397   .     A
C1181  C1194   1.397   .     A
C1182  C1192   1.397   .     A
C1183  S1235   1.783   .     S
C1183  N1210   1.383   .     A
C1184  N1209   1.383   .     A
C1184  S1236   1.783   .     S
C1184  C70     1.423   1_556 S
C1185  S1237   1.781   .     S
C1185  N1209   1.383   .     A
C1185  C67     1.423   1_556 S
C1186  S1238   1.781   .     S
C1186  N1210   1.383   .     A
C1187  O1229   1.295   .     A
C1187  O1226   1.295   .     A
C1188  O1230   1.298   .     A
C1188  C1190   1.402   .     S
C1188  O1232   1.297   .     A
C1189  C1191   1.402   .     S
C1189  O1231   1.298   .     A
C1189  O1233   1.297   .     A
C1191  C1252   1.327   .     S
C1191  H1263   1.088   .     S
C1192  N1211   1.436   .     S
C1192  C1566   1.387   1_545 S
C1193  N1212   1.436   .     S
C1193  C1366   1.387   .     S
C1194  N1213   1.436   .     S
C1194  C1378   1.387   .     S
H1195  C1252   1.088   .     S
H1196  N1214   1.045   .     S
H1197  O1217   0.990   .     S
H1198  O1220   0.990   .     S
H1199  O1223   0.989   .     S
H1200  O1227   0.989   .     S
H1202  N1211   1.045   .     S
H1203  N1211   1.045   .     S
H1204  N1212   1.045   .     S
H1205  N1212   1.045   .     S
H1206  N1213   1.045   .     S
H1207  N1213   1.045   .     S
H1208  N1214   1.045   .     S
N1209  Zn1239  2.058   .     S
N1210  Zn1240  2.058   .     S
O1215  Zn1239  1.963   .     S
O1216  S1235   1.502   .     D
O1217  S1235   1.680   .     S
O1218  S1236   1.502   .     D
O1219  S1236   1.498   .     D
O1220  S1236   1.680   .     S
O1221  S1237   1.501   .     D
O1222  S1237   1.503   .     D
O1223  S1237   1.684   .     S
O1224  S1238   1.503   .     D
O1225  S1238   1.501   .     D
O1226  Zn1240  1.963   .     S
O1227  S1238   1.684   .     S
O1228  Zn1240  1.976   .     S
O1229  Zn1239  1.976   .     S
O1230  Zn1239  1.973   .     S
O1231  Zn1240  1.973   .     S
O1232  Zn1240  1.973   .     S
O1233  Zn1239  1.973   .     S
O1234  S1235   1.498   .     D
C1241  C1244   1.399   .     S
C1241  O1290   1.295   .     A
C1241  O1277   1.295   .     A
C1242  C1244   1.397   .     A
C1242  N1276   1.436   .     S
C1242  C1627   1.387   1_545 S
C1243  C1249   1.399   .     S
C1243  C1255   1.397   .     A
C1243  C1256   1.397   .     A
C1244  C1254   1.397   .     A
C1245  S1297   1.783   .     S
C1245  N1272   1.383   .     A
C1246  N1271   1.383   .     A
C1246  S1298   1.783   .     S
C1246  C132    1.423   1_556 S
C1247  S1299   1.781   .     S
C1247  N1271   1.383   .     A
C1247  C129    1.423   1_556 S
C1248  S1300   1.781   .     S
C1248  N1272   1.383   .     A
C1249  O1291   1.295   .     A
C1249  O1288   1.295   .     A
C1250  O1292   1.298   .     A
C1250  C1252   1.402   .     S
C1250  O1294   1.297   .     A
C1251  C1253   1.402   .     S
C1251  O1293   1.298   .     A
C1251  O1295   1.297   .     A
C1253  C1128   1.327   1_655 S
C1253  H1139   1.088   1_655 S
C1254  N1273   1.436   .     S
C1254  C1628   1.387   1_545 S
C1255  N1274   1.436   .     S
C1255  C1428   1.387   .     S
C1256  N1275   1.436   .     S
C1256  C1440   1.387   .     S
H1257  C1128   1.088   1_655 S
H1258  N1276   1.045   .     S
H1259  O1279   0.990   .     S
H1260  O1282   0.990   .     S
H1261  O1285   0.989   .     S
H1262  O1289   0.989   .     S
H1264  N1273   1.045   .     S
H1265  N1273   1.045   .     S
H1266  N1274   1.045   .     S
H1267  N1274   1.045   .     S
H1268  N1275   1.045   .     S
H1269  N1275   1.045   .     S
H1270  N1276   1.045   .     S
N1271  Zn1301  2.058   .     S
N1272  Zn1302  2.058   .     S
O1277  Zn1301  1.963   .     S
O1278  S1297   1.502   .     D
O1279  S1297   1.680   .     S
O1280  S1298   1.502   .     D
O1281  S1298   1.498   .     D
O1282  S1298   1.680   .     S
O1283  S1299   1.501   .     D
O1284  S1299   1.503   .     D
O1285  S1299   1.684   .     S
O1286  S1300   1.503   .     D
O1287  S1300   1.501   .     D
O1288  Zn1302  1.963   .     S
O1289  S1300   1.684   .     S
O1290  Zn1302  1.976   .     S
O1291  Zn1301  1.976   .     S
O1292  Zn1301  1.973   .     S
O1293  Zn1302  1.973   .     S
O1294  Zn1302  1.973   .     S
O1295  Zn1301  1.973   .     S
O1296  S1297   1.498   .     D
C1303  C1306   1.399   .     S
C1303  O1352   1.295   .     A
C1303  O1339   1.295   .     A
C1304  C1306   1.397   .     A
C1304  N1338   1.436   .     S
C1305  C1311   1.399   .     S
C1305  C1317   1.397   .     A
C1305  C1318   1.397   .     A
C1306  C1316   1.397   .     A
C1307  S1359   1.783   .     S
C1307  N1334   1.383   .     A
C1308  N1333   1.383   .     A
C1308  S1360   1.783   .     S
C1308  C194    1.423   1_556 S
C1309  S1361   1.781   .     S
C1309  N1333   1.383   .     A
C1309  C191    1.423   1_556 S
C1310  S1362   1.781   .     S
C1310  N1334   1.383   .     A
C1311  O1353   1.295   .     A
C1311  O1350   1.295   .     A
C1312  O1354   1.298   .     A
C1312  C1314   1.402   .     S
C1312  O1356   1.297   .     A
C1313  C1315   1.402   .     S
C1313  O1355   1.298   .     A
C1313  O1357   1.297   .     A
C1314  C1439   1.327   1_455 S
C1314  H1443   1.088   1_455 S
C1315  C1376   1.327   .     S
C1315  H1387   1.088   .     S
C1316  N1335   1.436   .     S
C1317  N1336   1.436   .     S
C1317  C1490   1.387   .     S
C1318  N1337   1.436   .     S
C1318  C1502   1.387   .     S
H1319  C1376   1.088   .     S
H1320  N1338   1.045   .     S
H1321  O1341   0.990   .     S
H1322  O1344   0.990   .     S
H1323  O1347   0.989   .     S
H1324  O1351   0.989   .     S
H1325  C1439   1.088   1_455 S
H1326  N1335   1.045   .     S
H1327  N1335   1.045   .     S
H1328  N1336   1.045   .     S
H1329  N1336   1.045   .     S
H1330  N1337   1.045   .     S
H1331  N1337   1.045   .     S
H1332  N1338   1.045   .     S
N1333  Zn1363  2.058   .     S
N1334  Zn1364  2.058   .     S
O1339  Zn1363  1.963   .     S
O1340  S1359   1.502   .     D
O1341  S1359   1.680   .     S
O1342  S1360   1.502   .     D
O1343  S1360   1.498   .     D
O1344  S1360   1.680   .     S
O1345  S1361   1.501   .     D
O1346  S1361   1.503   .     D
O1347  S1361   1.684   .     S
O1348  S1362   1.503   .     D
O1349  S1362   1.501   .     D
O1350  Zn1364  1.963   .     S
O1351  S1362   1.684   .     S
O1352  Zn1364  1.976   .     S
O1353  Zn1363  1.976   .     S
O1354  Zn1363  1.973   .     S
O1355  Zn1364  1.973   .     S
O1356  Zn1364  1.973   .     S
O1357  Zn1363  1.973   .     S
O1358  S1359   1.498   .     D
C1365  C1368   1.399   .     S
C1365  O1414   1.295   .     A
C1365  O1401   1.295   .     A
C1366  C1368   1.397   .     A
C1366  N1400   1.436   .     S
C1367  C1373   1.399   .     S
C1367  C1379   1.397   .     A
C1367  C1380   1.397   .     A
C1368  C1378   1.397   .     A
C1369  S1421   1.783   .     S
C1369  N1396   1.383   .     A
C1370  N1395   1.383   .     A
C1370  S1422   1.783   .     S
C1370  C256    1.423   1_556 S
C1371  S1423   1.781   .     S
C1371  N1395   1.383   .     A
C1371  C253    1.423   1_556 S
C1372  S1424   1.781   .     S
C1372  N1396   1.383   .     A
C1373  O1415   1.295   .     A
C1373  O1412   1.295   .     A
C1374  O1416   1.298   .     A
C1374  C1376   1.402   .     S
C1374  O1418   1.297   .     A
C1375  C1377   1.402   .     S
C1375  O1417   1.298   .     A
C1375  O1419   1.297   .     A
C1377  C1438   1.327   .     S
C1377  H1449   1.088   .     S
C1378  N1397   1.436   .     S
C1379  N1398   1.436   .     S
C1379  C1552   1.387   .     S
C1380  N1399   1.436   .     S
C1380  C1564   1.387   .     S
H1381  C1438   1.088   .     S
H1382  N1400   1.045   .     S
H1383  O1403   0.990   .     S
H1384  O1406   0.990   .     S
H1385  O1409   0.989   .     S
H1386  O1413   0.989   .     S
H1388  N1397   1.045   .     S
H1389  N1397   1.045   .     S
H1390  N1398   1.045   .     S
H1391  N1398   1.045   .     S
H1392  N1399   1.045   .     S
H1393  N1399   1.045   .     S
H1394  N1400   1.045   .     S
N1395  Zn1425  2.058   .     S
N1396  Zn1426  2.058   .     S
O1401  Zn1425  1.963   .     S
O1402  S1421   1.502   .     D
O1403  S1421   1.680   .     S
O1404  S1422   1.502   .     D
O1405  S1422   1.498   .     D
O1406  S1422   1.680   .     S
O1407  S1423   1.501   .     D
O1408  S1423   1.503   .     D
O1409  S1423   1.684   .     S
O1410  S1424   1.503   .     D
O1411  S1424   1.501   .     D
O1412  Zn1426  1.963   .     S
O1413  S1424   1.684   .     S
O1414  Zn1426  1.976   .     S
O1415  Zn1425  1.976   .     S
O1416  Zn1425  1.973   .     S
O1417  Zn1426  1.973   .     S
O1418  Zn1426  1.973   .     S
O1419  Zn1425  1.973   .     S
O1420  S1421   1.498   .     D
C1427  C1430   1.399   .     S
C1427  O1476   1.295   .     A
C1427  O1463   1.295   .     A
C1428  C1430   1.397   .     A
C1428  N1462   1.436   .     S
C1429  C1435   1.399   .     S
C1429  C1441   1.397   .     A
C1429  C1442   1.397   .     A
C1430  C1440   1.397   .     A
C1431  S1483   1.783   .     S
C1431  N1458   1.383   .     A
C1432  N1457   1.383   .     A
C1432  S1484   1.783   .     S
C1432  C318    1.423   1_556 S
C1433  S1485   1.781   .     S
C1433  N1457   1.383   .     A
C1433  C315    1.423   1_556 S
C1434  S1486   1.781   .     S
C1434  N1458   1.383   .     A
C1435  O1477   1.295   .     A
C1435  O1474   1.295   .     A
C1436  O1478   1.298   .     A
C1436  C1438   1.402   .     S
C1436  O1480   1.297   .     A
C1437  C1439   1.402   .     S
C1437  O1479   1.298   .     A
C1437  O1481   1.297   .     A
C1439  C1314   1.327   1_655 S
C1439  H1325   1.088   1_655 S
C1440  N1459   1.436   .     S
C1441  N1460   1.436   .     S
C1441  C1614   1.387   .     S
C1442  N1461   1.436   .     S
C1442  C1626   1.387   .     S
H1443  C1314   1.088   1_655 S
H1444  N1462   1.045   .     S
H1445  O1465   0.990   .     S
H1446  O1468   0.990   .     S
H1447  O1471   0.989   .     S
H1448  O1475   0.989   .     S
H1450  N1459   1.045   .     S
H1451  N1459   1.045   .     S
H1452  N1460   1.045   .     S
H1453  N1460   1.045   .     S
H1454  N1461   1.045   .     S
H1455  N1461   1.045   .     S
H1456  N1462   1.045   .     S
N1457  Zn1487  2.058   .     S
N1458  Zn1488  2.058   .     S
O1463  Zn1487  1.963   .     S
O1464  S1483   1.502   .     D
O1465  S1483   1.680   .     S
O1466  S1484   1.502   .     D
O1467  S1484   1.498   .     D
O1468  S1484   1.680   .     S
O1469  S1485   1.501   .     D
O1470  S1485   1.503   .     D
O1471  S1485   1.684   .     S
O1472  S1486   1.503   .     D
O1473  S1486   1.501   .     D
O1474  Zn1488  1.963   .     S
O1475  S1486   1.684   .     S
O1476  Zn1488  1.976   .     S
O1477  Zn1487  1.976   .     S
O1478  Zn1487  1.973   .     S
O1479  Zn1488  1.973   .     S
O1480  Zn1488  1.973   .     S
O1481  Zn1487  1.973   .     S
O1482  S1483   1.498   .     D
C1489  C1492   1.399   .     S
C1489  O1538   1.295   .     A
C1489  O1525   1.295   .     A
C1490  C1492   1.397   .     A
C1490  N1524   1.436   .     S
C1491  C1497   1.399   .     S
C1491  C1503   1.397   .     A
C1491  C1504   1.397   .     A
C1492  C1502   1.397   .     A
C1493  S1545   1.783   .     S
C1493  N1520   1.383   .     A
C1494  N1519   1.383   .     A
C1494  S1546   1.783   .     S
C1494  C380    1.423   1_556 S
C1495  S1547   1.781   .     S
C1495  N1519   1.383   .     A
C1495  C377    1.423   1_556 S
C1496  S1548   1.781   .     S
C1496  N1520   1.383   .     A
C1497  O1539   1.295   .     A
C1497  O1536   1.295   .     A
C1498  O1540   1.298   .     A
C1498  C1500   1.402   .     S
C1498  O1542   1.297   .     A
C1499  C1501   1.402   .     S
C1499  O1541   1.298   .     A
C1499  O1543   1.297   .     A
C1500  C1625   1.327   1_455 S
C1500  H1629   1.088   1_455 S
C1501  C1562   1.327   .     S
C1501  H1573   1.088   .     S
C1502  N1521   1.436   .     S
C1503  N1522   1.436   .     S
C1503  C1118   1.387   1_565 S
C1504  N1523   1.436   .     S
C1504  C1130   1.387   1_565 S
H1505  C1562   1.088   .     S
H1506  N1524   1.045   .     S
H1507  O1527   0.990   .     S
H1508  O1530   0.990   .     S
H1509  O1533   0.989   .     S
H1510  O1537   0.989   .     S
H1511  C1625   1.088   1_455 S
H1512  N1521   1.045   .     S
H1513  N1521   1.045   .     S
H1514  N1522   1.045   .     S
H1515  N1522   1.045   .     S
H1516  N1523   1.045   .     S
H1517  N1523   1.045   .     S
H1518  N1524   1.045   .     S
N1519  Zn1549  2.058   .     S
N1520  Zn1550  2.058   .     S
O1525  Zn1549  1.963   .     S
O1526  S1545   1.502   .     D
O1527  S1545   1.680   .     S
O1528  S1546   1.502   .     D
O1529  S1546   1.498   .     D
O1530  S1546   1.680   .     S
O1531  S1547   1.501   .     D
O1532  S1547   1.503   .     D
O1533  S1547   1.684   .     S
O1534  S1548   1.503   .     D
O1535  S1548   1.501   .     D
O1536  Zn1550  1.963   .     S
O1537  S1548   1.684   .     S
O1538  Zn1550  1.976   .     S
O1539  Zn1549  1.976   .     S
O1540  Zn1549  1.973   .     S
O1541  Zn1550  1.973   .     S
O1542  Zn1550  1.973   .     S
O1543  Zn1549  1.973   .     S
O1544  S1545   1.498   .     D
C1551  C1554   1.399   .     S
C1551  O1600   1.295   .     A
C1551  O1587   1.295   .     A
C1552  C1554   1.397   .     A
C1552  N1586   1.436   .     S
C1553  C1559   1.399   .     S
C1553  C1565   1.397   .     A
C1553  C1566   1.397   .     A
C1554  C1564   1.397   .     A
C1555  S1607   1.783   .     S
C1555  N1582   1.383   .     A
C1556  N1581   1.383   .     A
C1556  S1608   1.783   .     S
C1556  C442    1.423   1_556 S
C1557  S1609   1.781   .     S
C1557  N1581   1.383   .     A
C1557  C439    1.423   1_556 S
C1558  S1610   1.781   .     S
C1558  N1582   1.383   .     A
C1559  O1601   1.295   .     A
C1559  O1598   1.295   .     A
C1560  O1602   1.298   .     A
C1560  C1562   1.402   .     S
C1560  O1604   1.297   .     A
C1561  C1563   1.402   .     S
C1561  O1603   1.298   .     A
C1561  O1605   1.297   .     A
C1563  C1624   1.327   .     S
C1563  H1635   1.088   .     S
C1564  N1583   1.436   .     S
C1565  N1584   1.436   .     S
C1565  C1180   1.387   1_565 S
C1566  N1585   1.436   .     S
C1566  C1192   1.387   1_565 S
H1567  C1624   1.088   .     S
H1568  N1586   1.045   .     S
H1569  O1589   0.990   .     S
H1570  O1592   0.990   .     S
H1571  O1595   0.989   .     S
H1572  O1599   0.989   .     S
H1574  N1583   1.045   .     S
H1575  N1583   1.045   .     S
H1576  N1584   1.045   .     S
H1577  N1584   1.045   .     S
H1578  N1585   1.045   .     S
H1579  N1585   1.045   .     S
H1580  N1586   1.045   .     S
N1581  Zn1611  2.058   .     S
N1582  Zn1612  2.058   .     S
O1587  Zn1611  1.963   .     S
O1588  S1607   1.502   .     D
O1589  S1607   1.680   .     S
O1590  S1608   1.502   .     D
O1591  S1608   1.498   .     D
O1592  S1608   1.680   .     S
O1593  S1609   1.501   .     D
O1594  S1609   1.503   .     D
O1595  S1609   1.684   .     S
O1596  S1610   1.503   .     D
O1597  S1610   1.501   .     D
O1598  Zn1612  1.963   .     S
O1599  S1610   1.684   .     S
O1600  Zn1612  1.976   .     S
O1601  Zn1611  1.976   .     S
O1602  Zn1611  1.973   .     S
O1603  Zn1612  1.973   .     S
O1604  Zn1612  1.973   .     S
O1605  Zn1611  1.973   .     S
O1606  S1607   1.498   .     D
C1613  C1616   1.399   .     S
C1613  O1662   1.295   .     A
C1613  O1649   1.295   .     A
C1614  C1616   1.397   .     A
C1614  N1648   1.436   .     S
C1615  C1621   1.399   .     S
C1615  C1627   1.397   .     A
C1615  C1628   1.397   .     A
C1616  C1626   1.397   .     A
C1617  S1669   1.783   .     S
C1617  N1644   1.383   .     A
C1618  N1643   1.383   .     A
C1618  S1670   1.783   .     S
C1618  C504    1.423   1_556 S
C1619  S1671   1.781   .     S
C1619  N1643   1.383   .     A
C1619  C501    1.423   1_556 S
C1620  S1672   1.781   .     S
C1620  N1644   1.383   .     A
C1621  O1663   1.295   .     A
C1621  O1660   1.295   .     A
C1622  O1664   1.298   .     A
C1622  C1624   1.402   .     S
C1622  O1666   1.297   .     A
C1623  C1625   1.402   .     S
C1623  O1665   1.298   .     A
C1623  O1667   1.297   .     A
C1625  C1500   1.327   1_655 S
C1625  H1511   1.088   1_655 S
C1626  N1645   1.436   .     S
C1627  N1646   1.436   .     S
C1627  C1242   1.387   1_565 S
C1628  N1647   1.436   .     S
C1628  C1254   1.387   1_565 S
H1629  C1500   1.088   1_655 S
H1630  N1648   1.045   .     S
H1631  O1651   0.990   .     S
H1632  O1654   0.990   .     S
H1633  O1657   0.989   .     S
H1634  O1661   0.989   .     S
H1636  N1645   1.045   .     S
H1637  N1645   1.045   .     S
H1638  N1646   1.045   .     S
H1639  N1646   1.045   .     S
H1640  N1647   1.045   .     S
H1641  N1647   1.045   .     S
H1642  N1648   1.045   .     S
N1643  Zn1673  2.058   .     S
N1644  Zn1674  2.058   .     S
O1649  Zn1673  1.963   .     S
O1650  S1669   1.502   .     D
O1651  S1669   1.680   .     S
O1652  S1670   1.502   .     D
O1653  S1670   1.498   .     D
O1654  S1670   1.680   .     S
O1655  S1671   1.501   .     D
O1656  S1671   1.503   .     D
O1657  S1671   1.684   .     S
O1658  S1672   1.503   .     D
O1659  S1672   1.501   .     D
O1660  Zn1674  1.963   .     S
O1661  S1672   1.684   .     S
O1662  Zn1674  1.976   .     S
O1663  Zn1673  1.976   .     S
O1664  Zn1673  1.973   .     S
O1665  Zn1674  1.973   .     S
O1666  Zn1674  1.973   .     S
O1667  Zn1673  1.973   .     S
O1668  S1669   1.498   .     D
