data_str_m3_o1_o10_pcu_sym.19
_audit_creation_date              2020-01-03
_audit_creation_method            'Materials Studio'
_symmetry_space_group_name_H-M    'P1'
_symmetry_Int_Tables_number       1
_symmetry_cell_setting            triclinic
loop_
_symmetry_equiv_pos_as_xyz
  x,y,z
_cell_length_a                    25.7515
_cell_length_b                    32.0599
_cell_length_c                    29.5118
_cell_angle_alpha                 89.2794
_cell_angle_beta                  98.1362
_cell_angle_gamma                 90.4172
loop_
_atom_site_label
_atom_site_type_symbol
_atom_site_fract_x
_atom_site_fract_y
_atom_site_fract_z
_atom_site_U_iso_or_equiv
_atom_site_adp_type
_atom_site_occupancy
C1     C     0.16985   0.08665   0.16723   0.00000  Uiso   1.00
C2     C     0.19268   0.02058   0.20919   0.00000  Uiso   1.00
C3     C     0.17915   0.29070   0.16660   0.00000  Uiso   1.00
C4     C     0.17804   0.04264   0.16791   0.00000  Uiso   1.00
C5     C     0.14664   0.19957   0.02107   0.00000  Uiso   1.00
C6     C     0.18573   0.13347   0.31222   0.00000  Uiso   1.00
C7     C     0.14693   0.19967   0.30652   0.00000  Uiso   1.00
C8     C     0.18590   0.13347   0.02681   0.00000  Uiso   1.00
C9     C     0.32934   0.13456   0.07294   0.00000  Uiso   1.00
C10    C     0.31532   0.17873   0.05377   0.00000  Uiso   1.00
C11    C     0.32045   0.18196   0.00293   0.00000  Uiso   1.00
C12    C     0.17015   0.24668   0.16670   0.00000  Uiso   1.00
C13    C     0.00355   0.24399   0.19115   0.00000  Uiso   1.00
C14    C     0.03807   0.27602   0.21931   0.00000  Uiso   1.00
C15    C     0.04104   0.31688   0.19261   0.00000  Uiso   1.00
C16    C     0.23118   0.28247   0.07894   0.00000  Uiso   1.00
C17    C     0.26489   0.31985   0.06770   0.00000  Uiso   1.00
C18    C     0.31882   0.30575   0.05831   0.00000  Uiso   1.00
C19    C     0.26323   0.05390   0.24898   0.00000  Uiso   1.00
C20    C     0.29496   0.04817   0.29637   0.00000  Uiso   1.00
C21    C     0.01650   0.06712   0.29864   0.00000  Uiso   1.00
C22    C     0.06718   0.16437   0.15482   0.00000  Uiso   1.00
C23    C     0.26615   0.16739   0.17825   0.00000  Uiso   1.00
C24    C     0.01224   0.15808   0.14948   0.00000  Uiso   1.00
C25    C     0.32048   0.17441   0.18216   0.00000  Uiso   1.00
C26    C     0.17322   0.02223   0.12598   0.00000  Uiso   1.00
C27    C     0.18953   0.31105   0.20855   0.00000  Uiso   1.00
C28    C     0.17831   0.31310   0.12509   0.00000  Uiso   1.00
H29    H     0.16660   0.03902   0.09358   0.00000  Uiso   1.00
H30    H     0.00825   0.20250   0.07216   0.00000  Uiso   1.00
H31    H     0.02817   0.17572   0.33089   0.00000  Uiso   1.00
H32    H     0.30968   0.21383   0.32328   0.00000  Uiso   1.00
H33    H     0.29385   0.15926   0.31641   0.00000  Uiso   1.00
H34    H     0.29526   0.25406   0.18839   0.00000  Uiso   1.00
H35    H     0.01536   0.24343   0.15622   0.00000  Uiso   1.00
H36    H     0.02202   0.28202   0.25165   0.00000  Uiso   1.00
H37    H     0.07836   0.26358   0.22800   0.00000  Uiso   1.00
H38    H     0.00110   0.32916   0.18109   0.00000  Uiso   1.00
H39    H     0.06104   0.31188   0.16218   0.00000  Uiso   1.00
H40    H     0.19624   0.29390   0.24071   0.00000  Uiso   1.00
H41    H     0.06396   0.00695   0.21464   0.00000  Uiso   1.00
H42    H     0.22896   0.26005   0.05035   0.00000  Uiso   1.00
H43    H     0.25069   0.26568   0.10993   0.00000  Uiso   1.00
H44    H     0.24463   0.00338   0.03720   0.00000  Uiso   1.00
H45    H     0.27049   0.00834   0.09695   0.00000  Uiso   1.00
H46    H     0.00574   0.28789   0.08800   0.00000  Uiso   1.00
H47    H     0.00988   0.00011   0.05239   0.00000  Uiso   1.00
H48    H     0.31490   0.28584   0.02749   0.00000  Uiso   1.00
H49    H     0.26274   0.08751   0.23950   0.00000  Uiso   1.00
H50    H     0.28401   0.03693   0.22410   0.00000  Uiso   1.00
H51    H     0.13034   0.22579   0.03681   0.00000  Uiso   1.00
H52    H     0.27439   0.06309   0.32248   0.00000  Uiso   1.00
H53    H     0.29843   0.01428   0.30428   0.00000  Uiso   1.00
H54    H     0.03881   0.05124   0.27440   0.00000  Uiso   1.00
H55    H     0.03794   0.06326   0.00047   0.00000  Uiso   1.00
H56    H     0.01411   0.10091   0.29000   0.00000  Uiso   1.00
H57    H     0.20093   0.10701   0.29642   0.00000  Uiso   1.00
H58    H     0.13124   0.22613   0.28623   0.00000  Uiso   1.00
H59    H     0.20160   0.10698   0.04716   0.00000  Uiso   1.00
H60    H     0.30321   0.11218   0.05215   0.00000  Uiso   1.00
H61    H     0.03618   0.12528   0.06788   0.00000  Uiso   1.00
H62    H     0.27445   0.18624   0.05839   0.00000  Uiso   1.00
N63    N     0.16665   0.16666   0.28573   0.00000  Uiso   1.00
N64    N     0.16668   0.16668   0.04760   0.00000  Uiso   1.00
O65    O     0.16666   0.10558   0.20487   0.00000  Uiso   1.00
O66    O     0.00958   0.20431   0.21286   0.00000  Uiso   1.00
O67    O     0.17909   0.29440   0.08313   0.00000  Uiso   1.00
O68    O     0.21095   0.03992   0.25002   0.00000  Uiso   1.00
O69    O     0.16667   0.22775   0.12846   0.00000  Uiso   1.00
O70    O     0.16666   0.10559   0.12843   0.00000  Uiso   1.00
O71    O     0.16667   0.22774   0.20490   0.00000  Uiso   1.00
O72    O     0.09058   0.16666   0.19595   0.00000  Uiso   1.00
O73    O     0.24275   0.16667   0.13739   0.00000  Uiso   1.00
O74    O     0.09058   0.16667   0.11950   0.00000  Uiso   1.00
O75    O     0.24275   0.16666   0.21383   0.00000  Uiso   1.00
O76    O     0.32086   0.12839   0.11909   0.00000  Uiso   1.00
Zn77   Zn    0.16667   0.16666   0.21771   0.00000  Uiso   1.00
Zn78   Zn    0.16667   0.16667   0.11563   0.00000  Uiso   1.00
C79    C     0.50319   0.08665   0.16723   0.00000  Uiso   1.00
C80    C     0.52601   0.02058   0.20919   0.00000  Uiso   1.00
C81    C     0.51249   0.29070   0.16660   0.00000  Uiso   1.00
C82    C     0.51137   0.04264   0.16791   0.00000  Uiso   1.00
C83    C     0.47997   0.19957   0.02107   0.00000  Uiso   1.00
C84    C     0.51906   0.13347   0.31222   0.00000  Uiso   1.00
C85    C     0.48026   0.19967   0.30652   0.00000  Uiso   1.00
C86    C     0.51924   0.13347   0.02681   0.00000  Uiso   1.00
C87    C     0.66268   0.13456   0.07294   0.00000  Uiso   1.00
C88    C     0.64865   0.17873   0.05377   0.00000  Uiso   1.00
C89    C     0.65378   0.18196   0.00293   0.00000  Uiso   1.00
C90    C     0.50349   0.24668   0.16670   0.00000  Uiso   1.00
C91    C     0.33689   0.24399   0.19115   0.00000  Uiso   1.00
C92    C     0.37140   0.27602   0.21931   0.00000  Uiso   1.00
C93    C     0.37437   0.31688   0.19261   0.00000  Uiso   1.00
C94    C     0.56451   0.28247   0.07894   0.00000  Uiso   1.00
C95    C     0.59822   0.31985   0.06770   0.00000  Uiso   1.00
C96    C     0.65215   0.30575   0.05831   0.00000  Uiso   1.00
C97    C     0.59656   0.05390   0.24898   0.00000  Uiso   1.00
C98    C     0.62830   0.04817   0.29637   0.00000  Uiso   1.00
C99    C     0.34983   0.06712   0.29864   0.00000  Uiso   1.00
C100   C     0.40051   0.16437   0.15482   0.00000  Uiso   1.00
C101   C     0.59948   0.16739   0.17825   0.00000  Uiso   1.00
C102   C     0.34558   0.15808   0.14948   0.00000  Uiso   1.00
C103   C     0.65381   0.17441   0.18216   0.00000  Uiso   1.00
C104   C     0.50656   0.02223   0.12598   0.00000  Uiso   1.00
C105   C     0.52287   0.31105   0.20855   0.00000  Uiso   1.00
C106   C     0.51165   0.31310   0.12509   0.00000  Uiso   1.00
H107   H     0.49993   0.03902   0.09358   0.00000  Uiso   1.00
H108   H     0.34158   0.20250   0.07216   0.00000  Uiso   1.00
H109   H     0.36150   0.17572   0.33089   0.00000  Uiso   1.00
H110   H     0.64302   0.21383   0.32328   0.00000  Uiso   1.00
H111   H     0.62718   0.15926   0.31641   0.00000  Uiso   1.00
H112   H     0.62860   0.25406   0.18839   0.00000  Uiso   1.00
H113   H     0.34870   0.24343   0.15622   0.00000  Uiso   1.00
H114   H     0.35535   0.28202   0.25165   0.00000  Uiso   1.00
H115   H     0.41169   0.26358   0.22800   0.00000  Uiso   1.00
H116   H     0.33443   0.32916   0.18109   0.00000  Uiso   1.00
H117   H     0.39438   0.31188   0.16218   0.00000  Uiso   1.00
H118   H     0.52957   0.29390   0.24071   0.00000  Uiso   1.00
H119   H     0.39729   0.00695   0.21464   0.00000  Uiso   1.00
H120   H     0.56230   0.26005   0.05035   0.00000  Uiso   1.00
H121   H     0.58403   0.26568   0.10993   0.00000  Uiso   1.00
H122   H     0.57797   0.00338   0.03720   0.00000  Uiso   1.00
H123   H     0.60383   0.00834   0.09695   0.00000  Uiso   1.00
H124   H     0.33907   0.28789   0.08800   0.00000  Uiso   1.00
H125   H     0.34322   0.00011   0.05239   0.00000  Uiso   1.00
H126   H     0.64823   0.28584   0.02749   0.00000  Uiso   1.00
H127   H     0.59607   0.08751   0.23950   0.00000  Uiso   1.00
H128   H     0.61734   0.03693   0.22410   0.00000  Uiso   1.00
H129   H     0.46367   0.22579   0.03681   0.00000  Uiso   1.00
H130   H     0.60772   0.06309   0.32248   0.00000  Uiso   1.00
H131   H     0.63177   0.01428   0.30428   0.00000  Uiso   1.00
H132   H     0.37214   0.05124   0.27440   0.00000  Uiso   1.00
H133   H     0.37128   0.06326   0.00047   0.00000  Uiso   1.00
H134   H     0.34745   0.10091   0.29000   0.00000  Uiso   1.00
H135   H     0.53426   0.10701   0.29642   0.00000  Uiso   1.00
H136   H     0.46458   0.22613   0.28623   0.00000  Uiso   1.00
H137   H     0.53494   0.10698   0.04716   0.00000  Uiso   1.00
H138   H     0.63655   0.11218   0.05215   0.00000  Uiso   1.00
H139   H     0.36951   0.12528   0.06788   0.00000  Uiso   1.00
H140   H     0.60778   0.18624   0.05839   0.00000  Uiso   1.00
N141   N     0.49999   0.16666   0.28573   0.00000  Uiso   1.00
N142   N     0.50001   0.16668   0.04760   0.00000  Uiso   1.00
O143   O     0.50000   0.10558   0.20487   0.00000  Uiso   1.00
O144   O     0.34292   0.20431   0.21286   0.00000  Uiso   1.00
O145   O     0.51242   0.29440   0.08313   0.00000  Uiso   1.00
O146   O     0.54428   0.03992   0.25002   0.00000  Uiso   1.00
O147   O     0.50000   0.22775   0.12846   0.00000  Uiso   1.00
O148   O     0.50000   0.10559   0.12843   0.00000  Uiso   1.00
O149   O     0.50000   0.22774   0.20490   0.00000  Uiso   1.00
O150   O     0.42392   0.16666   0.19595   0.00000  Uiso   1.00
O151   O     0.57608   0.16667   0.13739   0.00000  Uiso   1.00
O152   O     0.42392   0.16667   0.11950   0.00000  Uiso   1.00
O153   O     0.57608   0.16666   0.21383   0.00000  Uiso   1.00
O154   O     0.65419   0.12839   0.11909   0.00000  Uiso   1.00
Zn155  Zn    0.50000   0.16666   0.21771   0.00000  Uiso   1.00
Zn156  Zn    0.50000   0.16667   0.11563   0.00000  Uiso   1.00
C157   C     0.83652   0.08665   0.16723   0.00000  Uiso   1.00
C158   C     0.85935   0.02058   0.20919   0.00000  Uiso   1.00
C159   C     0.84582   0.29070   0.16660   0.00000  Uiso   1.00
C160   C     0.84470   0.04264   0.16791   0.00000  Uiso   1.00
C161   C     0.81330   0.19957   0.02107   0.00000  Uiso   1.00
C162   C     0.85239   0.13347   0.31222   0.00000  Uiso   1.00
C163   C     0.81360   0.19967   0.30652   0.00000  Uiso   1.00
C164   C     0.85257   0.13347   0.02681   0.00000  Uiso   1.00
C165   C     0.99601   0.13456   0.07294   0.00000  Uiso   1.00
C166   C     0.98198   0.17873   0.05377   0.00000  Uiso   1.00
C167   C     0.98712   0.18196   0.00293   0.00000  Uiso   1.00
C168   C     0.83682   0.24668   0.16670   0.00000  Uiso   1.00
C169   C     0.67022   0.24399   0.19115   0.00000  Uiso   1.00
C170   C     0.70473   0.27602   0.21931   0.00000  Uiso   1.00
C171   C     0.70770   0.31688   0.19261   0.00000  Uiso   1.00
C172   C     0.89784   0.28247   0.07894   0.00000  Uiso   1.00
C173   C     0.93155   0.31985   0.06770   0.00000  Uiso   1.00
C174   C     0.98548   0.30575   0.05831   0.00000  Uiso   1.00
C175   C     0.92989   0.05390   0.24898   0.00000  Uiso   1.00
C176   C     0.96163   0.04817   0.29637   0.00000  Uiso   1.00
C177   C     0.68316   0.06712   0.29864   0.00000  Uiso   1.00
C178   C     0.73385   0.16437   0.15482   0.00000  Uiso   1.00
C179   C     0.93281   0.16739   0.17825   0.00000  Uiso   1.00
C180   C     0.67891   0.15808   0.14948   0.00000  Uiso   1.00
C181   C     0.98714   0.17441   0.18216   0.00000  Uiso   1.00
C182   C     0.83989   0.02223   0.12598   0.00000  Uiso   1.00
C183   C     0.85620   0.31105   0.20855   0.00000  Uiso   1.00
C184   C     0.84498   0.31310   0.12509   0.00000  Uiso   1.00
H185   H     0.83327   0.03902   0.09358   0.00000  Uiso   1.00
H186   H     0.67492   0.20250   0.07216   0.00000  Uiso   1.00
H187   H     0.69483   0.17572   0.33089   0.00000  Uiso   1.00
H188   H     0.97635   0.21383   0.32328   0.00000  Uiso   1.00
H189   H     0.96052   0.15926   0.31641   0.00000  Uiso   1.00
H190   H     0.96193   0.25406   0.18839   0.00000  Uiso   1.00
H191   H     0.68203   0.24343   0.15622   0.00000  Uiso   1.00
H192   H     0.68869   0.28202   0.25165   0.00000  Uiso   1.00
H193   H     0.74503   0.26358   0.22800   0.00000  Uiso   1.00
H194   H     0.66777   0.32916   0.18109   0.00000  Uiso   1.00
H195   H     0.72771   0.31188   0.16218   0.00000  Uiso   1.00
H196   H     0.86291   0.29390   0.24071   0.00000  Uiso   1.00
H197   H     0.73062   0.00695   0.21464   0.00000  Uiso   1.00
H198   H     0.89563   0.26005   0.05035   0.00000  Uiso   1.00
H199   H     0.91736   0.26568   0.10993   0.00000  Uiso   1.00
H200   H     0.91130   0.00338   0.03720   0.00000  Uiso   1.00
H201   H     0.93716   0.00834   0.09695   0.00000  Uiso   1.00
H202   H     0.67241   0.28789   0.08800   0.00000  Uiso   1.00
H203   H     0.67655   0.00011   0.05239   0.00000  Uiso   1.00
H204   H     0.98157   0.28584   0.02749   0.00000  Uiso   1.00
H205   H     0.92940   0.08751   0.23950   0.00000  Uiso   1.00
H206   H     0.95068   0.03693   0.22410   0.00000  Uiso   1.00
H207   H     0.79700   0.22579   0.03681   0.00000  Uiso   1.00
H208   H     0.94105   0.06309   0.32248   0.00000  Uiso   1.00
H209   H     0.96510   0.01428   0.30428   0.00000  Uiso   1.00
H210   H     0.70548   0.05124   0.27440   0.00000  Uiso   1.00
H211   H     0.70461   0.06326   0.00047   0.00000  Uiso   1.00
H212   H     0.68078   0.10091   0.29000   0.00000  Uiso   1.00
H213   H     0.86760   0.10701   0.29642   0.00000  Uiso   1.00
H214   H     0.79791   0.22613   0.28623   0.00000  Uiso   1.00
H215   H     0.86827   0.10698   0.04716   0.00000  Uiso   1.00
H216   H     0.96988   0.11218   0.05215   0.00000  Uiso   1.00
H217   H     0.70285   0.12528   0.06788   0.00000  Uiso   1.00
H218   H     0.94111   0.18624   0.05839   0.00000  Uiso   1.00
N219   N     0.83332   0.16666   0.28573   0.00000  Uiso   1.00
N220   N     0.83335   0.16668   0.04760   0.00000  Uiso   1.00
O221   O     0.83333   0.10558   0.20487   0.00000  Uiso   1.00
O222   O     0.67625   0.20431   0.21286   0.00000  Uiso   1.00
O223   O     0.84576   0.29440   0.08313   0.00000  Uiso   1.00
O224   O     0.87762   0.03992   0.25002   0.00000  Uiso   1.00
O225   O     0.83334   0.22775   0.12846   0.00000  Uiso   1.00
O226   O     0.83333   0.10559   0.12843   0.00000  Uiso   1.00
O227   O     0.83334   0.22774   0.20490   0.00000  Uiso   1.00
O228   O     0.75725   0.16666   0.19595   0.00000  Uiso   1.00
O229   O     0.90942   0.16667   0.13739   0.00000  Uiso   1.00
O230   O     0.75725   0.16667   0.11950   0.00000  Uiso   1.00
O231   O     0.90942   0.16666   0.21383   0.00000  Uiso   1.00
O232   O     0.98752   0.12839   0.11909   0.00000  Uiso   1.00
Zn233  Zn    0.83333   0.16666   0.21771   0.00000  Uiso   1.00
Zn234  Zn    0.83333   0.16667   0.11563   0.00000  Uiso   1.00
C235   C     0.16985   0.41999   0.16723   0.00000  Uiso   1.00
C236   C     0.19268   0.35391   0.20919   0.00000  Uiso   1.00
C237   C     0.17915   0.62403   0.16660   0.00000  Uiso   1.00
C238   C     0.17804   0.37598   0.16791   0.00000  Uiso   1.00
C239   C     0.14664   0.53290   0.02107   0.00000  Uiso   1.00
C240   C     0.18573   0.46680   0.31222   0.00000  Uiso   1.00
C241   C     0.14693   0.53301   0.30652   0.00000  Uiso   1.00
C242   C     0.18590   0.46681   0.02681   0.00000  Uiso   1.00
C243   C     0.32934   0.46789   0.07294   0.00000  Uiso   1.00
C244   C     0.31532   0.51207   0.05377   0.00000  Uiso   1.00
C245   C     0.32045   0.51529   0.00293   0.00000  Uiso   1.00
C246   C     0.17015   0.58002   0.16670   0.00000  Uiso   1.00
C247   C     0.00355   0.57733   0.19115   0.00000  Uiso   1.00
C248   C     0.03807   0.60935   0.21931   0.00000  Uiso   1.00
C249   C     0.04104   0.65022   0.19261   0.00000  Uiso   1.00
C250   C     0.23118   0.61580   0.07894   0.00000  Uiso   1.00
C251   C     0.26489   0.65318   0.06770   0.00000  Uiso   1.00
C252   C     0.31882   0.63909   0.05831   0.00000  Uiso   1.00
C253   C     0.26323   0.38724   0.24898   0.00000  Uiso   1.00
C254   C     0.29496   0.38150   0.29637   0.00000  Uiso   1.00
C255   C     0.01650   0.40045   0.29864   0.00000  Uiso   1.00
C256   C     0.06718   0.49770   0.15482   0.00000  Uiso   1.00
C257   C     0.26615   0.50072   0.17825   0.00000  Uiso   1.00
C258   C     0.01224   0.49142   0.14948   0.00000  Uiso   1.00
C259   C     0.32048   0.50775   0.18216   0.00000  Uiso   1.00
C260   C     0.17322   0.35556   0.12598   0.00000  Uiso   1.00
C261   C     0.18953   0.64439   0.20855   0.00000  Uiso   1.00
C262   C     0.17831   0.64643   0.12509   0.00000  Uiso   1.00
H263   H     0.16660   0.37235   0.09358   0.00000  Uiso   1.00
H264   H     0.00825   0.53583   0.07216   0.00000  Uiso   1.00
H265   H     0.02817   0.50905   0.33089   0.00000  Uiso   1.00
H266   H     0.30968   0.54717   0.32328   0.00000  Uiso   1.00
H267   H     0.29385   0.49260   0.31641   0.00000  Uiso   1.00
H268   H     0.29526   0.58740   0.18839   0.00000  Uiso   1.00
H269   H     0.01536   0.57676   0.15622   0.00000  Uiso   1.00
H270   H     0.02202   0.61536   0.25165   0.00000  Uiso   1.00
H271   H     0.07836   0.59691   0.22800   0.00000  Uiso   1.00
H272   H     0.00110   0.66249   0.18109   0.00000  Uiso   1.00
H273   H     0.06104   0.64521   0.16218   0.00000  Uiso   1.00
H274   H     0.19624   0.62723   0.24071   0.00000  Uiso   1.00
H275   H     0.06396   0.34028   0.21464   0.00000  Uiso   1.00
H276   H     0.22896   0.59338   0.05035   0.00000  Uiso   1.00
H277   H     0.25069   0.59901   0.10993   0.00000  Uiso   1.00
H278   H     0.24463   0.33671   0.03720   0.00000  Uiso   1.00
H279   H     0.27049   0.34167   0.09695   0.00000  Uiso   1.00
H280   H     0.00574   0.62122   0.08800   0.00000  Uiso   1.00
H281   H     0.00988   0.33344   0.05239   0.00000  Uiso   1.00
H282   H     0.31490   0.61917   0.02749   0.00000  Uiso   1.00
H283   H     0.26274   0.42085   0.23950   0.00000  Uiso   1.00
H284   H     0.28401   0.37026   0.22410   0.00000  Uiso   1.00
H285   H     0.13034   0.55913   0.03681   0.00000  Uiso   1.00
H286   H     0.27439   0.39642   0.32248   0.00000  Uiso   1.00
H287   H     0.29843   0.34762   0.30428   0.00000  Uiso   1.00
H288   H     0.03881   0.38458   0.27440   0.00000  Uiso   1.00
H289   H     0.03794   0.39659   0.00047   0.00000  Uiso   1.00
H290   H     0.01411   0.43425   0.29000   0.00000  Uiso   1.00
H291   H     0.20093   0.44034   0.29642   0.00000  Uiso   1.00
H292   H     0.13124   0.55946   0.28623   0.00000  Uiso   1.00
H293   H     0.20160   0.44031   0.04716   0.00000  Uiso   1.00
H294   H     0.30321   0.44551   0.05215   0.00000  Uiso   1.00
H295   H     0.03618   0.45862   0.06788   0.00000  Uiso   1.00
H296   H     0.27445   0.51957   0.05839   0.00000  Uiso   1.00
N297   N     0.16665   0.49999   0.28573   0.00000  Uiso   1.00
N298   N     0.16668   0.50001   0.04760   0.00000  Uiso   1.00
O299   O     0.16666   0.43892   0.20487   0.00000  Uiso   1.00
O300   O     0.00958   0.53765   0.21286   0.00000  Uiso   1.00
O301   O     0.17909   0.62774   0.08313   0.00000  Uiso   1.00
O302   O     0.21095   0.37325   0.25002   0.00000  Uiso   1.00
O303   O     0.16667   0.56108   0.12846   0.00000  Uiso   1.00
O304   O     0.16666   0.43893   0.12843   0.00000  Uiso   1.00
O305   O     0.16667   0.56107   0.20490   0.00000  Uiso   1.00
O306   O     0.09058   0.50000   0.19595   0.00000  Uiso   1.00
O307   O     0.24275   0.50000   0.13739   0.00000  Uiso   1.00
O308   O     0.09058   0.50000   0.11950   0.00000  Uiso   1.00
O309   O     0.24275   0.50000   0.21383   0.00000  Uiso   1.00
O310   O     0.32086   0.46172   0.11909   0.00000  Uiso   1.00
Zn311  Zn    0.16667   0.49999   0.21771   0.00000  Uiso   1.00
Zn312  Zn    0.16667   0.50001   0.11563   0.00000  Uiso   1.00
C313   C     0.50319   0.41999   0.16723   0.00000  Uiso   1.00
C314   C     0.52601   0.35391   0.20919   0.00000  Uiso   1.00
C315   C     0.51249   0.62403   0.16660   0.00000  Uiso   1.00
C316   C     0.51137   0.37598   0.16791   0.00000  Uiso   1.00
C317   C     0.47997   0.53290   0.02107   0.00000  Uiso   1.00
C318   C     0.51906   0.46680   0.31222   0.00000  Uiso   1.00
C319   C     0.48026   0.53301   0.30652   0.00000  Uiso   1.00
C320   C     0.51924   0.46681   0.02681   0.00000  Uiso   1.00
C321   C     0.66268   0.46789   0.07294   0.00000  Uiso   1.00
C322   C     0.64865   0.51207   0.05377   0.00000  Uiso   1.00
C323   C     0.65378   0.51529   0.00293   0.00000  Uiso   1.00
C324   C     0.50349   0.58002   0.16670   0.00000  Uiso   1.00
C325   C     0.33689   0.57733   0.19115   0.00000  Uiso   1.00
C326   C     0.37140   0.60935   0.21931   0.00000  Uiso   1.00
C327   C     0.37437   0.65022   0.19261   0.00000  Uiso   1.00
C328   C     0.56451   0.61580   0.07894   0.00000  Uiso   1.00
C329   C     0.59822   0.65318   0.06770   0.00000  Uiso   1.00
C330   C     0.65215   0.63909   0.05831   0.00000  Uiso   1.00
C331   C     0.59656   0.38724   0.24898   0.00000  Uiso   1.00
C332   C     0.62830   0.38150   0.29637   0.00000  Uiso   1.00
C333   C     0.34983   0.40045   0.29864   0.00000  Uiso   1.00
C334   C     0.40051   0.49770   0.15482   0.00000  Uiso   1.00
C335   C     0.59948   0.50072   0.17825   0.00000  Uiso   1.00
C336   C     0.34558   0.49142   0.14948   0.00000  Uiso   1.00
C337   C     0.65381   0.50775   0.18216   0.00000  Uiso   1.00
C338   C     0.50656   0.35556   0.12598   0.00000  Uiso   1.00
C339   C     0.52287   0.64439   0.20855   0.00000  Uiso   1.00
C340   C     0.51165   0.64643   0.12509   0.00000  Uiso   1.00
H341   H     0.49993   0.37235   0.09358   0.00000  Uiso   1.00
H342   H     0.34158   0.53583   0.07216   0.00000  Uiso   1.00
H343   H     0.36150   0.50905   0.33089   0.00000  Uiso   1.00
H344   H     0.64302   0.54717   0.32328   0.00000  Uiso   1.00
H345   H     0.62718   0.49260   0.31641   0.00000  Uiso   1.00
H346   H     0.62860   0.58740   0.18839   0.00000  Uiso   1.00
H347   H     0.34870   0.57676   0.15622   0.00000  Uiso   1.00
H348   H     0.35535   0.61536   0.25165   0.00000  Uiso   1.00
H349   H     0.41169   0.59691   0.22800   0.00000  Uiso   1.00
H350   H     0.33443   0.66249   0.18109   0.00000  Uiso   1.00
H351   H     0.39438   0.64521   0.16218   0.00000  Uiso   1.00
H352   H     0.52957   0.62723   0.24071   0.00000  Uiso   1.00
H353   H     0.39729   0.34028   0.21464   0.00000  Uiso   1.00
H354   H     0.56230   0.59338   0.05035   0.00000  Uiso   1.00
H355   H     0.58403   0.59901   0.10993   0.00000  Uiso   1.00
H356   H     0.57797   0.33671   0.03720   0.00000  Uiso   1.00
H357   H     0.60383   0.34167   0.09695   0.00000  Uiso   1.00
H358   H     0.33907   0.62122   0.08800   0.00000  Uiso   1.00
H359   H     0.34322   0.33344   0.05239   0.00000  Uiso   1.00
H360   H     0.64823   0.61917   0.02749   0.00000  Uiso   1.00
H361   H     0.59607   0.42085   0.23950   0.00000  Uiso   1.00
H362   H     0.61734   0.37026   0.22410   0.00000  Uiso   1.00
H363   H     0.46367   0.55913   0.03681   0.00000  Uiso   1.00
H364   H     0.60772   0.39642   0.32248   0.00000  Uiso   1.00
H365   H     0.63177   0.34762   0.30428   0.00000  Uiso   1.00
H366   H     0.37214   0.38458   0.27440   0.00000  Uiso   1.00
H367   H     0.37128   0.39659   0.00047   0.00000  Uiso   1.00
H368   H     0.34745   0.43425   0.29000   0.00000  Uiso   1.00
H369   H     0.53426   0.44034   0.29642   0.00000  Uiso   1.00
H370   H     0.46458   0.55946   0.28623   0.00000  Uiso   1.00
H371   H     0.53494   0.44031   0.04716   0.00000  Uiso   1.00
H372   H     0.63655   0.44551   0.05215   0.00000  Uiso   1.00
H373   H     0.36951   0.45862   0.06788   0.00000  Uiso   1.00
H374   H     0.60778   0.51957   0.05839   0.00000  Uiso   1.00
N375   N     0.49999   0.49999   0.28573   0.00000  Uiso   1.00
N376   N     0.50001   0.50001   0.04760   0.00000  Uiso   1.00
O377   O     0.50000   0.43892   0.20487   0.00000  Uiso   1.00
O378   O     0.34292   0.53765   0.21286   0.00000  Uiso   1.00
O379   O     0.51242   0.62774   0.08313   0.00000  Uiso   1.00
O380   O     0.54428   0.37325   0.25002   0.00000  Uiso   1.00
O381   O     0.50000   0.56108   0.12846   0.00000  Uiso   1.00
O382   O     0.50000   0.43893   0.12843   0.00000  Uiso   1.00
O383   O     0.50000   0.56107   0.20490   0.00000  Uiso   1.00
O384   O     0.42392   0.50000   0.19595   0.00000  Uiso   1.00
O385   O     0.57608   0.50000   0.13739   0.00000  Uiso   1.00
O386   O     0.42392   0.50000   0.11950   0.00000  Uiso   1.00
O387   O     0.57608   0.50000   0.21383   0.00000  Uiso   1.00
O388   O     0.65419   0.46172   0.11909   0.00000  Uiso   1.00
Zn389  Zn    0.50000   0.49999   0.21771   0.00000  Uiso   1.00
Zn390  Zn    0.50000   0.50001   0.11563   0.00000  Uiso   1.00
C391   C     0.83652   0.41999   0.16723   0.00000  Uiso   1.00
C392   C     0.85935   0.35391   0.20919   0.00000  Uiso   1.00
C393   C     0.84582   0.62403   0.16660   0.00000  Uiso   1.00
C394   C     0.84470   0.37598   0.16791   0.00000  Uiso   1.00
C395   C     0.81330   0.53290   0.02107   0.00000  Uiso   1.00
C396   C     0.85239   0.46680   0.31222   0.00000  Uiso   1.00
C397   C     0.81360   0.53301   0.30652   0.00000  Uiso   1.00
C398   C     0.85257   0.46681   0.02681   0.00000  Uiso   1.00
C399   C     0.99601   0.46789   0.07294   0.00000  Uiso   1.00
C400   C     0.98198   0.51207   0.05377   0.00000  Uiso   1.00
C401   C     0.98712   0.51529   0.00293   0.00000  Uiso   1.00
C402   C     0.83682   0.58002   0.16670   0.00000  Uiso   1.00
C403   C     0.67022   0.57733   0.19115   0.00000  Uiso   1.00
C404   C     0.70473   0.60935   0.21931   0.00000  Uiso   1.00
C405   C     0.70770   0.65022   0.19261   0.00000  Uiso   1.00
C406   C     0.89784   0.61580   0.07894   0.00000  Uiso   1.00
C407   C     0.93155   0.65318   0.06770   0.00000  Uiso   1.00
C408   C     0.98548   0.63909   0.05831   0.00000  Uiso   1.00
C409   C     0.92989   0.38724   0.24898   0.00000  Uiso   1.00
C410   C     0.96163   0.38150   0.29637   0.00000  Uiso   1.00
C411   C     0.68316   0.40045   0.29864   0.00000  Uiso   1.00
C412   C     0.73385   0.49770   0.15482   0.00000  Uiso   1.00
C413   C     0.93281   0.50072   0.17825   0.00000  Uiso   1.00
C414   C     0.67891   0.49142   0.14948   0.00000  Uiso   1.00
C415   C     0.98714   0.50775   0.18216   0.00000  Uiso   1.00
C416   C     0.83989   0.35556   0.12598   0.00000  Uiso   1.00
C417   C     0.85620   0.64439   0.20855   0.00000  Uiso   1.00
C418   C     0.84498   0.64643   0.12509   0.00000  Uiso   1.00
H419   H     0.83327   0.37235   0.09358   0.00000  Uiso   1.00
H420   H     0.67492   0.53583   0.07216   0.00000  Uiso   1.00
H421   H     0.69483   0.50905   0.33089   0.00000  Uiso   1.00
H422   H     0.97635   0.54717   0.32328   0.00000  Uiso   1.00
H423   H     0.96052   0.49260   0.31641   0.00000  Uiso   1.00
H424   H     0.96193   0.58740   0.18839   0.00000  Uiso   1.00
H425   H     0.68203   0.57676   0.15622   0.00000  Uiso   1.00
H426   H     0.68869   0.61536   0.25165   0.00000  Uiso   1.00
H427   H     0.74503   0.59691   0.22800   0.00000  Uiso   1.00
H428   H     0.66777   0.66249   0.18109   0.00000  Uiso   1.00
H429   H     0.72771   0.64521   0.16218   0.00000  Uiso   1.00
H430   H     0.86291   0.62723   0.24071   0.00000  Uiso   1.00
H431   H     0.73062   0.34028   0.21464   0.00000  Uiso   1.00
H432   H     0.89563   0.59338   0.05035   0.00000  Uiso   1.00
H433   H     0.91736   0.59901   0.10993   0.00000  Uiso   1.00
H434   H     0.91130   0.33671   0.03720   0.00000  Uiso   1.00
H435   H     0.93716   0.34167   0.09695   0.00000  Uiso   1.00
H436   H     0.67241   0.62122   0.08800   0.00000  Uiso   1.00
H437   H     0.67655   0.33344   0.05239   0.00000  Uiso   1.00
H438   H     0.98157   0.61917   0.02749   0.00000  Uiso   1.00
H439   H     0.92940   0.42085   0.23950   0.00000  Uiso   1.00
H440   H     0.95068   0.37026   0.22410   0.00000  Uiso   1.00
H441   H     0.79700   0.55913   0.03681   0.00000  Uiso   1.00
H442   H     0.94105   0.39642   0.32248   0.00000  Uiso   1.00
H443   H     0.96510   0.34762   0.30428   0.00000  Uiso   1.00
H444   H     0.70548   0.38458   0.27440   0.00000  Uiso   1.00
H445   H     0.70461   0.39659   0.00047   0.00000  Uiso   1.00
H446   H     0.68078   0.43425   0.29000   0.00000  Uiso   1.00
H447   H     0.86760   0.44034   0.29642   0.00000  Uiso   1.00
H448   H     0.79791   0.55946   0.28623   0.00000  Uiso   1.00
H449   H     0.86827   0.44031   0.04716   0.00000  Uiso   1.00
H450   H     0.96988   0.44551   0.05215   0.00000  Uiso   1.00
H451   H     0.70285   0.45862   0.06788   0.00000  Uiso   1.00
H452   H     0.94111   0.51957   0.05839   0.00000  Uiso   1.00
N453   N     0.83332   0.49999   0.28573   0.00000  Uiso   1.00
N454   N     0.83335   0.50001   0.04760   0.00000  Uiso   1.00
O455   O     0.83333   0.43892   0.20487   0.00000  Uiso   1.00
O456   O     0.67625   0.53765   0.21286   0.00000  Uiso   1.00
O457   O     0.84576   0.62774   0.08313   0.00000  Uiso   1.00
O458   O     0.87762   0.37325   0.25002   0.00000  Uiso   1.00
O459   O     0.83334   0.56108   0.12846   0.00000  Uiso   1.00
O460   O     0.83333   0.43893   0.12843   0.00000  Uiso   1.00
O461   O     0.83334   0.56107   0.20490   0.00000  Uiso   1.00
O462   O     0.75725   0.50000   0.19595   0.00000  Uiso   1.00
O463   O     0.90942   0.50000   0.13739   0.00000  Uiso   1.00
O464   O     0.75725   0.50000   0.11950   0.00000  Uiso   1.00
O465   O     0.90942   0.50000   0.21383   0.00000  Uiso   1.00
O466   O     0.98752   0.46172   0.11909   0.00000  Uiso   1.00
Zn467  Zn    0.83333   0.49999   0.21771   0.00000  Uiso   1.00
Zn468  Zn    0.83333   0.50001   0.11563   0.00000  Uiso   1.00
C469   C     0.16985   0.75332   0.16723   0.00000  Uiso   1.00
C470   C     0.19268   0.68724   0.20919   0.00000  Uiso   1.00
C471   C     0.17915   0.95737   0.16660   0.00000  Uiso   1.00
C472   C     0.17804   0.70931   0.16791   0.00000  Uiso   1.00
C473   C     0.14664   0.86624   0.02107   0.00000  Uiso   1.00
C474   C     0.18573   0.80013   0.31222   0.00000  Uiso   1.00
C475   C     0.14693   0.86634   0.30652   0.00000  Uiso   1.00
C476   C     0.18590   0.80014   0.02681   0.00000  Uiso   1.00
C477   C     0.32934   0.80123   0.07294   0.00000  Uiso   1.00
C478   C     0.31532   0.84540   0.05377   0.00000  Uiso   1.00
C479   C     0.32045   0.84862   0.00293   0.00000  Uiso   1.00
C480   C     0.17015   0.91335   0.16670   0.00000  Uiso   1.00
C481   C     0.00355   0.91066   0.19115   0.00000  Uiso   1.00
C482   C     0.03807   0.94269   0.21931   0.00000  Uiso   1.00
C483   C     0.04104   0.98355   0.19261   0.00000  Uiso   1.00
C484   C     0.23118   0.94913   0.07894   0.00000  Uiso   1.00
C485   C     0.26489   0.98652   0.06770   0.00000  Uiso   1.00
C486   C     0.31882   0.97242   0.05831   0.00000  Uiso   1.00
C487   C     0.26323   0.72057   0.24898   0.00000  Uiso   1.00
C488   C     0.29496   0.71484   0.29637   0.00000  Uiso   1.00
C489   C     0.01650   0.73378   0.29864   0.00000  Uiso   1.00
C490   C     0.06718   0.83104   0.15482   0.00000  Uiso   1.00
C491   C     0.26615   0.83406   0.17825   0.00000  Uiso   1.00
C492   C     0.01224   0.82475   0.14948   0.00000  Uiso   1.00
C493   C     0.32048   0.84108   0.18216   0.00000  Uiso   1.00
C494   C     0.17322   0.68890   0.12598   0.00000  Uiso   1.00
C495   C     0.18953   0.97772   0.20855   0.00000  Uiso   1.00
C496   C     0.17831   0.97977   0.12509   0.00000  Uiso   1.00
H497   H     0.16660   0.70568   0.09358   0.00000  Uiso   1.00
H498   H     0.00825   0.86917   0.07216   0.00000  Uiso   1.00
H499   H     0.02817   0.84239   0.33089   0.00000  Uiso   1.00
H500   H     0.30968   0.88050   0.32328   0.00000  Uiso   1.00
H501   H     0.29385   0.82593   0.31641   0.00000  Uiso   1.00
H502   H     0.29526   0.92073   0.18839   0.00000  Uiso   1.00
H503   H     0.01536   0.91010   0.15622   0.00000  Uiso   1.00
H504   H     0.02202   0.94869   0.25165   0.00000  Uiso   1.00
H505   H     0.07836   0.93025   0.22800   0.00000  Uiso   1.00
H506   H     0.00110   0.99582   0.18109   0.00000  Uiso   1.00
H507   H     0.06104   0.97855   0.16218   0.00000  Uiso   1.00
H508   H     0.19624   0.96057   0.24071   0.00000  Uiso   1.00
H509   H     0.06396   0.67362   0.21464   0.00000  Uiso   1.00
H510   H     0.22896   0.92671   0.05035   0.00000  Uiso   1.00
H511   H     0.25069   0.93235   0.10993   0.00000  Uiso   1.00
H512   H     0.24463   0.67004   0.03720   0.00000  Uiso   1.00
H513   H     0.27049   0.67500   0.09695   0.00000  Uiso   1.00
H514   H     0.00574   0.95455   0.08800   0.00000  Uiso   1.00
H515   H     0.00988   0.66678   0.05239   0.00000  Uiso   1.00
H516   H     0.31490   0.95250   0.02749   0.00000  Uiso   1.00
H517   H     0.26274   0.75418   0.23950   0.00000  Uiso   1.00
H518   H     0.28401   0.70360   0.22410   0.00000  Uiso   1.00
H519   H     0.13034   0.89246   0.03681   0.00000  Uiso   1.00
H520   H     0.27439   0.72976   0.32248   0.00000  Uiso   1.00
H521   H     0.29843   0.68095   0.30428   0.00000  Uiso   1.00
H522   H     0.03881   0.71791   0.27440   0.00000  Uiso   1.00
H523   H     0.03794   0.72992   0.00047   0.00000  Uiso   1.00
H524   H     0.01411   0.76758   0.29000   0.00000  Uiso   1.00
H525   H     0.20093   0.77367   0.29642   0.00000  Uiso   1.00
H526   H     0.13124   0.89279   0.28623   0.00000  Uiso   1.00
H527   H     0.20160   0.77365   0.04716   0.00000  Uiso   1.00
H528   H     0.30321   0.77884   0.05215   0.00000  Uiso   1.00
H529   H     0.03618   0.79195   0.06788   0.00000  Uiso   1.00
H530   H     0.27445   0.85291   0.05839   0.00000  Uiso   1.00
N531   N     0.16665   0.83332   0.28573   0.00000  Uiso   1.00
N532   N     0.16668   0.83334   0.04760   0.00000  Uiso   1.00
O533   O     0.16666   0.77225   0.20487   0.00000  Uiso   1.00
O534   O     0.00958   0.87098   0.21286   0.00000  Uiso   1.00
O535   O     0.17909   0.96107   0.08313   0.00000  Uiso   1.00
O536   O     0.21095   0.70658   0.25002   0.00000  Uiso   1.00
O537   O     0.16667   0.89442   0.12846   0.00000  Uiso   1.00
O538   O     0.16666   0.77226   0.12843   0.00000  Uiso   1.00
O539   O     0.16667   0.89441   0.20490   0.00000  Uiso   1.00
O540   O     0.09058   0.83333   0.19595   0.00000  Uiso   1.00
O541   O     0.24275   0.83334   0.13739   0.00000  Uiso   1.00
O542   O     0.09058   0.83334   0.11950   0.00000  Uiso   1.00
O543   O     0.24275   0.83333   0.21383   0.00000  Uiso   1.00
O544   O     0.32086   0.79506   0.11909   0.00000  Uiso   1.00
Zn545  Zn    0.16667   0.83333   0.21771   0.00000  Uiso   1.00
Zn546  Zn    0.16667   0.83334   0.11563   0.00000  Uiso   1.00
C547   C     0.50319   0.75332   0.16723   0.00000  Uiso   1.00
C548   C     0.52601   0.68724   0.20919   0.00000  Uiso   1.00
C549   C     0.51249   0.95737   0.16660   0.00000  Uiso   1.00
C550   C     0.51137   0.70931   0.16791   0.00000  Uiso   1.00
C551   C     0.47997   0.86624   0.02107   0.00000  Uiso   1.00
C552   C     0.51906   0.80013   0.31222   0.00000  Uiso   1.00
C553   C     0.48026   0.86634   0.30652   0.00000  Uiso   1.00
C554   C     0.51924   0.80014   0.02681   0.00000  Uiso   1.00
C555   C     0.66268   0.80123   0.07294   0.00000  Uiso   1.00
C556   C     0.64865   0.84540   0.05377   0.00000  Uiso   1.00
C557   C     0.65378   0.84862   0.00293   0.00000  Uiso   1.00
C558   C     0.50349   0.91335   0.16670   0.00000  Uiso   1.00
C559   C     0.33689   0.91066   0.19115   0.00000  Uiso   1.00
C560   C     0.37140   0.94269   0.21931   0.00000  Uiso   1.00
C561   C     0.37437   0.98355   0.19261   0.00000  Uiso   1.00
C562   C     0.56451   0.94913   0.07894   0.00000  Uiso   1.00
C563   C     0.59822   0.98652   0.06770   0.00000  Uiso   1.00
C564   C     0.65215   0.97242   0.05831   0.00000  Uiso   1.00
C565   C     0.59656   0.72057   0.24898   0.00000  Uiso   1.00
C566   C     0.62830   0.71484   0.29637   0.00000  Uiso   1.00
C567   C     0.34983   0.73378   0.29864   0.00000  Uiso   1.00
C568   C     0.40051   0.83104   0.15482   0.00000  Uiso   1.00
C569   C     0.59948   0.83406   0.17825   0.00000  Uiso   1.00
C570   C     0.34558   0.82475   0.14948   0.00000  Uiso   1.00
C571   C     0.65381   0.84108   0.18216   0.00000  Uiso   1.00
C572   C     0.50656   0.68890   0.12598   0.00000  Uiso   1.00
C573   C     0.52287   0.97772   0.20855   0.00000  Uiso   1.00
C574   C     0.51165   0.97977   0.12509   0.00000  Uiso   1.00
H575   H     0.49993   0.70568   0.09358   0.00000  Uiso   1.00
H576   H     0.34158   0.86917   0.07216   0.00000  Uiso   1.00
H577   H     0.36150   0.84239   0.33089   0.00000  Uiso   1.00
H578   H     0.64302   0.88050   0.32328   0.00000  Uiso   1.00
H579   H     0.62718   0.82593   0.31641   0.00000  Uiso   1.00
H580   H     0.62860   0.92073   0.18839   0.00000  Uiso   1.00
H581   H     0.34870   0.91010   0.15622   0.00000  Uiso   1.00
H582   H     0.35535   0.94869   0.25165   0.00000  Uiso   1.00
H583   H     0.41169   0.93025   0.22800   0.00000  Uiso   1.00
H584   H     0.33443   0.99582   0.18109   0.00000  Uiso   1.00
H585   H     0.39438   0.97855   0.16218   0.00000  Uiso   1.00
H586   H     0.52957   0.96057   0.24071   0.00000  Uiso   1.00
H587   H     0.39729   0.67362   0.21464   0.00000  Uiso   1.00
H588   H     0.56230   0.92671   0.05035   0.00000  Uiso   1.00
H589   H     0.58403   0.93235   0.10993   0.00000  Uiso   1.00
H590   H     0.57797   0.67004   0.03720   0.00000  Uiso   1.00
H591   H     0.60383   0.67500   0.09695   0.00000  Uiso   1.00
H592   H     0.33907   0.95455   0.08800   0.00000  Uiso   1.00
H593   H     0.34322   0.66678   0.05239   0.00000  Uiso   1.00
H594   H     0.64823   0.95250   0.02749   0.00000  Uiso   1.00
H595   H     0.59607   0.75418   0.23950   0.00000  Uiso   1.00
H596   H     0.61734   0.70360   0.22410   0.00000  Uiso   1.00
H597   H     0.46367   0.89246   0.03681   0.00000  Uiso   1.00
H598   H     0.60772   0.72976   0.32248   0.00000  Uiso   1.00
H599   H     0.63177   0.68095   0.30428   0.00000  Uiso   1.00
H600   H     0.37214   0.71791   0.27440   0.00000  Uiso   1.00
H601   H     0.37128   0.72992   0.00047   0.00000  Uiso   1.00
H602   H     0.34745   0.76758   0.29000   0.00000  Uiso   1.00
H603   H     0.53426   0.77367   0.29642   0.00000  Uiso   1.00
H604   H     0.46458   0.89279   0.28623   0.00000  Uiso   1.00
H605   H     0.53494   0.77365   0.04716   0.00000  Uiso   1.00
H606   H     0.63655   0.77884   0.05215   0.00000  Uiso   1.00
H607   H     0.36951   0.79195   0.06788   0.00000  Uiso   1.00
H608   H     0.60778   0.85291   0.05839   0.00000  Uiso   1.00
N609   N     0.49999   0.83332   0.28573   0.00000  Uiso   1.00
N610   N     0.50001   0.83334   0.04760   0.00000  Uiso   1.00
O611   O     0.50000   0.77225   0.20487   0.00000  Uiso   1.00
O612   O     0.34292   0.87098   0.21286   0.00000  Uiso   1.00
O613   O     0.51242   0.96107   0.08313   0.00000  Uiso   1.00
O614   O     0.54428   0.70658   0.25002   0.00000  Uiso   1.00
O615   O     0.50000   0.89442   0.12846   0.00000  Uiso   1.00
O616   O     0.50000   0.77226   0.12843   0.00000  Uiso   1.00
O617   O     0.50000   0.89441   0.20490   0.00000  Uiso   1.00
O618   O     0.42392   0.83333   0.19595   0.00000  Uiso   1.00
O619   O     0.57608   0.83334   0.13739   0.00000  Uiso   1.00
O620   O     0.42392   0.83334   0.11950   0.00000  Uiso   1.00
O621   O     0.57608   0.83333   0.21383   0.00000  Uiso   1.00
O622   O     0.65419   0.79506   0.11909   0.00000  Uiso   1.00
Zn623  Zn    0.50000   0.83333   0.21771   0.00000  Uiso   1.00
Zn624  Zn    0.50000   0.83334   0.11563   0.00000  Uiso   1.00
C625   C     0.83652   0.75332   0.16723   0.00000  Uiso   1.00
C626   C     0.85935   0.68724   0.20919   0.00000  Uiso   1.00
C627   C     0.84582   0.95737   0.16660   0.00000  Uiso   1.00
C628   C     0.84470   0.70931   0.16791   0.00000  Uiso   1.00
C629   C     0.81330   0.86624   0.02107   0.00000  Uiso   1.00
C630   C     0.85239   0.80013   0.31222   0.00000  Uiso   1.00
C631   C     0.81360   0.86634   0.30652   0.00000  Uiso   1.00
C632   C     0.85257   0.80014   0.02681   0.00000  Uiso   1.00
C633   C     0.99601   0.80123   0.07294   0.00000  Uiso   1.00
C634   C     0.98198   0.84540   0.05377   0.00000  Uiso   1.00
C635   C     0.98712   0.84862   0.00293   0.00000  Uiso   1.00
C636   C     0.83682   0.91335   0.16670   0.00000  Uiso   1.00
C637   C     0.67022   0.91066   0.19115   0.00000  Uiso   1.00
C638   C     0.70473   0.94269   0.21931   0.00000  Uiso   1.00
C639   C     0.70770   0.98355   0.19261   0.00000  Uiso   1.00
C640   C     0.89784   0.94913   0.07894   0.00000  Uiso   1.00
C641   C     0.93155   0.98652   0.06770   0.00000  Uiso   1.00
C642   C     0.98548   0.97242   0.05831   0.00000  Uiso   1.00
C643   C     0.92989   0.72057   0.24898   0.00000  Uiso   1.00
C644   C     0.96163   0.71484   0.29637   0.00000  Uiso   1.00
C645   C     0.68316   0.73378   0.29864   0.00000  Uiso   1.00
C646   C     0.73385   0.83104   0.15482   0.00000  Uiso   1.00
C647   C     0.93281   0.83406   0.17825   0.00000  Uiso   1.00
C648   C     0.67891   0.82475   0.14948   0.00000  Uiso   1.00
C649   C     0.98714   0.84108   0.18216   0.00000  Uiso   1.00
C650   C     0.83989   0.68890   0.12598   0.00000  Uiso   1.00
C651   C     0.85620   0.97772   0.20855   0.00000  Uiso   1.00
C652   C     0.84498   0.97977   0.12509   0.00000  Uiso   1.00
H653   H     0.83327   0.70568   0.09358   0.00000  Uiso   1.00
H654   H     0.67492   0.86917   0.07216   0.00000  Uiso   1.00
H655   H     0.69483   0.84239   0.33089   0.00000  Uiso   1.00
H656   H     0.97635   0.88050   0.32328   0.00000  Uiso   1.00
H657   H     0.96052   0.82593   0.31641   0.00000  Uiso   1.00
H658   H     0.96193   0.92073   0.18839   0.00000  Uiso   1.00
H659   H     0.68203   0.91010   0.15622   0.00000  Uiso   1.00
H660   H     0.68869   0.94869   0.25165   0.00000  Uiso   1.00
H661   H     0.74503   0.93025   0.22800   0.00000  Uiso   1.00
H662   H     0.66777   0.99582   0.18109   0.00000  Uiso   1.00
H663   H     0.72771   0.97855   0.16218   0.00000  Uiso   1.00
H664   H     0.86291   0.96057   0.24071   0.00000  Uiso   1.00
H665   H     0.73062   0.67362   0.21464   0.00000  Uiso   1.00
H666   H     0.89563   0.92671   0.05035   0.00000  Uiso   1.00
H667   H     0.91736   0.93235   0.10993   0.00000  Uiso   1.00
H668   H     0.91130   0.67004   0.03720   0.00000  Uiso   1.00
H669   H     0.93716   0.67500   0.09695   0.00000  Uiso   1.00
H670   H     0.67241   0.95455   0.08800   0.00000  Uiso   1.00
H671   H     0.67655   0.66678   0.05239   0.00000  Uiso   1.00
H672   H     0.98157   0.95250   0.02749   0.00000  Uiso   1.00
H673   H     0.92940   0.75418   0.23950   0.00000  Uiso   1.00
H674   H     0.95068   0.70360   0.22410   0.00000  Uiso   1.00
H675   H     0.79700   0.89246   0.03681   0.00000  Uiso   1.00
H676   H     0.94105   0.72976   0.32248   0.00000  Uiso   1.00
H677   H     0.96510   0.68095   0.30428   0.00000  Uiso   1.00
H678   H     0.70548   0.71791   0.27440   0.00000  Uiso   1.00
H679   H     0.70461   0.72992   0.00047   0.00000  Uiso   1.00
H680   H     0.68078   0.76758   0.29000   0.00000  Uiso   1.00
H681   H     0.86760   0.77367   0.29642   0.00000  Uiso   1.00
H682   H     0.79791   0.89279   0.28623   0.00000  Uiso   1.00
H683   H     0.86827   0.77365   0.04716   0.00000  Uiso   1.00
H684   H     0.96988   0.77884   0.05215   0.00000  Uiso   1.00
H685   H     0.70285   0.79195   0.06788   0.00000  Uiso   1.00
H686   H     0.94111   0.85291   0.05839   0.00000  Uiso   1.00
N687   N     0.83332   0.83332   0.28573   0.00000  Uiso   1.00
N688   N     0.83335   0.83334   0.04760   0.00000  Uiso   1.00
O689   O     0.83333   0.77225   0.20487   0.00000  Uiso   1.00
O690   O     0.67625   0.87098   0.21286   0.00000  Uiso   1.00
O691   O     0.84576   0.96107   0.08313   0.00000  Uiso   1.00
O692   O     0.87762   0.70658   0.25002   0.00000  Uiso   1.00
O693   O     0.83334   0.89442   0.12846   0.00000  Uiso   1.00
O694   O     0.83333   0.77226   0.12843   0.00000  Uiso   1.00
O695   O     0.83334   0.89441   0.20490   0.00000  Uiso   1.00
O696   O     0.75725   0.83333   0.19595   0.00000  Uiso   1.00
O697   O     0.90942   0.83334   0.13739   0.00000  Uiso   1.00
O698   O     0.75725   0.83334   0.11950   0.00000  Uiso   1.00
O699   O     0.90942   0.83333   0.21383   0.00000  Uiso   1.00
O700   O     0.98752   0.79506   0.11909   0.00000  Uiso   1.00
Zn701  Zn    0.83333   0.83333   0.21771   0.00000  Uiso   1.00
Zn702  Zn    0.83333   0.83334   0.11563   0.00000  Uiso   1.00
C703   C     0.16985   0.08665   0.50056   0.00000  Uiso   1.00
C704   C     0.19268   0.02058   0.54252   0.00000  Uiso   1.00
C705   C     0.17915   0.29070   0.49993   0.00000  Uiso   1.00
C706   C     0.17804   0.04264   0.50124   0.00000  Uiso   1.00
C707   C     0.14664   0.19957   0.35440   0.00000  Uiso   1.00
C708   C     0.18573   0.13347   0.64555   0.00000  Uiso   1.00
C709   C     0.14693   0.19967   0.63985   0.00000  Uiso   1.00
C710   C     0.18590   0.13347   0.36014   0.00000  Uiso   1.00
C711   C     0.32934   0.13456   0.40627   0.00000  Uiso   1.00
C712   C     0.31532   0.17873   0.38710   0.00000  Uiso   1.00
C713   C     0.32045   0.18196   0.33627   0.00000  Uiso   1.00
C714   C     0.17015   0.24668   0.50003   0.00000  Uiso   1.00
C715   C     0.00355   0.24399   0.52449   0.00000  Uiso   1.00
C716   C     0.03807   0.27602   0.55264   0.00000  Uiso   1.00
C717   C     0.04104   0.31688   0.52595   0.00000  Uiso   1.00
C718   C     0.23118   0.28247   0.41227   0.00000  Uiso   1.00
C719   C     0.26489   0.31985   0.40103   0.00000  Uiso   1.00
C720   C     0.31882   0.30575   0.39164   0.00000  Uiso   1.00
C721   C     0.26323   0.05390   0.58231   0.00000  Uiso   1.00
C722   C     0.29496   0.04817   0.62970   0.00000  Uiso   1.00
C723   C     0.01650   0.06712   0.63198   0.00000  Uiso   1.00
C724   C     0.06718   0.16437   0.48815   0.00000  Uiso   1.00
C725   C     0.26615   0.16739   0.51158   0.00000  Uiso   1.00
C726   C     0.01224   0.15808   0.48281   0.00000  Uiso   1.00
C727   C     0.32048   0.17441   0.51550   0.00000  Uiso   1.00
C728   C     0.17322   0.02223   0.45931   0.00000  Uiso   1.00
C729   C     0.18953   0.31105   0.54188   0.00000  Uiso   1.00
C730   C     0.17831   0.31310   0.45843   0.00000  Uiso   1.00
H731   H     0.16660   0.03902   0.42692   0.00000  Uiso   1.00
H732   H     0.00825   0.20250   0.40550   0.00000  Uiso   1.00
H733   H     0.02817   0.17572   0.66423   0.00000  Uiso   1.00
H734   H     0.30968   0.21383   0.65661   0.00000  Uiso   1.00
H735   H     0.29385   0.15926   0.64974   0.00000  Uiso   1.00
H736   H     0.29526   0.25406   0.52172   0.00000  Uiso   1.00
H737   H     0.01536   0.24343   0.48955   0.00000  Uiso   1.00
H738   H     0.02202   0.28202   0.58498   0.00000  Uiso   1.00
H739   H     0.07836   0.26358   0.56133   0.00000  Uiso   1.00
H740   H     0.00110   0.32916   0.51442   0.00000  Uiso   1.00
H741   H     0.06104   0.31188   0.49551   0.00000  Uiso   1.00
H742   H     0.19624   0.29390   0.57404   0.00000  Uiso   1.00
H743   H     0.06396   0.00695   0.54798   0.00000  Uiso   1.00
H744   H     0.22896   0.26005   0.38368   0.00000  Uiso   1.00
H745   H     0.25069   0.26568   0.44327   0.00000  Uiso   1.00
H746   H     0.24463   0.00338   0.37053   0.00000  Uiso   1.00
H747   H     0.27049   0.00834   0.43029   0.00000  Uiso   1.00
H748   H     0.00574   0.28789   0.42134   0.00000  Uiso   1.00
H749   H     0.00988   0.00011   0.38573   0.00000  Uiso   1.00
H750   H     0.31490   0.28584   0.36082   0.00000  Uiso   1.00
H751   H     0.26274   0.08751   0.57283   0.00000  Uiso   1.00
H752   H     0.28401   0.03693   0.55743   0.00000  Uiso   1.00
H753   H     0.13034   0.22579   0.37014   0.00000  Uiso   1.00
H754   H     0.27439   0.06309   0.65581   0.00000  Uiso   1.00
H755   H     0.29843   0.01428   0.63761   0.00000  Uiso   1.00
H756   H     0.03881   0.05124   0.60773   0.00000  Uiso   1.00
H757   H     0.03794   0.06326   0.33381   0.00000  Uiso   1.00
H758   H     0.01411   0.10091   0.62333   0.00000  Uiso   1.00
H759   H     0.20093   0.10701   0.62975   0.00000  Uiso   1.00
H760   H     0.13124   0.22613   0.61957   0.00000  Uiso   1.00
H761   H     0.20160   0.10698   0.38050   0.00000  Uiso   1.00
H762   H     0.30321   0.11218   0.38549   0.00000  Uiso   1.00
H763   H     0.03618   0.12528   0.40121   0.00000  Uiso   1.00
H764   H     0.27445   0.18624   0.39173   0.00000  Uiso   1.00
N765   N     0.16665   0.16666   0.61907   0.00000  Uiso   1.00
N766   N     0.16668   0.16668   0.38093   0.00000  Uiso   1.00
O767   O     0.16666   0.10558   0.53821   0.00000  Uiso   1.00
O768   O     0.00958   0.20431   0.54620   0.00000  Uiso   1.00
O769   O     0.17909   0.29440   0.41647   0.00000  Uiso   1.00
O770   O     0.21095   0.03992   0.58335   0.00000  Uiso   1.00
O771   O     0.16667   0.22775   0.46179   0.00000  Uiso   1.00
O772   O     0.16666   0.10559   0.46176   0.00000  Uiso   1.00
O773   O     0.16667   0.22774   0.53824   0.00000  Uiso   1.00
O774   O     0.09058   0.16666   0.52928   0.00000  Uiso   1.00
O775   O     0.24275   0.16667   0.47072   0.00000  Uiso   1.00
O776   O     0.09058   0.16667   0.45284   0.00000  Uiso   1.00
O777   O     0.24275   0.16666   0.54716   0.00000  Uiso   1.00
O778   O     0.32086   0.12839   0.45242   0.00000  Uiso   1.00
Zn779  Zn    0.16667   0.16666   0.55104   0.00000  Uiso   1.00
Zn780  Zn    0.16667   0.16667   0.44896   0.00000  Uiso   1.00
C781   C     0.50319   0.08665   0.50056   0.00000  Uiso   1.00
C782   C     0.52601   0.02058   0.54252   0.00000  Uiso   1.00
C783   C     0.51249   0.29070   0.49993   0.00000  Uiso   1.00
C784   C     0.51137   0.04264   0.50124   0.00000  Uiso   1.00
C785   C     0.47997   0.19957   0.35440   0.00000  Uiso   1.00
C786   C     0.51906   0.13347   0.64555   0.00000  Uiso   1.00
C787   C     0.48026   0.19967   0.63985   0.00000  Uiso   1.00
C788   C     0.51924   0.13347   0.36014   0.00000  Uiso   1.00
C789   C     0.66268   0.13456   0.40627   0.00000  Uiso   1.00
C790   C     0.64865   0.17873   0.38710   0.00000  Uiso   1.00
C791   C     0.65378   0.18196   0.33627   0.00000  Uiso   1.00
C792   C     0.50349   0.24668   0.50003   0.00000  Uiso   1.00
C793   C     0.33689   0.24399   0.52449   0.00000  Uiso   1.00
C794   C     0.37140   0.27602   0.55264   0.00000  Uiso   1.00
C795   C     0.37437   0.31688   0.52595   0.00000  Uiso   1.00
C796   C     0.56451   0.28247   0.41227   0.00000  Uiso   1.00
C797   C     0.59822   0.31985   0.40103   0.00000  Uiso   1.00
C798   C     0.65215   0.30575   0.39164   0.00000  Uiso   1.00
C799   C     0.59656   0.05390   0.58231   0.00000  Uiso   1.00
C800   C     0.62830   0.04817   0.62970   0.00000  Uiso   1.00
C801   C     0.34983   0.06712   0.63198   0.00000  Uiso   1.00
C802   C     0.40051   0.16437   0.48815   0.00000  Uiso   1.00
C803   C     0.59948   0.16739   0.51158   0.00000  Uiso   1.00
C804   C     0.34558   0.15808   0.48281   0.00000  Uiso   1.00
C805   C     0.65381   0.17441   0.51550   0.00000  Uiso   1.00
C806   C     0.50656   0.02223   0.45931   0.00000  Uiso   1.00
C807   C     0.52287   0.31105   0.54188   0.00000  Uiso   1.00
C808   C     0.51165   0.31310   0.45843   0.00000  Uiso   1.00
H809   H     0.49993   0.03902   0.42692   0.00000  Uiso   1.00
H810   H     0.34158   0.20250   0.40550   0.00000  Uiso   1.00
H811   H     0.36150   0.17572   0.66423   0.00000  Uiso   1.00
H812   H     0.64302   0.21383   0.65661   0.00000  Uiso   1.00
H813   H     0.62718   0.15926   0.64974   0.00000  Uiso   1.00
H814   H     0.62860   0.25406   0.52172   0.00000  Uiso   1.00
H815   H     0.34870   0.24343   0.48955   0.00000  Uiso   1.00
H816   H     0.35535   0.28202   0.58498   0.00000  Uiso   1.00
H817   H     0.41169   0.26358   0.56133   0.00000  Uiso   1.00
H818   H     0.33443   0.32916   0.51442   0.00000  Uiso   1.00
H819   H     0.39438   0.31188   0.49551   0.00000  Uiso   1.00
H820   H     0.52957   0.29390   0.57404   0.00000  Uiso   1.00
H821   H     0.39729   0.00695   0.54798   0.00000  Uiso   1.00
H822   H     0.56230   0.26005   0.38368   0.00000  Uiso   1.00
H823   H     0.58403   0.26568   0.44327   0.00000  Uiso   1.00
H824   H     0.57797   0.00338   0.37053   0.00000  Uiso   1.00
H825   H     0.60383   0.00834   0.43029   0.00000  Uiso   1.00
H826   H     0.33907   0.28789   0.42134   0.00000  Uiso   1.00
H827   H     0.34322   0.00011   0.38573   0.00000  Uiso   1.00
H828   H     0.64823   0.28584   0.36082   0.00000  Uiso   1.00
H829   H     0.59607   0.08751   0.57283   0.00000  Uiso   1.00
H830   H     0.61734   0.03693   0.55743   0.00000  Uiso   1.00
H831   H     0.46367   0.22579   0.37014   0.00000  Uiso   1.00
H832   H     0.60772   0.06309   0.65581   0.00000  Uiso   1.00
H833   H     0.63177   0.01428   0.63761   0.00000  Uiso   1.00
H834   H     0.37214   0.05124   0.60773   0.00000  Uiso   1.00
H835   H     0.37128   0.06326   0.33381   0.00000  Uiso   1.00
H836   H     0.34745   0.10091   0.62333   0.00000  Uiso   1.00
H837   H     0.53426   0.10701   0.62975   0.00000  Uiso   1.00
H838   H     0.46458   0.22613   0.61957   0.00000  Uiso   1.00
H839   H     0.53494   0.10698   0.38050   0.00000  Uiso   1.00
H840   H     0.63655   0.11218   0.38549   0.00000  Uiso   1.00
H841   H     0.36951   0.12528   0.40121   0.00000  Uiso   1.00
H842   H     0.60778   0.18624   0.39173   0.00000  Uiso   1.00
N843   N     0.49999   0.16666   0.61907   0.00000  Uiso   1.00
N844   N     0.50001   0.16668   0.38093   0.00000  Uiso   1.00
O845   O     0.50000   0.10558   0.53821   0.00000  Uiso   1.00
O846   O     0.34292   0.20431   0.54620   0.00000  Uiso   1.00
O847   O     0.51242   0.29440   0.41647   0.00000  Uiso   1.00
O848   O     0.54428   0.03992   0.58335   0.00000  Uiso   1.00
O849   O     0.50000   0.22775   0.46179   0.00000  Uiso   1.00
O850   O     0.50000   0.10559   0.46176   0.00000  Uiso   1.00
O851   O     0.50000   0.22774   0.53824   0.00000  Uiso   1.00
O852   O     0.42392   0.16666   0.52928   0.00000  Uiso   1.00
O853   O     0.57608   0.16667   0.47072   0.00000  Uiso   1.00
O854   O     0.42392   0.16667   0.45284   0.00000  Uiso   1.00
O855   O     0.57608   0.16666   0.54716   0.00000  Uiso   1.00
O856   O     0.65419   0.12839   0.45242   0.00000  Uiso   1.00
Zn857  Zn    0.50000   0.16666   0.55104   0.00000  Uiso   1.00
Zn858  Zn    0.50000   0.16667   0.44896   0.00000  Uiso   1.00
C859   C     0.83652   0.08665   0.50056   0.00000  Uiso   1.00
C860   C     0.85935   0.02058   0.54252   0.00000  Uiso   1.00
C861   C     0.84582   0.29070   0.49993   0.00000  Uiso   1.00
C862   C     0.84470   0.04264   0.50124   0.00000  Uiso   1.00
C863   C     0.81330   0.19957   0.35440   0.00000  Uiso   1.00
C864   C     0.85239   0.13347   0.64555   0.00000  Uiso   1.00
C865   C     0.81360   0.19967   0.63985   0.00000  Uiso   1.00
C866   C     0.85257   0.13347   0.36014   0.00000  Uiso   1.00
C867   C     0.99601   0.13456   0.40627   0.00000  Uiso   1.00
C868   C     0.98198   0.17873   0.38710   0.00000  Uiso   1.00
C869   C     0.98712   0.18196   0.33627   0.00000  Uiso   1.00
C870   C     0.83682   0.24668   0.50003   0.00000  Uiso   1.00
C871   C     0.67022   0.24399   0.52449   0.00000  Uiso   1.00
C872   C     0.70473   0.27602   0.55264   0.00000  Uiso   1.00
C873   C     0.70770   0.31688   0.52595   0.00000  Uiso   1.00
C874   C     0.89784   0.28247   0.41227   0.00000  Uiso   1.00
C875   C     0.93155   0.31985   0.40103   0.00000  Uiso   1.00
C876   C     0.98548   0.30575   0.39164   0.00000  Uiso   1.00
C877   C     0.92989   0.05390   0.58231   0.00000  Uiso   1.00
C878   C     0.96163   0.04817   0.62970   0.00000  Uiso   1.00
C879   C     0.68316   0.06712   0.63198   0.00000  Uiso   1.00
C880   C     0.73385   0.16437   0.48815   0.00000  Uiso   1.00
C881   C     0.93281   0.16739   0.51158   0.00000  Uiso   1.00
C882   C     0.67891   0.15808   0.48281   0.00000  Uiso   1.00
C883   C     0.98714   0.17441   0.51550   0.00000  Uiso   1.00
C884   C     0.83989   0.02223   0.45931   0.00000  Uiso   1.00
C885   C     0.85620   0.31105   0.54188   0.00000  Uiso   1.00
C886   C     0.84498   0.31310   0.45843   0.00000  Uiso   1.00
H887   H     0.83327   0.03902   0.42692   0.00000  Uiso   1.00
H888   H     0.67492   0.20250   0.40550   0.00000  Uiso   1.00
H889   H     0.69483   0.17572   0.66423   0.00000  Uiso   1.00
H890   H     0.97635   0.21383   0.65661   0.00000  Uiso   1.00
H891   H     0.96052   0.15926   0.64974   0.00000  Uiso   1.00
H892   H     0.96193   0.25406   0.52172   0.00000  Uiso   1.00
H893   H     0.68203   0.24343   0.48955   0.00000  Uiso   1.00
H894   H     0.68869   0.28202   0.58498   0.00000  Uiso   1.00
H895   H     0.74503   0.26358   0.56133   0.00000  Uiso   1.00
H896   H     0.66777   0.32916   0.51442   0.00000  Uiso   1.00
H897   H     0.72771   0.31188   0.49551   0.00000  Uiso   1.00
H898   H     0.86291   0.29390   0.57404   0.00000  Uiso   1.00
H899   H     0.73062   0.00695   0.54798   0.00000  Uiso   1.00
H900   H     0.89563   0.26005   0.38368   0.00000  Uiso   1.00
H901   H     0.91736   0.26568   0.44327   0.00000  Uiso   1.00
H902   H     0.91130   0.00338   0.37053   0.00000  Uiso   1.00
H903   H     0.93716   0.00834   0.43029   0.00000  Uiso   1.00
H904   H     0.67241   0.28789   0.42134   0.00000  Uiso   1.00
H905   H     0.67655   0.00011   0.38573   0.00000  Uiso   1.00
H906   H     0.98157   0.28584   0.36082   0.00000  Uiso   1.00
H907   H     0.92940   0.08751   0.57283   0.00000  Uiso   1.00
H908   H     0.95068   0.03693   0.55743   0.00000  Uiso   1.00
H909   H     0.79700   0.22579   0.37014   0.00000  Uiso   1.00
H910   H     0.94105   0.06309   0.65581   0.00000  Uiso   1.00
H911   H     0.96510   0.01428   0.63761   0.00000  Uiso   1.00
H912   H     0.70548   0.05124   0.60773   0.00000  Uiso   1.00
H913   H     0.70461   0.06326   0.33381   0.00000  Uiso   1.00
H914   H     0.68078   0.10091   0.62333   0.00000  Uiso   1.00
H915   H     0.86760   0.10701   0.62975   0.00000  Uiso   1.00
H916   H     0.79791   0.22613   0.61957   0.00000  Uiso   1.00
H917   H     0.86827   0.10698   0.38050   0.00000  Uiso   1.00
H918   H     0.96988   0.11218   0.38549   0.00000  Uiso   1.00
H919   H     0.70285   0.12528   0.40121   0.00000  Uiso   1.00
H920   H     0.94111   0.18624   0.39173   0.00000  Uiso   1.00
N921   N     0.83332   0.16666   0.61907   0.00000  Uiso   1.00
N922   N     0.83335   0.16668   0.38093   0.00000  Uiso   1.00
O923   O     0.83333   0.10558   0.53821   0.00000  Uiso   1.00
O924   O     0.67625   0.20431   0.54620   0.00000  Uiso   1.00
O925   O     0.84576   0.29440   0.41647   0.00000  Uiso   1.00
O926   O     0.87762   0.03992   0.58335   0.00000  Uiso   1.00
O927   O     0.83334   0.22775   0.46179   0.00000  Uiso   1.00
O928   O     0.83333   0.10559   0.46176   0.00000  Uiso   1.00
O929   O     0.83334   0.22774   0.53824   0.00000  Uiso   1.00
O930   O     0.75725   0.16666   0.52928   0.00000  Uiso   1.00
O931   O     0.90942   0.16667   0.47072   0.00000  Uiso   1.00
O932   O     0.75725   0.16667   0.45284   0.00000  Uiso   1.00
O933   O     0.90942   0.16666   0.54716   0.00000  Uiso   1.00
O934   O     0.98752   0.12839   0.45242   0.00000  Uiso   1.00
Zn935  Zn    0.83333   0.16666   0.55104   0.00000  Uiso   1.00
Zn936  Zn    0.83333   0.16667   0.44896   0.00000  Uiso   1.00
C937   C     0.16985   0.41999   0.50056   0.00000  Uiso   1.00
C938   C     0.19268   0.35391   0.54252   0.00000  Uiso   1.00
C939   C     0.17915   0.62403   0.49993   0.00000  Uiso   1.00
C940   C     0.17804   0.37598   0.50124   0.00000  Uiso   1.00
C941   C     0.14664   0.53290   0.35440   0.00000  Uiso   1.00
C942   C     0.18573   0.46680   0.64555   0.00000  Uiso   1.00
C943   C     0.14693   0.53301   0.63985   0.00000  Uiso   1.00
C944   C     0.18590   0.46681   0.36014   0.00000  Uiso   1.00
C945   C     0.32934   0.46789   0.40627   0.00000  Uiso   1.00
C946   C     0.31532   0.51207   0.38710   0.00000  Uiso   1.00
C947   C     0.32045   0.51529   0.33627   0.00000  Uiso   1.00
C948   C     0.17015   0.58002   0.50003   0.00000  Uiso   1.00
C949   C     0.00355   0.57733   0.52449   0.00000  Uiso   1.00
C950   C     0.03807   0.60935   0.55264   0.00000  Uiso   1.00
C951   C     0.04104   0.65022   0.52595   0.00000  Uiso   1.00
C952   C     0.23118   0.61580   0.41227   0.00000  Uiso   1.00
C953   C     0.26489   0.65318   0.40103   0.00000  Uiso   1.00
C954   C     0.31882   0.63909   0.39164   0.00000  Uiso   1.00
C955   C     0.26323   0.38724   0.58231   0.00000  Uiso   1.00
C956   C     0.29496   0.38150   0.62970   0.00000  Uiso   1.00
C957   C     0.01650   0.40045   0.63198   0.00000  Uiso   1.00
C958   C     0.06718   0.49770   0.48815   0.00000  Uiso   1.00
C959   C     0.26615   0.50072   0.51158   0.00000  Uiso   1.00
C960   C     0.01224   0.49142   0.48281   0.00000  Uiso   1.00
C961   C     0.32048   0.50775   0.51550   0.00000  Uiso   1.00
C962   C     0.17322   0.35556   0.45931   0.00000  Uiso   1.00
C963   C     0.18953   0.64439   0.54188   0.00000  Uiso   1.00
C964   C     0.17831   0.64643   0.45843   0.00000  Uiso   1.00
H965   H     0.16660   0.37235   0.42692   0.00000  Uiso   1.00
H966   H     0.00825   0.53583   0.40550   0.00000  Uiso   1.00
H967   H     0.02817   0.50905   0.66423   0.00000  Uiso   1.00
H968   H     0.30968   0.54717   0.65661   0.00000  Uiso   1.00
H969   H     0.29385   0.49260   0.64974   0.00000  Uiso   1.00
H970   H     0.29526   0.58740   0.52172   0.00000  Uiso   1.00
H971   H     0.01536   0.57676   0.48955   0.00000  Uiso   1.00
H972   H     0.02202   0.61536   0.58498   0.00000  Uiso   1.00
H973   H     0.07836   0.59691   0.56133   0.00000  Uiso   1.00
H974   H     0.00110   0.66249   0.51442   0.00000  Uiso   1.00
H975   H     0.06104   0.64521   0.49551   0.00000  Uiso   1.00
H976   H     0.19624   0.62723   0.57404   0.00000  Uiso   1.00
H977   H     0.06396   0.34028   0.54798   0.00000  Uiso   1.00
H978   H     0.22896   0.59338   0.38368   0.00000  Uiso   1.00
H979   H     0.25069   0.59901   0.44327   0.00000  Uiso   1.00
H980   H     0.24463   0.33671   0.37053   0.00000  Uiso   1.00
H981   H     0.27049   0.34167   0.43029   0.00000  Uiso   1.00
H982   H     0.00574   0.62122   0.42134   0.00000  Uiso   1.00
H983   H     0.00988   0.33344   0.38573   0.00000  Uiso   1.00
H984   H     0.31490   0.61917   0.36082   0.00000  Uiso   1.00
H985   H     0.26274   0.42085   0.57283   0.00000  Uiso   1.00
H986   H     0.28401   0.37026   0.55743   0.00000  Uiso   1.00
H987   H     0.13034   0.55913   0.37014   0.00000  Uiso   1.00
H988   H     0.27439   0.39642   0.65581   0.00000  Uiso   1.00
H989   H     0.29843   0.34762   0.63761   0.00000  Uiso   1.00
H990   H     0.03881   0.38458   0.60773   0.00000  Uiso   1.00
H991   H     0.03794   0.39659   0.33381   0.00000  Uiso   1.00
H992   H     0.01411   0.43425   0.62333   0.00000  Uiso   1.00
H993   H     0.20093   0.44034   0.62975   0.00000  Uiso   1.00
H994   H     0.13124   0.55946   0.61957   0.00000  Uiso   1.00
H995   H     0.20160   0.44031   0.38050   0.00000  Uiso   1.00
H996   H     0.30321   0.44551   0.38549   0.00000  Uiso   1.00
H997   H     0.03618   0.45862   0.40121   0.00000  Uiso   1.00
H998   H     0.27445   0.51957   0.39173   0.00000  Uiso   1.00
N999   N     0.16665   0.49999   0.61907   0.00000  Uiso   1.00
N1000  N     0.16668   0.50001   0.38093   0.00000  Uiso   1.00
O1001  O     0.16666   0.43892   0.53821   0.00000  Uiso   1.00
O1002  O     0.00958   0.53765   0.54620   0.00000  Uiso   1.00
O1003  O     0.17909   0.62774   0.41647   0.00000  Uiso   1.00
O1004  O     0.21095   0.37325   0.58335   0.00000  Uiso   1.00
O1005  O     0.16667   0.56108   0.46179   0.00000  Uiso   1.00
O1006  O     0.16666   0.43893   0.46176   0.00000  Uiso   1.00
O1007  O     0.16667   0.56107   0.53824   0.00000  Uiso   1.00
O1008  O     0.09058   0.50000   0.52928   0.00000  Uiso   1.00
O1009  O     0.24275   0.50000   0.47072   0.00000  Uiso   1.00
O1010  O     0.09058   0.50000   0.45284   0.00000  Uiso   1.00
O1011  O     0.24275   0.50000   0.54716   0.00000  Uiso   1.00
O1012  O     0.32086   0.46172   0.45242   0.00000  Uiso   1.00
Zn1013 Zn    0.16667   0.49999   0.55104   0.00000  Uiso   1.00
Zn1014 Zn    0.16667   0.50001   0.44896   0.00000  Uiso   1.00
C1015  C     0.50319   0.41999   0.50056   0.00000  Uiso   1.00
C1016  C     0.52601   0.35391   0.54252   0.00000  Uiso   1.00
C1017  C     0.51249   0.62403   0.49993   0.00000  Uiso   1.00
C1018  C     0.51137   0.37598   0.50124   0.00000  Uiso   1.00
C1019  C     0.47997   0.53290   0.35440   0.00000  Uiso   1.00
C1020  C     0.51906   0.46680   0.64555   0.00000  Uiso   1.00
C1021  C     0.48026   0.53301   0.63985   0.00000  Uiso   1.00
C1022  C     0.51924   0.46681   0.36014   0.00000  Uiso   1.00
C1023  C     0.66268   0.46789   0.40627   0.00000  Uiso   1.00
C1024  C     0.64865   0.51207   0.38710   0.00000  Uiso   1.00
C1025  C     0.65378   0.51529   0.33627   0.00000  Uiso   1.00
C1026  C     0.50349   0.58002   0.50003   0.00000  Uiso   1.00
C1027  C     0.33689   0.57733   0.52449   0.00000  Uiso   1.00
C1028  C     0.37140   0.60935   0.55264   0.00000  Uiso   1.00
C1029  C     0.37437   0.65022   0.52595   0.00000  Uiso   1.00
C1030  C     0.56451   0.61580   0.41227   0.00000  Uiso   1.00
C1031  C     0.59822   0.65318   0.40103   0.00000  Uiso   1.00
C1032  C     0.65215   0.63909   0.39164   0.00000  Uiso   1.00
C1033  C     0.59656   0.38724   0.58231   0.00000  Uiso   1.00
C1034  C     0.62830   0.38150   0.62970   0.00000  Uiso   1.00
C1035  C     0.34983   0.40045   0.63198   0.00000  Uiso   1.00
C1036  C     0.40051   0.49770   0.48815   0.00000  Uiso   1.00
C1037  C     0.59948   0.50072   0.51158   0.00000  Uiso   1.00
C1038  C     0.34558   0.49142   0.48281   0.00000  Uiso   1.00
C1039  C     0.65381   0.50775   0.51550   0.00000  Uiso   1.00
C1040  C     0.50656   0.35556   0.45931   0.00000  Uiso   1.00
C1041  C     0.52287   0.64439   0.54188   0.00000  Uiso   1.00
C1042  C     0.51165   0.64643   0.45843   0.00000  Uiso   1.00
H1043  H     0.49993   0.37235   0.42692   0.00000  Uiso   1.00
H1044  H     0.34158   0.53583   0.40550   0.00000  Uiso   1.00
H1045  H     0.36150   0.50905   0.66423   0.00000  Uiso   1.00
H1046  H     0.64302   0.54717   0.65661   0.00000  Uiso   1.00
H1047  H     0.62718   0.49260   0.64974   0.00000  Uiso   1.00
H1048  H     0.62860   0.58740   0.52172   0.00000  Uiso   1.00
H1049  H     0.34870   0.57676   0.48955   0.00000  Uiso   1.00
H1050  H     0.35535   0.61536   0.58498   0.00000  Uiso   1.00
H1051  H     0.41169   0.59691   0.56133   0.00000  Uiso   1.00
H1052  H     0.33443   0.66249   0.51442   0.00000  Uiso   1.00
H1053  H     0.39438   0.64521   0.49551   0.00000  Uiso   1.00
H1054  H     0.52957   0.62723   0.57404   0.00000  Uiso   1.00
H1055  H     0.39729   0.34028   0.54798   0.00000  Uiso   1.00
H1056  H     0.56230   0.59338   0.38368   0.00000  Uiso   1.00
H1057  H     0.58403   0.59901   0.44327   0.00000  Uiso   1.00
H1058  H     0.57797   0.33671   0.37053   0.00000  Uiso   1.00
H1059  H     0.60383   0.34167   0.43029   0.00000  Uiso   1.00
H1060  H     0.33907   0.62122   0.42134   0.00000  Uiso   1.00
H1061  H     0.34322   0.33344   0.38573   0.00000  Uiso   1.00
H1062  H     0.64823   0.61917   0.36082   0.00000  Uiso   1.00
H1063  H     0.59607   0.42085   0.57283   0.00000  Uiso   1.00
H1064  H     0.61734   0.37026   0.55743   0.00000  Uiso   1.00
H1065  H     0.46367   0.55913   0.37014   0.00000  Uiso   1.00
H1066  H     0.60772   0.39642   0.65581   0.00000  Uiso   1.00
H1067  H     0.63177   0.34762   0.63761   0.00000  Uiso   1.00
H1068  H     0.37214   0.38458   0.60773   0.00000  Uiso   1.00
H1069  H     0.37128   0.39659   0.33381   0.00000  Uiso   1.00
H1070  H     0.34745   0.43425   0.62333   0.00000  Uiso   1.00
H1071  H     0.53426   0.44034   0.62975   0.00000  Uiso   1.00
H1072  H     0.46458   0.55946   0.61957   0.00000  Uiso   1.00
H1073  H     0.53494   0.44031   0.38050   0.00000  Uiso   1.00
H1074  H     0.63655   0.44551   0.38549   0.00000  Uiso   1.00
H1075  H     0.36951   0.45862   0.40121   0.00000  Uiso   1.00
H1076  H     0.60778   0.51957   0.39173   0.00000  Uiso   1.00
N1077  N     0.49999   0.49999   0.61907   0.00000  Uiso   1.00
N1078  N     0.50001   0.50001   0.38093   0.00000  Uiso   1.00
O1079  O     0.50000   0.43892   0.53821   0.00000  Uiso   1.00
O1080  O     0.34292   0.53765   0.54620   0.00000  Uiso   1.00
O1081  O     0.51242   0.62774   0.41647   0.00000  Uiso   1.00
O1082  O     0.54428   0.37325   0.58335   0.00000  Uiso   1.00
O1083  O     0.50000   0.56108   0.46179   0.00000  Uiso   1.00
O1084  O     0.50000   0.43893   0.46176   0.00000  Uiso   1.00
O1085  O     0.50000   0.56107   0.53824   0.00000  Uiso   1.00
O1086  O     0.42392   0.50000   0.52928   0.00000  Uiso   1.00
O1087  O     0.57608   0.50000   0.47072   0.00000  Uiso   1.00
O1088  O     0.42392   0.50000   0.45284   0.00000  Uiso   1.00
O1089  O     0.57608   0.50000   0.54716   0.00000  Uiso   1.00
O1090  O     0.65419   0.46172   0.45242   0.00000  Uiso   1.00
Zn1091 Zn    0.50000   0.49999   0.55104   0.00000  Uiso   1.00
Zn1092 Zn    0.50000   0.50001   0.44896   0.00000  Uiso   1.00
C1093  C     0.83652   0.41999   0.50056   0.00000  Uiso   1.00
C1094  C     0.85935   0.35391   0.54252   0.00000  Uiso   1.00
C1095  C     0.84582   0.62403   0.49993   0.00000  Uiso   1.00
C1096  C     0.84470   0.37598   0.50124   0.00000  Uiso   1.00
C1097  C     0.81330   0.53290   0.35440   0.00000  Uiso   1.00
C1098  C     0.85239   0.46680   0.64555   0.00000  Uiso   1.00
C1099  C     0.81360   0.53301   0.63985   0.00000  Uiso   1.00
C1100  C     0.85257   0.46681   0.36014   0.00000  Uiso   1.00
C1101  C     0.99601   0.46789   0.40627   0.00000  Uiso   1.00
C1102  C     0.98198   0.51207   0.38710   0.00000  Uiso   1.00
C1103  C     0.98712   0.51529   0.33627   0.00000  Uiso   1.00
C1104  C     0.83682   0.58002   0.50003   0.00000  Uiso   1.00
C1105  C     0.67022   0.57733   0.52449   0.00000  Uiso   1.00
C1106  C     0.70473   0.60935   0.55264   0.00000  Uiso   1.00
C1107  C     0.70770   0.65022   0.52595   0.00000  Uiso   1.00
C1108  C     0.89784   0.61580   0.41227   0.00000  Uiso   1.00
C1109  C     0.93155   0.65318   0.40103   0.00000  Uiso   1.00
C1110  C     0.98548   0.63909   0.39164   0.00000  Uiso   1.00
C1111  C     0.92989   0.38724   0.58231   0.00000  Uiso   1.00
C1112  C     0.96163   0.38150   0.62970   0.00000  Uiso   1.00
C1113  C     0.68316   0.40045   0.63198   0.00000  Uiso   1.00
C1114  C     0.73385   0.49770   0.48815   0.00000  Uiso   1.00
C1115  C     0.93281   0.50072   0.51158   0.00000  Uiso   1.00
C1116  C     0.67891   0.49142   0.48281   0.00000  Uiso   1.00
C1117  C     0.98714   0.50775   0.51550   0.00000  Uiso   1.00
C1118  C     0.83989   0.35556   0.45931   0.00000  Uiso   1.00
C1119  C     0.85620   0.64439   0.54188   0.00000  Uiso   1.00
C1120  C     0.84498   0.64643   0.45843   0.00000  Uiso   1.00
H1121  H     0.83327   0.37235   0.42692   0.00000  Uiso   1.00
H1122  H     0.67492   0.53583   0.40550   0.00000  Uiso   1.00
H1123  H     0.69483   0.50905   0.66423   0.00000  Uiso   1.00
H1124  H     0.97635   0.54717   0.65661   0.00000  Uiso   1.00
H1125  H     0.96052   0.49260   0.64974   0.00000  Uiso   1.00
H1126  H     0.96193   0.58740   0.52172   0.00000  Uiso   1.00
H1127  H     0.68203   0.57676   0.48955   0.00000  Uiso   1.00
H1128  H     0.68869   0.61536   0.58498   0.00000  Uiso   1.00
H1129  H     0.74503   0.59691   0.56133   0.00000  Uiso   1.00
H1130  H     0.66777   0.66249   0.51442   0.00000  Uiso   1.00
H1131  H     0.72771   0.64521   0.49551   0.00000  Uiso   1.00
H1132  H     0.86291   0.62723   0.57404   0.00000  Uiso   1.00
H1133  H     0.73062   0.34028   0.54798   0.00000  Uiso   1.00
H1134  H     0.89563   0.59338   0.38368   0.00000  Uiso   1.00
H1135  H     0.91736   0.59901   0.44327   0.00000  Uiso   1.00
H1136  H     0.91130   0.33671   0.37053   0.00000  Uiso   1.00
H1137  H     0.93716   0.34167   0.43029   0.00000  Uiso   1.00
H1138  H     0.67241   0.62122   0.42134   0.00000  Uiso   1.00
H1139  H     0.67655   0.33344   0.38573   0.00000  Uiso   1.00
H1140  H     0.98157   0.61917   0.36082   0.00000  Uiso   1.00
H1141  H     0.92940   0.42085   0.57283   0.00000  Uiso   1.00
H1142  H     0.95068   0.37026   0.55743   0.00000  Uiso   1.00
H1143  H     0.79700   0.55913   0.37014   0.00000  Uiso   1.00
H1144  H     0.94105   0.39642   0.65581   0.00000  Uiso   1.00
H1145  H     0.96510   0.34762   0.63761   0.00000  Uiso   1.00
H1146  H     0.70548   0.38458   0.60773   0.00000  Uiso   1.00
H1147  H     0.70461   0.39659   0.33381   0.00000  Uiso   1.00
H1148  H     0.68078   0.43425   0.62333   0.00000  Uiso   1.00
H1149  H     0.86760   0.44034   0.62975   0.00000  Uiso   1.00
H1150  H     0.79791   0.55946   0.61957   0.00000  Uiso   1.00
H1151  H     0.86827   0.44031   0.38050   0.00000  Uiso   1.00
H1152  H     0.96988   0.44551   0.38549   0.00000  Uiso   1.00
H1153  H     0.70285   0.45862   0.40121   0.00000  Uiso   1.00
H1154  H     0.94111   0.51957   0.39173   0.00000  Uiso   1.00
N1155  N     0.83332   0.49999   0.61907   0.00000  Uiso   1.00
N1156  N     0.83335   0.50001   0.38093   0.00000  Uiso   1.00
O1157  O     0.83333   0.43892   0.53821   0.00000  Uiso   1.00
O1158  O     0.67625   0.53765   0.54620   0.00000  Uiso   1.00
O1159  O     0.84576   0.62774   0.41647   0.00000  Uiso   1.00
O1160  O     0.87762   0.37325   0.58335   0.00000  Uiso   1.00
O1161  O     0.83334   0.56108   0.46179   0.00000  Uiso   1.00
O1162  O     0.83333   0.43893   0.46176   0.00000  Uiso   1.00
O1163  O     0.83334   0.56107   0.53824   0.00000  Uiso   1.00
O1164  O     0.75725   0.50000   0.52928   0.00000  Uiso   1.00
O1165  O     0.90942   0.50000   0.47072   0.00000  Uiso   1.00
O1166  O     0.75725   0.50000   0.45284   0.00000  Uiso   1.00
O1167  O     0.90942   0.50000   0.54716   0.00000  Uiso   1.00
O1168  O     0.98752   0.46172   0.45242   0.00000  Uiso   1.00
Zn1169 Zn    0.83333   0.49999   0.55104   0.00000  Uiso   1.00
Zn1170 Zn    0.83333   0.50001   0.44896   0.00000  Uiso   1.00
C1171  C     0.16985   0.75332   0.50056   0.00000  Uiso   1.00
C1172  C     0.19268   0.68724   0.54252   0.00000  Uiso   1.00
C1173  C     0.17915   0.95737   0.49993   0.00000  Uiso   1.00
C1174  C     0.17804   0.70931   0.50124   0.00000  Uiso   1.00
C1175  C     0.14664   0.86624   0.35440   0.00000  Uiso   1.00
C1176  C     0.18573   0.80013   0.64555   0.00000  Uiso   1.00
C1177  C     0.14693   0.86634   0.63985   0.00000  Uiso   1.00
C1178  C     0.18590   0.80014   0.36014   0.00000  Uiso   1.00
C1179  C     0.32934   0.80123   0.40627   0.00000  Uiso   1.00
C1180  C     0.31532   0.84540   0.38710   0.00000  Uiso   1.00
C1181  C     0.32045   0.84862   0.33627   0.00000  Uiso   1.00
C1182  C     0.17015   0.91335   0.50003   0.00000  Uiso   1.00
C1183  C     0.00355   0.91066   0.52449   0.00000  Uiso   1.00
C1184  C     0.03807   0.94269   0.55264   0.00000  Uiso   1.00
C1185  C     0.04104   0.98355   0.52595   0.00000  Uiso   1.00
C1186  C     0.23118   0.94913   0.41227   0.00000  Uiso   1.00
C1187  C     0.26489   0.98652   0.40103   0.00000  Uiso   1.00
C1188  C     0.31882   0.97242   0.39164   0.00000  Uiso   1.00
C1189  C     0.26323   0.72057   0.58231   0.00000  Uiso   1.00
C1190  C     0.29496   0.71484   0.62970   0.00000  Uiso   1.00
C1191  C     0.01650   0.73378   0.63198   0.00000  Uiso   1.00
C1192  C     0.06718   0.83104   0.48815   0.00000  Uiso   1.00
C1193  C     0.26615   0.83406   0.51158   0.00000  Uiso   1.00
C1194  C     0.01224   0.82475   0.48281   0.00000  Uiso   1.00
C1195  C     0.32048   0.84108   0.51550   0.00000  Uiso   1.00
C1196  C     0.17322   0.68890   0.45931   0.00000  Uiso   1.00
C1197  C     0.18953   0.97772   0.54188   0.00000  Uiso   1.00
C1198  C     0.17831   0.97977   0.45843   0.00000  Uiso   1.00
H1199  H     0.16660   0.70568   0.42692   0.00000  Uiso   1.00
H1200  H     0.00825   0.86917   0.40550   0.00000  Uiso   1.00
H1201  H     0.02817   0.84239   0.66423   0.00000  Uiso   1.00
H1202  H     0.30968   0.88050   0.65661   0.00000  Uiso   1.00
H1203  H     0.29385   0.82593   0.64974   0.00000  Uiso   1.00
H1204  H     0.29526   0.92073   0.52172   0.00000  Uiso   1.00
H1205  H     0.01536   0.91010   0.48955   0.00000  Uiso   1.00
H1206  H     0.02202   0.94869   0.58498   0.00000  Uiso   1.00
H1207  H     0.07836   0.93025   0.56133   0.00000  Uiso   1.00
H1208  H     0.00110   0.99582   0.51442   0.00000  Uiso   1.00
H1209  H     0.06104   0.97855   0.49551   0.00000  Uiso   1.00
H1210  H     0.19624   0.96057   0.57404   0.00000  Uiso   1.00
H1211  H     0.06396   0.67362   0.54798   0.00000  Uiso   1.00
H1212  H     0.22896   0.92671   0.38368   0.00000  Uiso   1.00
H1213  H     0.25069   0.93235   0.44327   0.00000  Uiso   1.00
H1214  H     0.24463   0.67004   0.37053   0.00000  Uiso   1.00
H1215  H     0.27049   0.67500   0.43029   0.00000  Uiso   1.00
H1216  H     0.00574   0.95455   0.42134   0.00000  Uiso   1.00
H1217  H     0.00988   0.66678   0.38573   0.00000  Uiso   1.00
H1218  H     0.31490   0.95250   0.36082   0.00000  Uiso   1.00
H1219  H     0.26274   0.75418   0.57283   0.00000  Uiso   1.00
H1220  H     0.28401   0.70360   0.55743   0.00000  Uiso   1.00
H1221  H     0.13034   0.89246   0.37014   0.00000  Uiso   1.00
H1222  H     0.27439   0.72976   0.65581   0.00000  Uiso   1.00
H1223  H     0.29843   0.68095   0.63761   0.00000  Uiso   1.00
H1224  H     0.03881   0.71791   0.60773   0.00000  Uiso   1.00
H1225  H     0.03794   0.72992   0.33381   0.00000  Uiso   1.00
H1226  H     0.01411   0.76758   0.62333   0.00000  Uiso   1.00
H1227  H     0.20093   0.77367   0.62975   0.00000  Uiso   1.00
H1228  H     0.13124   0.89279   0.61957   0.00000  Uiso   1.00
H1229  H     0.20160   0.77365   0.38050   0.00000  Uiso   1.00
H1230  H     0.30321   0.77884   0.38549   0.00000  Uiso   1.00
H1231  H     0.03618   0.79195   0.40121   0.00000  Uiso   1.00
H1232  H     0.27445   0.85291   0.39173   0.00000  Uiso   1.00
N1233  N     0.16665   0.83332   0.61907   0.00000  Uiso   1.00
N1234  N     0.16668   0.83334   0.38093   0.00000  Uiso   1.00
O1235  O     0.16666   0.77225   0.53821   0.00000  Uiso   1.00
O1236  O     0.00958   0.87098   0.54620   0.00000  Uiso   1.00
O1237  O     0.17909   0.96107   0.41647   0.00000  Uiso   1.00
O1238  O     0.21095   0.70658   0.58335   0.00000  Uiso   1.00
O1239  O     0.16667   0.89442   0.46179   0.00000  Uiso   1.00
O1240  O     0.16666   0.77226   0.46176   0.00000  Uiso   1.00
O1241  O     0.16667   0.89441   0.53824   0.00000  Uiso   1.00
O1242  O     0.09058   0.83333   0.52928   0.00000  Uiso   1.00
O1243  O     0.24275   0.83334   0.47072   0.00000  Uiso   1.00
O1244  O     0.09058   0.83334   0.45284   0.00000  Uiso   1.00
O1245  O     0.24275   0.83333   0.54716   0.00000  Uiso   1.00
O1246  O     0.32086   0.79506   0.45242   0.00000  Uiso   1.00
Zn1247 Zn    0.16667   0.83333   0.55104   0.00000  Uiso   1.00
Zn1248 Zn    0.16667   0.83334   0.44896   0.00000  Uiso   1.00
C1249  C     0.50319   0.75332   0.50056   0.00000  Uiso   1.00
C1250  C     0.52601   0.68724   0.54252   0.00000  Uiso   1.00
C1251  C     0.51249   0.95737   0.49993   0.00000  Uiso   1.00
C1252  C     0.51137   0.70931   0.50124   0.00000  Uiso   1.00
C1253  C     0.47997   0.86624   0.35440   0.00000  Uiso   1.00
C1254  C     0.51906   0.80013   0.64555   0.00000  Uiso   1.00
C1255  C     0.48026   0.86634   0.63985   0.00000  Uiso   1.00
C1256  C     0.51924   0.80014   0.36014   0.00000  Uiso   1.00
C1257  C     0.66268   0.80123   0.40627   0.00000  Uiso   1.00
C1258  C     0.64865   0.84540   0.38710   0.00000  Uiso   1.00
C1259  C     0.65378   0.84862   0.33627   0.00000  Uiso   1.00
C1260  C     0.50349   0.91335   0.50003   0.00000  Uiso   1.00
C1261  C     0.33689   0.91066   0.52449   0.00000  Uiso   1.00
C1262  C     0.37140   0.94269   0.55264   0.00000  Uiso   1.00
C1263  C     0.37437   0.98355   0.52595   0.00000  Uiso   1.00
C1264  C     0.56451   0.94913   0.41227   0.00000  Uiso   1.00
C1265  C     0.59822   0.98652   0.40103   0.00000  Uiso   1.00
C1266  C     0.65215   0.97242   0.39164   0.00000  Uiso   1.00
C1267  C     0.59656   0.72057   0.58231   0.00000  Uiso   1.00
C1268  C     0.62830   0.71484   0.62970   0.00000  Uiso   1.00
C1269  C     0.34983   0.73378   0.63198   0.00000  Uiso   1.00
C1270  C     0.40051   0.83104   0.48815   0.00000  Uiso   1.00
C1271  C     0.59948   0.83406   0.51158   0.00000  Uiso   1.00
C1272  C     0.34558   0.82475   0.48281   0.00000  Uiso   1.00
C1273  C     0.65381   0.84108   0.51550   0.00000  Uiso   1.00
C1274  C     0.50656   0.68890   0.45931   0.00000  Uiso   1.00
C1275  C     0.52287   0.97772   0.54188   0.00000  Uiso   1.00
C1276  C     0.51165   0.97977   0.45843   0.00000  Uiso   1.00
H1277  H     0.49993   0.70568   0.42692   0.00000  Uiso   1.00
H1278  H     0.34158   0.86917   0.40550   0.00000  Uiso   1.00
H1279  H     0.36150   0.84239   0.66423   0.00000  Uiso   1.00
H1280  H     0.64302   0.88050   0.65661   0.00000  Uiso   1.00
H1281  H     0.62718   0.82593   0.64974   0.00000  Uiso   1.00
H1282  H     0.62860   0.92073   0.52172   0.00000  Uiso   1.00
H1283  H     0.34870   0.91010   0.48955   0.00000  Uiso   1.00
H1284  H     0.35535   0.94869   0.58498   0.00000  Uiso   1.00
H1285  H     0.41169   0.93025   0.56133   0.00000  Uiso   1.00
H1286  H     0.33443   0.99582   0.51442   0.00000  Uiso   1.00
H1287  H     0.39438   0.97855   0.49551   0.00000  Uiso   1.00
H1288  H     0.52957   0.96057   0.57404   0.00000  Uiso   1.00
H1289  H     0.39729   0.67362   0.54798   0.00000  Uiso   1.00
H1290  H     0.56230   0.92671   0.38368   0.00000  Uiso   1.00
H1291  H     0.58403   0.93235   0.44327   0.00000  Uiso   1.00
H1292  H     0.57797   0.67004   0.37053   0.00000  Uiso   1.00
H1293  H     0.60383   0.67500   0.43029   0.00000  Uiso   1.00
H1294  H     0.33907   0.95455   0.42134   0.00000  Uiso   1.00
H1295  H     0.34322   0.66678   0.38573   0.00000  Uiso   1.00
H1296  H     0.64823   0.95250   0.36082   0.00000  Uiso   1.00
H1297  H     0.59607   0.75418   0.57283   0.00000  Uiso   1.00
H1298  H     0.61734   0.70360   0.55743   0.00000  Uiso   1.00
H1299  H     0.46367   0.89246   0.37014   0.00000  Uiso   1.00
H1300  H     0.60772   0.72976   0.65581   0.00000  Uiso   1.00
H1301  H     0.63177   0.68095   0.63761   0.00000  Uiso   1.00
H1302  H     0.37214   0.71791   0.60773   0.00000  Uiso   1.00
H1303  H     0.37128   0.72992   0.33381   0.00000  Uiso   1.00
H1304  H     0.34745   0.76758   0.62333   0.00000  Uiso   1.00
H1305  H     0.53426   0.77367   0.62975   0.00000  Uiso   1.00
H1306  H     0.46458   0.89279   0.61957   0.00000  Uiso   1.00
H1307  H     0.53494   0.77365   0.38050   0.00000  Uiso   1.00
H1308  H     0.63655   0.77884   0.38549   0.00000  Uiso   1.00
H1309  H     0.36951   0.79195   0.40121   0.00000  Uiso   1.00
H1310  H     0.60778   0.85291   0.39173   0.00000  Uiso   1.00
N1311  N     0.49999   0.83332   0.61907   0.00000  Uiso   1.00
N1312  N     0.50001   0.83334   0.38093   0.00000  Uiso   1.00
O1313  O     0.50000   0.77225   0.53821   0.00000  Uiso   1.00
O1314  O     0.34292   0.87098   0.54620   0.00000  Uiso   1.00
O1315  O     0.51242   0.96107   0.41647   0.00000  Uiso   1.00
O1316  O     0.54428   0.70658   0.58335   0.00000  Uiso   1.00
O1317  O     0.50000   0.89442   0.46179   0.00000  Uiso   1.00
O1318  O     0.50000   0.77226   0.46176   0.00000  Uiso   1.00
O1319  O     0.50000   0.89441   0.53824   0.00000  Uiso   1.00
O1320  O     0.42392   0.83333   0.52928   0.00000  Uiso   1.00
O1321  O     0.57608   0.83334   0.47072   0.00000  Uiso   1.00
O1322  O     0.42392   0.83334   0.45284   0.00000  Uiso   1.00
O1323  O     0.57608   0.83333   0.54716   0.00000  Uiso   1.00
O1324  O     0.65419   0.79506   0.45242   0.00000  Uiso   1.00
Zn1325 Zn    0.50000   0.83333   0.55104   0.00000  Uiso   1.00
Zn1326 Zn    0.50000   0.83334   0.44896   0.00000  Uiso   1.00
C1327  C     0.83652   0.75332   0.50056   0.00000  Uiso   1.00
C1328  C     0.85935   0.68724   0.54252   0.00000  Uiso   1.00
C1329  C     0.84582   0.95737   0.49993   0.00000  Uiso   1.00
C1330  C     0.84470   0.70931   0.50124   0.00000  Uiso   1.00
C1331  C     0.81330   0.86624   0.35440   0.00000  Uiso   1.00
C1332  C     0.85239   0.80013   0.64555   0.00000  Uiso   1.00
C1333  C     0.81360   0.86634   0.63985   0.00000  Uiso   1.00
C1334  C     0.85257   0.80014   0.36014   0.00000  Uiso   1.00
C1335  C     0.99601   0.80123   0.40627   0.00000  Uiso   1.00
C1336  C     0.98198   0.84540   0.38710   0.00000  Uiso   1.00
C1337  C     0.98712   0.84862   0.33627   0.00000  Uiso   1.00
C1338  C     0.83682   0.91335   0.50003   0.00000  Uiso   1.00
C1339  C     0.67022   0.91066   0.52449   0.00000  Uiso   1.00
C1340  C     0.70473   0.94269   0.55264   0.00000  Uiso   1.00
C1341  C     0.70770   0.98355   0.52595   0.00000  Uiso   1.00
C1342  C     0.89784   0.94913   0.41227   0.00000  Uiso   1.00
C1343  C     0.93155   0.98652   0.40103   0.00000  Uiso   1.00
C1344  C     0.98548   0.97242   0.39164   0.00000  Uiso   1.00
C1345  C     0.92989   0.72057   0.58231   0.00000  Uiso   1.00
C1346  C     0.96163   0.71484   0.62970   0.00000  Uiso   1.00
C1347  C     0.68316   0.73378   0.63198   0.00000  Uiso   1.00
C1348  C     0.73385   0.83104   0.48815   0.00000  Uiso   1.00
C1349  C     0.93281   0.83406   0.51158   0.00000  Uiso   1.00
C1350  C     0.67891   0.82475   0.48281   0.00000  Uiso   1.00
C1351  C     0.98714   0.84108   0.51550   0.00000  Uiso   1.00
C1352  C     0.83989   0.68890   0.45931   0.00000  Uiso   1.00
C1353  C     0.85620   0.97772   0.54188   0.00000  Uiso   1.00
C1354  C     0.84498   0.97977   0.45843   0.00000  Uiso   1.00
H1355  H     0.83327   0.70568   0.42692   0.00000  Uiso   1.00
H1356  H     0.67492   0.86917   0.40550   0.00000  Uiso   1.00
H1357  H     0.69483   0.84239   0.66423   0.00000  Uiso   1.00
H1358  H     0.97635   0.88050   0.65661   0.00000  Uiso   1.00
H1359  H     0.96052   0.82593   0.64974   0.00000  Uiso   1.00
H1360  H     0.96193   0.92073   0.52172   0.00000  Uiso   1.00
H1361  H     0.68203   0.91010   0.48955   0.00000  Uiso   1.00
H1362  H     0.68869   0.94869   0.58498   0.00000  Uiso   1.00
H1363  H     0.74503   0.93025   0.56133   0.00000  Uiso   1.00
H1364  H     0.66777   0.99582   0.51442   0.00000  Uiso   1.00
H1365  H     0.72771   0.97855   0.49551   0.00000  Uiso   1.00
H1366  H     0.86291   0.96057   0.57404   0.00000  Uiso   1.00
H1367  H     0.73062   0.67362   0.54798   0.00000  Uiso   1.00
H1368  H     0.89563   0.92671   0.38368   0.00000  Uiso   1.00
H1369  H     0.91736   0.93235   0.44327   0.00000  Uiso   1.00
H1370  H     0.91130   0.67004   0.37053   0.00000  Uiso   1.00
H1371  H     0.93716   0.67500   0.43029   0.00000  Uiso   1.00
H1372  H     0.67241   0.95455   0.42134   0.00000  Uiso   1.00
H1373  H     0.67655   0.66678   0.38573   0.00000  Uiso   1.00
H1374  H     0.98157   0.95250   0.36082   0.00000  Uiso   1.00
H1375  H     0.92940   0.75418   0.57283   0.00000  Uiso   1.00
H1376  H     0.95068   0.70360   0.55743   0.00000  Uiso   1.00
H1377  H     0.79700   0.89246   0.37014   0.00000  Uiso   1.00
H1378  H     0.94105   0.72976   0.65581   0.00000  Uiso   1.00
H1379  H     0.96510   0.68095   0.63761   0.00000  Uiso   1.00
H1380  H     0.70548   0.71791   0.60773   0.00000  Uiso   1.00
H1381  H     0.70461   0.72992   0.33381   0.00000  Uiso   1.00
H1382  H     0.68078   0.76758   0.62333   0.00000  Uiso   1.00
H1383  H     0.86760   0.77367   0.62975   0.00000  Uiso   1.00
H1384  H     0.79791   0.89279   0.61957   0.00000  Uiso   1.00
H1385  H     0.86827   0.77365   0.38050   0.00000  Uiso   1.00
H1386  H     0.96988   0.77884   0.38549   0.00000  Uiso   1.00
H1387  H     0.70285   0.79195   0.40121   0.00000  Uiso   1.00
H1388  H     0.94111   0.85291   0.39173   0.00000  Uiso   1.00
N1389  N     0.83332   0.83332   0.61907   0.00000  Uiso   1.00
N1390  N     0.83335   0.83334   0.38093   0.00000  Uiso   1.00
O1391  O     0.83333   0.77225   0.53821   0.00000  Uiso   1.00
O1392  O     0.67625   0.87098   0.54620   0.00000  Uiso   1.00
O1393  O     0.84576   0.96107   0.41647   0.00000  Uiso   1.00
O1394  O     0.87762   0.70658   0.58335   0.00000  Uiso   1.00
O1395  O     0.83334   0.89442   0.46179   0.00000  Uiso   1.00
O1396  O     0.83333   0.77226   0.46176   0.00000  Uiso   1.00
O1397  O     0.83334   0.89441   0.53824   0.00000  Uiso   1.00
O1398  O     0.75725   0.83333   0.52928   0.00000  Uiso   1.00
O1399  O     0.90942   0.83334   0.47072   0.00000  Uiso   1.00
O1400  O     0.75725   0.83334   0.45284   0.00000  Uiso   1.00
O1401  O     0.90942   0.83333   0.54716   0.00000  Uiso   1.00
O1402  O     0.98752   0.79506   0.45242   0.00000  Uiso   1.00
Zn1403 Zn    0.83333   0.83333   0.55104   0.00000  Uiso   1.00
Zn1404 Zn    0.83333   0.83334   0.44896   0.00000  Uiso   1.00
C1405  C     0.16985   0.08665   0.83390   0.00000  Uiso   1.00
C1406  C     0.19268   0.02058   0.87585   0.00000  Uiso   1.00
C1407  C     0.17915   0.29070   0.83326   0.00000  Uiso   1.00
C1408  C     0.17804   0.04264   0.83458   0.00000  Uiso   1.00
C1409  C     0.14664   0.19957   0.68774   0.00000  Uiso   1.00
C1410  C     0.18573   0.13347   0.97888   0.00000  Uiso   1.00
C1411  C     0.14693   0.19967   0.97318   0.00000  Uiso   1.00
C1412  C     0.18590   0.13347   0.69347   0.00000  Uiso   1.00
C1413  C     0.32934   0.13456   0.73961   0.00000  Uiso   1.00
C1414  C     0.31532   0.17873   0.72043   0.00000  Uiso   1.00
C1415  C     0.32045   0.18196   0.66960   0.00000  Uiso   1.00
C1416  C     0.17015   0.24668   0.83336   0.00000  Uiso   1.00
C1417  C     0.00355   0.24399   0.85782   0.00000  Uiso   1.00
C1418  C     0.03807   0.27602   0.88598   0.00000  Uiso   1.00
C1419  C     0.04104   0.31688   0.85928   0.00000  Uiso   1.00
C1420  C     0.23118   0.28247   0.74561   0.00000  Uiso   1.00
C1421  C     0.26489   0.31985   0.73437   0.00000  Uiso   1.00
C1422  C     0.31882   0.30575   0.72497   0.00000  Uiso   1.00
C1423  C     0.26323   0.05390   0.91564   0.00000  Uiso   1.00
C1424  C     0.29496   0.04817   0.96303   0.00000  Uiso   1.00
C1425  C     0.01650   0.06712   0.96531   0.00000  Uiso   1.00
C1426  C     0.06718   0.16437   0.82148   0.00000  Uiso   1.00
C1427  C     0.26615   0.16739   0.84492   0.00000  Uiso   1.00
C1428  C     0.01224   0.15808   0.81614   0.00000  Uiso   1.00
C1429  C     0.32048   0.17441   0.84883   0.00000  Uiso   1.00
C1430  C     0.17322   0.02223   0.79264   0.00000  Uiso   1.00
C1431  C     0.18953   0.31105   0.87521   0.00000  Uiso   1.00
C1432  C     0.17831   0.31310   0.79176   0.00000  Uiso   1.00
H1433  H     0.16660   0.03902   0.76025   0.00000  Uiso   1.00
H1434  H     0.00825   0.20250   0.73883   0.00000  Uiso   1.00
H1435  H     0.02817   0.17572   0.99756   0.00000  Uiso   1.00
H1436  H     0.30968   0.21383   0.98995   0.00000  Uiso   1.00
H1437  H     0.29385   0.15926   0.98308   0.00000  Uiso   1.00
H1438  H     0.29526   0.25406   0.85505   0.00000  Uiso   1.00
H1439  H     0.01536   0.24343   0.82289   0.00000  Uiso   1.00
H1440  H     0.02202   0.28202   0.91832   0.00000  Uiso   1.00
H1441  H     0.07836   0.26358   0.89466   0.00000  Uiso   1.00
H1442  H     0.00110   0.32916   0.84775   0.00000  Uiso   1.00
H1443  H     0.06104   0.31188   0.82885   0.00000  Uiso   1.00
H1444  H     0.19624   0.29390   0.90738   0.00000  Uiso   1.00
H1445  H     0.06396   0.00695   0.88131   0.00000  Uiso   1.00
H1446  H     0.22896   0.26005   0.71701   0.00000  Uiso   1.00
H1447  H     0.25069   0.26568   0.77660   0.00000  Uiso   1.00
H1448  H     0.24463   0.00338   0.70386   0.00000  Uiso   1.00
H1449  H     0.27049   0.00834   0.76362   0.00000  Uiso   1.00
H1450  H     0.00574   0.28789   0.75467   0.00000  Uiso   1.00
H1451  H     0.00988   0.00011   0.71906   0.00000  Uiso   1.00
H1452  H     0.31490   0.28584   0.69415   0.00000  Uiso   1.00
H1453  H     0.26274   0.08751   0.90617   0.00000  Uiso   1.00
H1454  H     0.28401   0.03693   0.89077   0.00000  Uiso   1.00
H1455  H     0.13034   0.22579   0.70347   0.00000  Uiso   1.00
H1456  H     0.27439   0.06309   0.98915   0.00000  Uiso   1.00
H1457  H     0.29843   0.01428   0.97095   0.00000  Uiso   1.00
H1458  H     0.03881   0.05124   0.94106   0.00000  Uiso   1.00
H1459  H     0.03794   0.06326   0.66714   0.00000  Uiso   1.00
H1460  H     0.01411   0.10091   0.95667   0.00000  Uiso   1.00
H1461  H     0.20093   0.10701   0.96308   0.00000  Uiso   1.00
H1462  H     0.13124   0.22613   0.95290   0.00000  Uiso   1.00
H1463  H     0.20160   0.10698   0.71383   0.00000  Uiso   1.00
H1464  H     0.30321   0.11218   0.71882   0.00000  Uiso   1.00
H1465  H     0.03618   0.12528   0.73454   0.00000  Uiso   1.00
H1466  H     0.27445   0.18624   0.72506   0.00000  Uiso   1.00
N1467  N     0.16665   0.16666   0.95240   0.00000  Uiso   1.00
N1468  N     0.16668   0.16668   0.71427   0.00000  Uiso   1.00
O1469  O     0.16666   0.10558   0.87154   0.00000  Uiso   1.00
O1470  O     0.00958   0.20431   0.87953   0.00000  Uiso   1.00
O1471  O     0.17909   0.29440   0.74980   0.00000  Uiso   1.00
O1472  O     0.21095   0.03992   0.91668   0.00000  Uiso   1.00
O1473  O     0.16667   0.22775   0.79513   0.00000  Uiso   1.00
O1474  O     0.16666   0.10559   0.79510   0.00000  Uiso   1.00
O1475  O     0.16667   0.22774   0.87157   0.00000  Uiso   1.00
O1476  O     0.09058   0.16666   0.86261   0.00000  Uiso   1.00
O1477  O     0.24275   0.16667   0.80405   0.00000  Uiso   1.00
O1478  O     0.09058   0.16667   0.78617   0.00000  Uiso   1.00
O1479  O     0.24275   0.16666   0.88050   0.00000  Uiso   1.00
O1480  O     0.32086   0.12839   0.78575   0.00000  Uiso   1.00
Zn1481 Zn    0.16667   0.16666   0.88437   0.00000  Uiso   1.00
Zn1482 Zn    0.16667   0.16667   0.78229   0.00000  Uiso   1.00
C1483  C     0.50319   0.08665   0.83390   0.00000  Uiso   1.00
C1484  C     0.52601   0.02058   0.87585   0.00000  Uiso   1.00
C1485  C     0.51249   0.29070   0.83326   0.00000  Uiso   1.00
C1486  C     0.51137   0.04264   0.83458   0.00000  Uiso   1.00
C1487  C     0.47997   0.19957   0.68774   0.00000  Uiso   1.00
C1488  C     0.51906   0.13347   0.97888   0.00000  Uiso   1.00
C1489  C     0.48026   0.19967   0.97318   0.00000  Uiso   1.00
C1490  C     0.51924   0.13347   0.69347   0.00000  Uiso   1.00
C1491  C     0.66268   0.13456   0.73961   0.00000  Uiso   1.00
C1492  C     0.64865   0.17873   0.72043   0.00000  Uiso   1.00
C1493  C     0.65378   0.18196   0.66960   0.00000  Uiso   1.00
C1494  C     0.50349   0.24668   0.83336   0.00000  Uiso   1.00
C1495  C     0.33689   0.24399   0.85782   0.00000  Uiso   1.00
C1496  C     0.37140   0.27602   0.88598   0.00000  Uiso   1.00
C1497  C     0.37437   0.31688   0.85928   0.00000  Uiso   1.00
C1498  C     0.56451   0.28247   0.74561   0.00000  Uiso   1.00
C1499  C     0.59822   0.31985   0.73437   0.00000  Uiso   1.00
C1500  C     0.65215   0.30575   0.72497   0.00000  Uiso   1.00
C1501  C     0.59656   0.05390   0.91564   0.00000  Uiso   1.00
C1502  C     0.62830   0.04817   0.96303   0.00000  Uiso   1.00
C1503  C     0.34983   0.06712   0.96531   0.00000  Uiso   1.00
C1504  C     0.40051   0.16437   0.82148   0.00000  Uiso   1.00
C1505  C     0.59948   0.16739   0.84492   0.00000  Uiso   1.00
C1506  C     0.34558   0.15808   0.81614   0.00000  Uiso   1.00
C1507  C     0.65381   0.17441   0.84883   0.00000  Uiso   1.00
C1508  C     0.50656   0.02223   0.79264   0.00000  Uiso   1.00
C1509  C     0.52287   0.31105   0.87521   0.00000  Uiso   1.00
C1510  C     0.51165   0.31310   0.79176   0.00000  Uiso   1.00
H1511  H     0.49993   0.03902   0.76025   0.00000  Uiso   1.00
H1512  H     0.34158   0.20250   0.73883   0.00000  Uiso   1.00
H1513  H     0.36150   0.17572   0.99756   0.00000  Uiso   1.00
H1514  H     0.64302   0.21383   0.98995   0.00000  Uiso   1.00
H1515  H     0.62718   0.15926   0.98308   0.00000  Uiso   1.00
H1516  H     0.62860   0.25406   0.85505   0.00000  Uiso   1.00
H1517  H     0.34870   0.24343   0.82289   0.00000  Uiso   1.00
H1518  H     0.35535   0.28202   0.91832   0.00000  Uiso   1.00
H1519  H     0.41169   0.26358   0.89466   0.00000  Uiso   1.00
H1520  H     0.33443   0.32916   0.84775   0.00000  Uiso   1.00
H1521  H     0.39438   0.31188   0.82885   0.00000  Uiso   1.00
H1522  H     0.52957   0.29390   0.90738   0.00000  Uiso   1.00
H1523  H     0.39729   0.00695   0.88131   0.00000  Uiso   1.00
H1524  H     0.56230   0.26005   0.71701   0.00000  Uiso   1.00
H1525  H     0.58403   0.26568   0.77660   0.00000  Uiso   1.00
H1526  H     0.57797   0.00338   0.70386   0.00000  Uiso   1.00
H1527  H     0.60383   0.00834   0.76362   0.00000  Uiso   1.00
H1528  H     0.33907   0.28789   0.75467   0.00000  Uiso   1.00
H1529  H     0.34322   0.00011   0.71906   0.00000  Uiso   1.00
H1530  H     0.64823   0.28584   0.69415   0.00000  Uiso   1.00
H1531  H     0.59607   0.08751   0.90617   0.00000  Uiso   1.00
H1532  H     0.61734   0.03693   0.89077   0.00000  Uiso   1.00
H1533  H     0.46367   0.22579   0.70347   0.00000  Uiso   1.00
H1534  H     0.60772   0.06309   0.98915   0.00000  Uiso   1.00
H1535  H     0.63177   0.01428   0.97095   0.00000  Uiso   1.00
H1536  H     0.37214   0.05124   0.94106   0.00000  Uiso   1.00
H1537  H     0.37128   0.06326   0.66714   0.00000  Uiso   1.00
H1538  H     0.34745   0.10091   0.95667   0.00000  Uiso   1.00
H1539  H     0.53426   0.10701   0.96308   0.00000  Uiso   1.00
H1540  H     0.46458   0.22613   0.95290   0.00000  Uiso   1.00
H1541  H     0.53494   0.10698   0.71383   0.00000  Uiso   1.00
H1542  H     0.63655   0.11218   0.71882   0.00000  Uiso   1.00
H1543  H     0.36951   0.12528   0.73454   0.00000  Uiso   1.00
H1544  H     0.60778   0.18624   0.72506   0.00000  Uiso   1.00
N1545  N     0.49999   0.16666   0.95240   0.00000  Uiso   1.00
N1546  N     0.50001   0.16668   0.71427   0.00000  Uiso   1.00
O1547  O     0.50000   0.10558   0.87154   0.00000  Uiso   1.00
O1548  O     0.34292   0.20431   0.87953   0.00000  Uiso   1.00
O1549  O     0.51242   0.29440   0.74980   0.00000  Uiso   1.00
O1550  O     0.54428   0.03992   0.91668   0.00000  Uiso   1.00
O1551  O     0.50000   0.22775   0.79513   0.00000  Uiso   1.00
O1552  O     0.50000   0.10559   0.79510   0.00000  Uiso   1.00
O1553  O     0.50000   0.22774   0.87157   0.00000  Uiso   1.00
O1554  O     0.42392   0.16666   0.86261   0.00000  Uiso   1.00
O1555  O     0.57608   0.16667   0.80405   0.00000  Uiso   1.00
O1556  O     0.42392   0.16667   0.78617   0.00000  Uiso   1.00
O1557  O     0.57608   0.16666   0.88050   0.00000  Uiso   1.00
O1558  O     0.65419   0.12839   0.78575   0.00000  Uiso   1.00
Zn1559 Zn    0.50000   0.16666   0.88437   0.00000  Uiso   1.00
Zn1560 Zn    0.50000   0.16667   0.78229   0.00000  Uiso   1.00
C1561  C     0.83652   0.08665   0.83390   0.00000  Uiso   1.00
C1562  C     0.85935   0.02058   0.87585   0.00000  Uiso   1.00
C1563  C     0.84582   0.29070   0.83326   0.00000  Uiso   1.00
C1564  C     0.84470   0.04264   0.83458   0.00000  Uiso   1.00
C1565  C     0.81330   0.19957   0.68774   0.00000  Uiso   1.00
C1566  C     0.85239   0.13347   0.97888   0.00000  Uiso   1.00
C1567  C     0.81360   0.19967   0.97318   0.00000  Uiso   1.00
C1568  C     0.85257   0.13347   0.69347   0.00000  Uiso   1.00
C1569  C     0.99601   0.13456   0.73961   0.00000  Uiso   1.00
C1570  C     0.98198   0.17873   0.72043   0.00000  Uiso   1.00
C1571  C     0.98712   0.18196   0.66960   0.00000  Uiso   1.00
C1572  C     0.83682   0.24668   0.83336   0.00000  Uiso   1.00
C1573  C     0.67022   0.24399   0.85782   0.00000  Uiso   1.00
C1574  C     0.70473   0.27602   0.88598   0.00000  Uiso   1.00
C1575  C     0.70770   0.31688   0.85928   0.00000  Uiso   1.00
C1576  C     0.89784   0.28247   0.74561   0.00000  Uiso   1.00
C1577  C     0.93155   0.31985   0.73437   0.00000  Uiso   1.00
C1578  C     0.98548   0.30575   0.72497   0.00000  Uiso   1.00
C1579  C     0.92989   0.05390   0.91564   0.00000  Uiso   1.00
C1580  C     0.96163   0.04817   0.96303   0.00000  Uiso   1.00
C1581  C     0.68316   0.06712   0.96531   0.00000  Uiso   1.00
C1582  C     0.73385   0.16437   0.82148   0.00000  Uiso   1.00
C1583  C     0.93281   0.16739   0.84492   0.00000  Uiso   1.00
C1584  C     0.67891   0.15808   0.81614   0.00000  Uiso   1.00
C1585  C     0.98714   0.17441   0.84883   0.00000  Uiso   1.00
C1586  C     0.83989   0.02223   0.79264   0.00000  Uiso   1.00
C1587  C     0.85620   0.31105   0.87521   0.00000  Uiso   1.00
C1588  C     0.84498   0.31310   0.79176   0.00000  Uiso   1.00
H1589  H     0.83327   0.03902   0.76025   0.00000  Uiso   1.00
H1590  H     0.67492   0.20250   0.73883   0.00000  Uiso   1.00
H1591  H     0.69483   0.17572   0.99756   0.00000  Uiso   1.00
H1592  H     0.97635   0.21383   0.98995   0.00000  Uiso   1.00
H1593  H     0.96052   0.15926   0.98308   0.00000  Uiso   1.00
H1594  H     0.96193   0.25406   0.85505   0.00000  Uiso   1.00
H1595  H     0.68203   0.24343   0.82289   0.00000  Uiso   1.00
H1596  H     0.68869   0.28202   0.91832   0.00000  Uiso   1.00
H1597  H     0.74503   0.26358   0.89466   0.00000  Uiso   1.00
H1598  H     0.66777   0.32916   0.84775   0.00000  Uiso   1.00
H1599  H     0.72771   0.31188   0.82885   0.00000  Uiso   1.00
H1600  H     0.86291   0.29390   0.90738   0.00000  Uiso   1.00
H1601  H     0.73062   0.00695   0.88131   0.00000  Uiso   1.00
H1602  H     0.89563   0.26005   0.71701   0.00000  Uiso   1.00
H1603  H     0.91736   0.26568   0.77660   0.00000  Uiso   1.00
H1604  H     0.91130   0.00338   0.70386   0.00000  Uiso   1.00
H1605  H     0.93716   0.00834   0.76362   0.00000  Uiso   1.00
H1606  H     0.67241   0.28789   0.75467   0.00000  Uiso   1.00
H1607  H     0.67655   0.00011   0.71906   0.00000  Uiso   1.00
H1608  H     0.98157   0.28584   0.69415   0.00000  Uiso   1.00
H1609  H     0.92940   0.08751   0.90617   0.00000  Uiso   1.00
H1610  H     0.95068   0.03693   0.89077   0.00000  Uiso   1.00
H1611  H     0.79700   0.22579   0.70347   0.00000  Uiso   1.00
H1612  H     0.94105   0.06309   0.98915   0.00000  Uiso   1.00
H1613  H     0.96510   0.01428   0.97095   0.00000  Uiso   1.00
H1614  H     0.70548   0.05124   0.94106   0.00000  Uiso   1.00
H1615  H     0.70461   0.06326   0.66714   0.00000  Uiso   1.00
H1616  H     0.68078   0.10091   0.95667   0.00000  Uiso   1.00
H1617  H     0.86760   0.10701   0.96308   0.00000  Uiso   1.00
H1618  H     0.79791   0.22613   0.95290   0.00000  Uiso   1.00
H1619  H     0.86827   0.10698   0.71383   0.00000  Uiso   1.00
H1620  H     0.96988   0.11218   0.71882   0.00000  Uiso   1.00
H1621  H     0.70285   0.12528   0.73454   0.00000  Uiso   1.00
H1622  H     0.94111   0.18624   0.72506   0.00000  Uiso   1.00
N1623  N     0.83332   0.16666   0.95240   0.00000  Uiso   1.00
N1624  N     0.83335   0.16668   0.71427   0.00000  Uiso   1.00
O1625  O     0.83333   0.10558   0.87154   0.00000  Uiso   1.00
O1626  O     0.67625   0.20431   0.87953   0.00000  Uiso   1.00
O1627  O     0.84576   0.29440   0.74980   0.00000  Uiso   1.00
O1628  O     0.87762   0.03992   0.91668   0.00000  Uiso   1.00
O1629  O     0.83334   0.22775   0.79513   0.00000  Uiso   1.00
O1630  O     0.83333   0.10559   0.79510   0.00000  Uiso   1.00
O1631  O     0.83334   0.22774   0.87157   0.00000  Uiso   1.00
O1632  O     0.75725   0.16666   0.86261   0.00000  Uiso   1.00
O1633  O     0.90942   0.16667   0.80405   0.00000  Uiso   1.00
O1634  O     0.75725   0.16667   0.78617   0.00000  Uiso   1.00
O1635  O     0.90942   0.16666   0.88050   0.00000  Uiso   1.00
O1636  O     0.98752   0.12839   0.78575   0.00000  Uiso   1.00
Zn1637 Zn    0.83333   0.16666   0.88437   0.00000  Uiso   1.00
Zn1638 Zn    0.83333   0.16667   0.78229   0.00000  Uiso   1.00
C1639  C     0.16985   0.41999   0.83390   0.00000  Uiso   1.00
C1640  C     0.19268   0.35391   0.87585   0.00000  Uiso   1.00
C1641  C     0.17915   0.62403   0.83326   0.00000  Uiso   1.00
C1642  C     0.17804   0.37598   0.83458   0.00000  Uiso   1.00
C1643  C     0.14664   0.53290   0.68774   0.00000  Uiso   1.00
C1644  C     0.18573   0.46680   0.97888   0.00000  Uiso   1.00
C1645  C     0.14693   0.53301   0.97318   0.00000  Uiso   1.00
C1646  C     0.18590   0.46681   0.69347   0.00000  Uiso   1.00
C1647  C     0.32934   0.46789   0.73961   0.00000  Uiso   1.00
C1648  C     0.31532   0.51207   0.72043   0.00000  Uiso   1.00
C1649  C     0.32045   0.51529   0.66960   0.00000  Uiso   1.00
C1650  C     0.17015   0.58002   0.83336   0.00000  Uiso   1.00
C1651  C     0.00355   0.57733   0.85782   0.00000  Uiso   1.00
C1652  C     0.03807   0.60935   0.88598   0.00000  Uiso   1.00
C1653  C     0.04104   0.65022   0.85928   0.00000  Uiso   1.00
C1654  C     0.23118   0.61580   0.74561   0.00000  Uiso   1.00
C1655  C     0.26489   0.65318   0.73437   0.00000  Uiso   1.00
C1656  C     0.31882   0.63909   0.72497   0.00000  Uiso   1.00
C1657  C     0.26323   0.38724   0.91564   0.00000  Uiso   1.00
C1658  C     0.29496   0.38150   0.96303   0.00000  Uiso   1.00
C1659  C     0.01650   0.40045   0.96531   0.00000  Uiso   1.00
C1660  C     0.06718   0.49770   0.82148   0.00000  Uiso   1.00
C1661  C     0.26615   0.50072   0.84492   0.00000  Uiso   1.00
C1662  C     0.01224   0.49142   0.81614   0.00000  Uiso   1.00
C1663  C     0.32048   0.50775   0.84883   0.00000  Uiso   1.00
C1664  C     0.17322   0.35556   0.79264   0.00000  Uiso   1.00
C1665  C     0.18953   0.64439   0.87521   0.00000  Uiso   1.00
C1666  C     0.17831   0.64643   0.79176   0.00000  Uiso   1.00
H1667  H     0.16660   0.37235   0.76025   0.00000  Uiso   1.00
H1668  H     0.00825   0.53583   0.73883   0.00000  Uiso   1.00
H1669  H     0.02817   0.50905   0.99756   0.00000  Uiso   1.00
H1670  H     0.30968   0.54717   0.98995   0.00000  Uiso   1.00
H1671  H     0.29385   0.49260   0.98308   0.00000  Uiso   1.00
H1672  H     0.29526   0.58740   0.85505   0.00000  Uiso   1.00
H1673  H     0.01536   0.57676   0.82289   0.00000  Uiso   1.00
H1674  H     0.02202   0.61536   0.91832   0.00000  Uiso   1.00
H1675  H     0.07836   0.59691   0.89466   0.00000  Uiso   1.00
H1676  H     0.00110   0.66249   0.84775   0.00000  Uiso   1.00
H1677  H     0.06104   0.64521   0.82885   0.00000  Uiso   1.00
H1678  H     0.19624   0.62723   0.90738   0.00000  Uiso   1.00
H1679  H     0.06396   0.34028   0.88131   0.00000  Uiso   1.00
H1680  H     0.22896   0.59338   0.71701   0.00000  Uiso   1.00
H1681  H     0.25069   0.59901   0.77660   0.00000  Uiso   1.00
H1682  H     0.24463   0.33671   0.70386   0.00000  Uiso   1.00
H1683  H     0.27049   0.34167   0.76362   0.00000  Uiso   1.00
H1684  H     0.00574   0.62122   0.75467   0.00000  Uiso   1.00
H1685  H     0.00988   0.33344   0.71906   0.00000  Uiso   1.00
H1686  H     0.31490   0.61917   0.69415   0.00000  Uiso   1.00
H1687  H     0.26274   0.42085   0.90617   0.00000  Uiso   1.00
H1688  H     0.28401   0.37026   0.89077   0.00000  Uiso   1.00
H1689  H     0.13034   0.55913   0.70347   0.00000  Uiso   1.00
H1690  H     0.27439   0.39642   0.98915   0.00000  Uiso   1.00
H1691  H     0.29843   0.34762   0.97095   0.00000  Uiso   1.00
H1692  H     0.03881   0.38458   0.94106   0.00000  Uiso   1.00
H1693  H     0.03794   0.39659   0.66714   0.00000  Uiso   1.00
H1694  H     0.01411   0.43425   0.95667   0.00000  Uiso   1.00
H1695  H     0.20093   0.44034   0.96308   0.00000  Uiso   1.00
H1696  H     0.13124   0.55946   0.95290   0.00000  Uiso   1.00
H1697  H     0.20160   0.44031   0.71383   0.00000  Uiso   1.00
H1698  H     0.30321   0.44551   0.71882   0.00000  Uiso   1.00
H1699  H     0.03618   0.45862   0.73454   0.00000  Uiso   1.00
H1700  H     0.27445   0.51957   0.72506   0.00000  Uiso   1.00
N1701  N     0.16665   0.49999   0.95240   0.00000  Uiso   1.00
N1702  N     0.16668   0.50001   0.71427   0.00000  Uiso   1.00
O1703  O     0.16666   0.43892   0.87154   0.00000  Uiso   1.00
O1704  O     0.00958   0.53765   0.87953   0.00000  Uiso   1.00
O1705  O     0.17909   0.62774   0.74980   0.00000  Uiso   1.00
O1706  O     0.21095   0.37325   0.91668   0.00000  Uiso   1.00
O1707  O     0.16667   0.56108   0.79513   0.00000  Uiso   1.00
O1708  O     0.16666   0.43893   0.79510   0.00000  Uiso   1.00
O1709  O     0.16667   0.56107   0.87157   0.00000  Uiso   1.00
O1710  O     0.09058   0.50000   0.86261   0.00000  Uiso   1.00
O1711  O     0.24275   0.50000   0.80405   0.00000  Uiso   1.00
O1712  O     0.09058   0.50000   0.78617   0.00000  Uiso   1.00
O1713  O     0.24275   0.50000   0.88050   0.00000  Uiso   1.00
O1714  O     0.32086   0.46172   0.78575   0.00000  Uiso   1.00
Zn1715 Zn    0.16667   0.49999   0.88437   0.00000  Uiso   1.00
Zn1716 Zn    0.16667   0.50001   0.78229   0.00000  Uiso   1.00
C1717  C     0.50319   0.41999   0.83390   0.00000  Uiso   1.00
C1718  C     0.52601   0.35391   0.87585   0.00000  Uiso   1.00
C1719  C     0.51249   0.62403   0.83326   0.00000  Uiso   1.00
C1720  C     0.51137   0.37598   0.83458   0.00000  Uiso   1.00
C1721  C     0.47997   0.53290   0.68774   0.00000  Uiso   1.00
C1722  C     0.51906   0.46680   0.97888   0.00000  Uiso   1.00
C1723  C     0.48026   0.53301   0.97318   0.00000  Uiso   1.00
C1724  C     0.51924   0.46681   0.69347   0.00000  Uiso   1.00
C1725  C     0.66268   0.46789   0.73961   0.00000  Uiso   1.00
C1726  C     0.64865   0.51207   0.72043   0.00000  Uiso   1.00
C1727  C     0.65378   0.51529   0.66960   0.00000  Uiso   1.00
C1728  C     0.50349   0.58002   0.83336   0.00000  Uiso   1.00
C1729  C     0.33689   0.57733   0.85782   0.00000  Uiso   1.00
C1730  C     0.37140   0.60935   0.88598   0.00000  Uiso   1.00
C1731  C     0.37437   0.65022   0.85928   0.00000  Uiso   1.00
C1732  C     0.56451   0.61580   0.74561   0.00000  Uiso   1.00
C1733  C     0.59822   0.65318   0.73437   0.00000  Uiso   1.00
C1734  C     0.65215   0.63909   0.72497   0.00000  Uiso   1.00
C1735  C     0.59656   0.38724   0.91564   0.00000  Uiso   1.00
C1736  C     0.62830   0.38150   0.96303   0.00000  Uiso   1.00
C1737  C     0.34983   0.40045   0.96531   0.00000  Uiso   1.00
C1738  C     0.40051   0.49770   0.82148   0.00000  Uiso   1.00
C1739  C     0.59948   0.50072   0.84492   0.00000  Uiso   1.00
C1740  C     0.34558   0.49142   0.81614   0.00000  Uiso   1.00
C1741  C     0.65381   0.50775   0.84883   0.00000  Uiso   1.00
C1742  C     0.50656   0.35556   0.79264   0.00000  Uiso   1.00
C1743  C     0.52287   0.64439   0.87521   0.00000  Uiso   1.00
C1744  C     0.51165   0.64643   0.79176   0.00000  Uiso   1.00
H1745  H     0.49993   0.37235   0.76025   0.00000  Uiso   1.00
H1746  H     0.34158   0.53583   0.73883   0.00000  Uiso   1.00
H1747  H     0.36150   0.50905   0.99756   0.00000  Uiso   1.00
H1748  H     0.64302   0.54717   0.98995   0.00000  Uiso   1.00
H1749  H     0.62718   0.49260   0.98308   0.00000  Uiso   1.00
H1750  H     0.62860   0.58740   0.85505   0.00000  Uiso   1.00
H1751  H     0.34870   0.57676   0.82289   0.00000  Uiso   1.00
H1752  H     0.35535   0.61536   0.91832   0.00000  Uiso   1.00
H1753  H     0.41169   0.59691   0.89466   0.00000  Uiso   1.00
H1754  H     0.33443   0.66249   0.84775   0.00000  Uiso   1.00
H1755  H     0.39438   0.64521   0.82885   0.00000  Uiso   1.00
H1756  H     0.52957   0.62723   0.90738   0.00000  Uiso   1.00
H1757  H     0.39729   0.34028   0.88131   0.00000  Uiso   1.00
H1758  H     0.56230   0.59338   0.71701   0.00000  Uiso   1.00
H1759  H     0.58403   0.59901   0.77660   0.00000  Uiso   1.00
H1760  H     0.57797   0.33671   0.70386   0.00000  Uiso   1.00
H1761  H     0.60383   0.34167   0.76362   0.00000  Uiso   1.00
H1762  H     0.33907   0.62122   0.75467   0.00000  Uiso   1.00
H1763  H     0.34322   0.33344   0.71906   0.00000  Uiso   1.00
H1764  H     0.64823   0.61917   0.69415   0.00000  Uiso   1.00
H1765  H     0.59607   0.42085   0.90617   0.00000  Uiso   1.00
H1766  H     0.61734   0.37026   0.89077   0.00000  Uiso   1.00
H1767  H     0.46367   0.55913   0.70347   0.00000  Uiso   1.00
H1768  H     0.60772   0.39642   0.98915   0.00000  Uiso   1.00
H1769  H     0.63177   0.34762   0.97095   0.00000  Uiso   1.00
H1770  H     0.37214   0.38458   0.94106   0.00000  Uiso   1.00
H1771  H     0.37128   0.39659   0.66714   0.00000  Uiso   1.00
H1772  H     0.34745   0.43425   0.95667   0.00000  Uiso   1.00
H1773  H     0.53426   0.44034   0.96308   0.00000  Uiso   1.00
H1774  H     0.46458   0.55946   0.95290   0.00000  Uiso   1.00
H1775  H     0.53494   0.44031   0.71383   0.00000  Uiso   1.00
H1776  H     0.63655   0.44551   0.71882   0.00000  Uiso   1.00
H1777  H     0.36951   0.45862   0.73454   0.00000  Uiso   1.00
H1778  H     0.60778   0.51957   0.72506   0.00000  Uiso   1.00
N1779  N     0.49999   0.49999   0.95240   0.00000  Uiso   1.00
N1780  N     0.50001   0.50001   0.71427   0.00000  Uiso   1.00
O1781  O     0.50000   0.43892   0.87154   0.00000  Uiso   1.00
O1782  O     0.34292   0.53765   0.87953   0.00000  Uiso   1.00
O1783  O     0.51242   0.62774   0.74980   0.00000  Uiso   1.00
O1784  O     0.54428   0.37325   0.91668   0.00000  Uiso   1.00
O1785  O     0.50000   0.56108   0.79513   0.00000  Uiso   1.00
O1786  O     0.50000   0.43893   0.79510   0.00000  Uiso   1.00
O1787  O     0.50000   0.56107   0.87157   0.00000  Uiso   1.00
O1788  O     0.42392   0.50000   0.86261   0.00000  Uiso   1.00
O1789  O     0.57608   0.50000   0.80405   0.00000  Uiso   1.00
O1790  O     0.42392   0.50000   0.78617   0.00000  Uiso   1.00
O1791  O     0.57608   0.50000   0.88050   0.00000  Uiso   1.00
O1792  O     0.65419   0.46172   0.78575   0.00000  Uiso   1.00
Zn1793 Zn    0.50000   0.49999   0.88437   0.00000  Uiso   1.00
Zn1794 Zn    0.50000   0.50001   0.78229   0.00000  Uiso   1.00
C1795  C     0.83652   0.41999   0.83390   0.00000  Uiso   1.00
C1796  C     0.85935   0.35391   0.87585   0.00000  Uiso   1.00
C1797  C     0.84582   0.62403   0.83326   0.00000  Uiso   1.00
C1798  C     0.84470   0.37598   0.83458   0.00000  Uiso   1.00
C1799  C     0.81330   0.53290   0.68774   0.00000  Uiso   1.00
C1800  C     0.85239   0.46680   0.97888   0.00000  Uiso   1.00
C1801  C     0.81360   0.53301   0.97318   0.00000  Uiso   1.00
C1802  C     0.85257   0.46681   0.69347   0.00000  Uiso   1.00
C1803  C     0.99601   0.46789   0.73961   0.00000  Uiso   1.00
C1804  C     0.98198   0.51207   0.72043   0.00000  Uiso   1.00
C1805  C     0.98712   0.51529   0.66960   0.00000  Uiso   1.00
C1806  C     0.83682   0.58002   0.83336   0.00000  Uiso   1.00
C1807  C     0.67022   0.57733   0.85782   0.00000  Uiso   1.00
C1808  C     0.70473   0.60935   0.88598   0.00000  Uiso   1.00
C1809  C     0.70770   0.65022   0.85928   0.00000  Uiso   1.00
C1810  C     0.89784   0.61580   0.74561   0.00000  Uiso   1.00
C1811  C     0.93155   0.65318   0.73437   0.00000  Uiso   1.00
C1812  C     0.98548   0.63909   0.72497   0.00000  Uiso   1.00
C1813  C     0.92989   0.38724   0.91564   0.00000  Uiso   1.00
C1814  C     0.96163   0.38150   0.96303   0.00000  Uiso   1.00
C1815  C     0.68316   0.40045   0.96531   0.00000  Uiso   1.00
C1816  C     0.73385   0.49770   0.82148   0.00000  Uiso   1.00
C1817  C     0.93281   0.50072   0.84492   0.00000  Uiso   1.00
C1818  C     0.67891   0.49142   0.81614   0.00000  Uiso   1.00
C1819  C     0.98714   0.50775   0.84883   0.00000  Uiso   1.00
C1820  C     0.83989   0.35556   0.79264   0.00000  Uiso   1.00
C1821  C     0.85620   0.64439   0.87521   0.00000  Uiso   1.00
C1822  C     0.84498   0.64643   0.79176   0.00000  Uiso   1.00
H1823  H     0.83327   0.37235   0.76025   0.00000  Uiso   1.00
H1824  H     0.67492   0.53583   0.73883   0.00000  Uiso   1.00
H1825  H     0.69483   0.50905   0.99756   0.00000  Uiso   1.00
H1826  H     0.97635   0.54717   0.98995   0.00000  Uiso   1.00
H1827  H     0.96052   0.49260   0.98308   0.00000  Uiso   1.00
H1828  H     0.96193   0.58740   0.85505   0.00000  Uiso   1.00
H1829  H     0.68203   0.57676   0.82289   0.00000  Uiso   1.00
H1830  H     0.68869   0.61536   0.91832   0.00000  Uiso   1.00
H1831  H     0.74503   0.59691   0.89466   0.00000  Uiso   1.00
H1832  H     0.66777   0.66249   0.84775   0.00000  Uiso   1.00
H1833  H     0.72771   0.64521   0.82885   0.00000  Uiso   1.00
H1834  H     0.86291   0.62723   0.90738   0.00000  Uiso   1.00
H1835  H     0.73062   0.34028   0.88131   0.00000  Uiso   1.00
H1836  H     0.89563   0.59338   0.71701   0.00000  Uiso   1.00
H1837  H     0.91736   0.59901   0.77660   0.00000  Uiso   1.00
H1838  H     0.91130   0.33671   0.70386   0.00000  Uiso   1.00
H1839  H     0.93716   0.34167   0.76362   0.00000  Uiso   1.00
H1840  H     0.67241   0.62122   0.75467   0.00000  Uiso   1.00
H1841  H     0.67655   0.33344   0.71906   0.00000  Uiso   1.00
H1842  H     0.98157   0.61917   0.69415   0.00000  Uiso   1.00
H1843  H     0.92940   0.42085   0.90617   0.00000  Uiso   1.00
H1844  H     0.95068   0.37026   0.89077   0.00000  Uiso   1.00
H1845  H     0.79700   0.55913   0.70347   0.00000  Uiso   1.00
H1846  H     0.94105   0.39642   0.98915   0.00000  Uiso   1.00
H1847  H     0.96510   0.34762   0.97095   0.00000  Uiso   1.00
H1848  H     0.70548   0.38458   0.94106   0.00000  Uiso   1.00
H1849  H     0.70461   0.39659   0.66714   0.00000  Uiso   1.00
H1850  H     0.68078   0.43425   0.95667   0.00000  Uiso   1.00
H1851  H     0.86760   0.44034   0.96308   0.00000  Uiso   1.00
H1852  H     0.79791   0.55946   0.95290   0.00000  Uiso   1.00
H1853  H     0.86827   0.44031   0.71383   0.00000  Uiso   1.00
H1854  H     0.96988   0.44551   0.71882   0.00000  Uiso   1.00
H1855  H     0.70285   0.45862   0.73454   0.00000  Uiso   1.00
H1856  H     0.94111   0.51957   0.72506   0.00000  Uiso   1.00
N1857  N     0.83332   0.49999   0.95240   0.00000  Uiso   1.00
N1858  N     0.83335   0.50001   0.71427   0.00000  Uiso   1.00
O1859  O     0.83333   0.43892   0.87154   0.00000  Uiso   1.00
O1860  O     0.67625   0.53765   0.87953   0.00000  Uiso   1.00
O1861  O     0.84576   0.62774   0.74980   0.00000  Uiso   1.00
O1862  O     0.87762   0.37325   0.91668   0.00000  Uiso   1.00
O1863  O     0.83334   0.56108   0.79513   0.00000  Uiso   1.00
O1864  O     0.83333   0.43893   0.79510   0.00000  Uiso   1.00
O1865  O     0.83334   0.56107   0.87157   0.00000  Uiso   1.00
O1866  O     0.75725   0.50000   0.86261   0.00000  Uiso   1.00
O1867  O     0.90942   0.50000   0.80405   0.00000  Uiso   1.00
O1868  O     0.75725   0.50000   0.78617   0.00000  Uiso   1.00
O1869  O     0.90942   0.50000   0.88050   0.00000  Uiso   1.00
O1870  O     0.98752   0.46172   0.78575   0.00000  Uiso   1.00
Zn1871 Zn    0.83333   0.49999   0.88437   0.00000  Uiso   1.00
Zn1872 Zn    0.83333   0.50001   0.78229   0.00000  Uiso   1.00
C1873  C     0.16985   0.75332   0.83390   0.00000  Uiso   1.00
C1874  C     0.19268   0.68724   0.87585   0.00000  Uiso   1.00
C1875  C     0.17915   0.95737   0.83326   0.00000  Uiso   1.00
C1876  C     0.17804   0.70931   0.83458   0.00000  Uiso   1.00
C1877  C     0.14664   0.86624   0.68774   0.00000  Uiso   1.00
C1878  C     0.18573   0.80013   0.97888   0.00000  Uiso   1.00
C1879  C     0.14693   0.86634   0.97318   0.00000  Uiso   1.00
C1880  C     0.18590   0.80014   0.69347   0.00000  Uiso   1.00
C1881  C     0.32934   0.80123   0.73961   0.00000  Uiso   1.00
C1882  C     0.31532   0.84540   0.72043   0.00000  Uiso   1.00
C1883  C     0.32045   0.84862   0.66960   0.00000  Uiso   1.00
C1884  C     0.17015   0.91335   0.83336   0.00000  Uiso   1.00
C1885  C     0.00355   0.91066   0.85782   0.00000  Uiso   1.00
C1886  C     0.03807   0.94269   0.88598   0.00000  Uiso   1.00
C1887  C     0.04104   0.98355   0.85928   0.00000  Uiso   1.00
C1888  C     0.23118   0.94913   0.74561   0.00000  Uiso   1.00
C1889  C     0.26489   0.98652   0.73437   0.00000  Uiso   1.00
C1890  C     0.31882   0.97242   0.72497   0.00000  Uiso   1.00
C1891  C     0.26323   0.72057   0.91564   0.00000  Uiso   1.00
C1892  C     0.29496   0.71484   0.96303   0.00000  Uiso   1.00
C1893  C     0.01650   0.73378   0.96531   0.00000  Uiso   1.00
C1894  C     0.06718   0.83104   0.82148   0.00000  Uiso   1.00
C1895  C     0.26615   0.83406   0.84492   0.00000  Uiso   1.00
C1896  C     0.01224   0.82475   0.81614   0.00000  Uiso   1.00
C1897  C     0.32048   0.84108   0.84883   0.00000  Uiso   1.00
C1898  C     0.17322   0.68890   0.79264   0.00000  Uiso   1.00
C1899  C     0.18953   0.97772   0.87521   0.00000  Uiso   1.00
C1900  C     0.17831   0.97977   0.79176   0.00000  Uiso   1.00
H1901  H     0.16660   0.70568   0.76025   0.00000  Uiso   1.00
H1902  H     0.00825   0.86917   0.73883   0.00000  Uiso   1.00
H1903  H     0.02817   0.84239   0.99756   0.00000  Uiso   1.00
H1904  H     0.30968   0.88050   0.98995   0.00000  Uiso   1.00
H1905  H     0.29385   0.82593   0.98308   0.00000  Uiso   1.00
H1906  H     0.29526   0.92073   0.85505   0.00000  Uiso   1.00
H1907  H     0.01536   0.91010   0.82289   0.00000  Uiso   1.00
H1908  H     0.02202   0.94869   0.91832   0.00000  Uiso   1.00
H1909  H     0.07836   0.93025   0.89466   0.00000  Uiso   1.00
H1910  H     0.00110   0.99582   0.84775   0.00000  Uiso   1.00
H1911  H     0.06104   0.97855   0.82885   0.00000  Uiso   1.00
H1912  H     0.19624   0.96057   0.90738   0.00000  Uiso   1.00
H1913  H     0.06396   0.67362   0.88131   0.00000  Uiso   1.00
H1914  H     0.22896   0.92671   0.71701   0.00000  Uiso   1.00
H1915  H     0.25069   0.93235   0.77660   0.00000  Uiso   1.00
H1916  H     0.24463   0.67004   0.70386   0.00000  Uiso   1.00
H1917  H     0.27049   0.67500   0.76362   0.00000  Uiso   1.00
H1918  H     0.00574   0.95455   0.75467   0.00000  Uiso   1.00
H1919  H     0.00988   0.66678   0.71906   0.00000  Uiso   1.00
H1920  H     0.31490   0.95250   0.69415   0.00000  Uiso   1.00
H1921  H     0.26274   0.75418   0.90617   0.00000  Uiso   1.00
H1922  H     0.28401   0.70360   0.89077   0.00000  Uiso   1.00
H1923  H     0.13034   0.89246   0.70347   0.00000  Uiso   1.00
H1924  H     0.27439   0.72976   0.98915   0.00000  Uiso   1.00
H1925  H     0.29843   0.68095   0.97095   0.00000  Uiso   1.00
H1926  H     0.03881   0.71791   0.94106   0.00000  Uiso   1.00
H1927  H     0.03794   0.72992   0.66714   0.00000  Uiso   1.00
H1928  H     0.01411   0.76758   0.95667   0.00000  Uiso   1.00
H1929  H     0.20093   0.77367   0.96308   0.00000  Uiso   1.00
H1930  H     0.13124   0.89279   0.95290   0.00000  Uiso   1.00
H1931  H     0.20160   0.77365   0.71383   0.00000  Uiso   1.00
H1932  H     0.30321   0.77884   0.71882   0.00000  Uiso   1.00
H1933  H     0.03618   0.79195   0.73454   0.00000  Uiso   1.00
H1934  H     0.27445   0.85291   0.72506   0.00000  Uiso   1.00
N1935  N     0.16665   0.83332   0.95240   0.00000  Uiso   1.00
N1936  N     0.16668   0.83334   0.71427   0.00000  Uiso   1.00
O1937  O     0.16666   0.77225   0.87154   0.00000  Uiso   1.00
O1938  O     0.00958   0.87098   0.87953   0.00000  Uiso   1.00
O1939  O     0.17909   0.96107   0.74980   0.00000  Uiso   1.00
O1940  O     0.21095   0.70658   0.91668   0.00000  Uiso   1.00
O1941  O     0.16667   0.89442   0.79513   0.00000  Uiso   1.00
O1942  O     0.16666   0.77226   0.79510   0.00000  Uiso   1.00
O1943  O     0.16667   0.89441   0.87157   0.00000  Uiso   1.00
O1944  O     0.09058   0.83333   0.86261   0.00000  Uiso   1.00
O1945  O     0.24275   0.83334   0.80405   0.00000  Uiso   1.00
O1946  O     0.09058   0.83334   0.78617   0.00000  Uiso   1.00
O1947  O     0.24275   0.83333   0.88050   0.00000  Uiso   1.00
O1948  O     0.32086   0.79506   0.78575   0.00000  Uiso   1.00
Zn1949 Zn    0.16667   0.83333   0.88437   0.00000  Uiso   1.00
Zn1950 Zn    0.16667   0.83334   0.78229   0.00000  Uiso   1.00
C1951  C     0.50319   0.75332   0.83390   0.00000  Uiso   1.00
C1952  C     0.52601   0.68724   0.87585   0.00000  Uiso   1.00
C1953  C     0.51249   0.95737   0.83326   0.00000  Uiso   1.00
C1954  C     0.51137   0.70931   0.83458   0.00000  Uiso   1.00
C1955  C     0.47997   0.86624   0.68774   0.00000  Uiso   1.00
C1956  C     0.51906   0.80013   0.97888   0.00000  Uiso   1.00
C1957  C     0.48026   0.86634   0.97318   0.00000  Uiso   1.00
C1958  C     0.51924   0.80014   0.69347   0.00000  Uiso   1.00
C1959  C     0.66268   0.80123   0.73961   0.00000  Uiso   1.00
C1960  C     0.64865   0.84540   0.72043   0.00000  Uiso   1.00
C1961  C     0.65378   0.84862   0.66960   0.00000  Uiso   1.00
C1962  C     0.50349   0.91335   0.83336   0.00000  Uiso   1.00
C1963  C     0.33689   0.91066   0.85782   0.00000  Uiso   1.00
C1964  C     0.37140   0.94269   0.88598   0.00000  Uiso   1.00
C1965  C     0.37437   0.98355   0.85928   0.00000  Uiso   1.00
C1966  C     0.56451   0.94913   0.74561   0.00000  Uiso   1.00
C1967  C     0.59822   0.98652   0.73437   0.00000  Uiso   1.00
C1968  C     0.65215   0.97242   0.72497   0.00000  Uiso   1.00
C1969  C     0.59656   0.72057   0.91564   0.00000  Uiso   1.00
C1970  C     0.62830   0.71484   0.96303   0.00000  Uiso   1.00
C1971  C     0.34983   0.73378   0.96531   0.00000  Uiso   1.00
C1972  C     0.40051   0.83104   0.82148   0.00000  Uiso   1.00
C1973  C     0.59948   0.83406   0.84492   0.00000  Uiso   1.00
C1974  C     0.34558   0.82475   0.81614   0.00000  Uiso   1.00
C1975  C     0.65381   0.84108   0.84883   0.00000  Uiso   1.00
C1976  C     0.50656   0.68890   0.79264   0.00000  Uiso   1.00
C1977  C     0.52287   0.97772   0.87521   0.00000  Uiso   1.00
C1978  C     0.51165   0.97977   0.79176   0.00000  Uiso   1.00
H1979  H     0.49993   0.70568   0.76025   0.00000  Uiso   1.00
H1980  H     0.34158   0.86917   0.73883   0.00000  Uiso   1.00
H1981  H     0.36150   0.84239   0.99756   0.00000  Uiso   1.00
H1982  H     0.64302   0.88050   0.98995   0.00000  Uiso   1.00
H1983  H     0.62718   0.82593   0.98308   0.00000  Uiso   1.00
H1984  H     0.62860   0.92073   0.85505   0.00000  Uiso   1.00
H1985  H     0.34870   0.91010   0.82289   0.00000  Uiso   1.00
H1986  H     0.35535   0.94869   0.91832   0.00000  Uiso   1.00
H1987  H     0.41169   0.93025   0.89466   0.00000  Uiso   1.00
H1988  H     0.33443   0.99582   0.84775   0.00000  Uiso   1.00
H1989  H     0.39438   0.97855   0.82885   0.00000  Uiso   1.00
H1990  H     0.52957   0.96057   0.90738   0.00000  Uiso   1.00
H1991  H     0.39729   0.67362   0.88131   0.00000  Uiso   1.00
H1992  H     0.56230   0.92671   0.71701   0.00000  Uiso   1.00
H1993  H     0.58403   0.93235   0.77660   0.00000  Uiso   1.00
H1994  H     0.57797   0.67004   0.70386   0.00000  Uiso   1.00
H1995  H     0.60383   0.67500   0.76362   0.00000  Uiso   1.00
H1996  H     0.33907   0.95455   0.75467   0.00000  Uiso   1.00
H1997  H     0.34322   0.66678   0.71906   0.00000  Uiso   1.00
H1998  H     0.64823   0.95250   0.69415   0.00000  Uiso   1.00
H1999  H     0.59607   0.75418   0.90617   0.00000  Uiso   1.00
H2000  H     0.61734   0.70360   0.89077   0.00000  Uiso   1.00
H2001  H     0.46367   0.89246   0.70347   0.00000  Uiso   1.00
H2002  H     0.60772   0.72976   0.98915   0.00000  Uiso   1.00
H2003  H     0.63177   0.68095   0.97095   0.00000  Uiso   1.00
H2004  H     0.37214   0.71791   0.94106   0.00000  Uiso   1.00
H2005  H     0.37128   0.72992   0.66714   0.00000  Uiso   1.00
H2006  H     0.34745   0.76758   0.95667   0.00000  Uiso   1.00
H2007  H     0.53426   0.77367   0.96308   0.00000  Uiso   1.00
H2008  H     0.46458   0.89279   0.95290   0.00000  Uiso   1.00
H2009  H     0.53494   0.77365   0.71383   0.00000  Uiso   1.00
H2010  H     0.63655   0.77884   0.71882   0.00000  Uiso   1.00
H2011  H     0.36951   0.79195   0.73454   0.00000  Uiso   1.00
H2012  H     0.60778   0.85291   0.72506   0.00000  Uiso   1.00
N2013  N     0.49999   0.83332   0.95240   0.00000  Uiso   1.00
N2014  N     0.50001   0.83334   0.71427   0.00000  Uiso   1.00
O2015  O     0.50000   0.77225   0.87154   0.00000  Uiso   1.00
O2016  O     0.34292   0.87098   0.87953   0.00000  Uiso   1.00
O2017  O     0.51242   0.96107   0.74980   0.00000  Uiso   1.00
O2018  O     0.54428   0.70658   0.91668   0.00000  Uiso   1.00
O2019  O     0.50000   0.89442   0.79513   0.00000  Uiso   1.00
O2020  O     0.50000   0.77226   0.79510   0.00000  Uiso   1.00
O2021  O     0.50000   0.89441   0.87157   0.00000  Uiso   1.00
O2022  O     0.42392   0.83333   0.86261   0.00000  Uiso   1.00
O2023  O     0.57608   0.83334   0.80405   0.00000  Uiso   1.00
O2024  O     0.42392   0.83334   0.78617   0.00000  Uiso   1.00
O2025  O     0.57608   0.83333   0.88050   0.00000  Uiso   1.00
O2026  O     0.65419   0.79506   0.78575   0.00000  Uiso   1.00
Zn2027 Zn    0.50000   0.83333   0.88437   0.00000  Uiso   1.00
Zn2028 Zn    0.50000   0.83334   0.78229   0.00000  Uiso   1.00
C2029  C     0.83652   0.75332   0.83390   0.00000  Uiso   1.00
C2030  C     0.85935   0.68724   0.87585   0.00000  Uiso   1.00
C2031  C     0.84582   0.95737   0.83326   0.00000  Uiso   1.00
C2032  C     0.84470   0.70931   0.83458   0.00000  Uiso   1.00
C2033  C     0.81330   0.86624   0.68774   0.00000  Uiso   1.00
C2034  C     0.85239   0.80013   0.97888   0.00000  Uiso   1.00
C2035  C     0.81360   0.86634   0.97318   0.00000  Uiso   1.00
C2036  C     0.85257   0.80014   0.69347   0.00000  Uiso   1.00
C2037  C     0.99601   0.80123   0.73961   0.00000  Uiso   1.00
C2038  C     0.98198   0.84540   0.72043   0.00000  Uiso   1.00
C2039  C     0.98712   0.84862   0.66960   0.00000  Uiso   1.00
C2040  C     0.83682   0.91335   0.83336   0.00000  Uiso   1.00
C2041  C     0.67022   0.91066   0.85782   0.00000  Uiso   1.00
C2042  C     0.70473   0.94269   0.88598   0.00000  Uiso   1.00
C2043  C     0.70770   0.98355   0.85928   0.00000  Uiso   1.00
C2044  C     0.89784   0.94913   0.74561   0.00000  Uiso   1.00
C2045  C     0.93155   0.98652   0.73437   0.00000  Uiso   1.00
C2046  C     0.98548   0.97242   0.72497   0.00000  Uiso   1.00
C2047  C     0.92989   0.72057   0.91564   0.00000  Uiso   1.00
C2048  C     0.96163   0.71484   0.96303   0.00000  Uiso   1.00
C2049  C     0.68316   0.73378   0.96531   0.00000  Uiso   1.00
C2050  C     0.73385   0.83104   0.82148   0.00000  Uiso   1.00
C2051  C     0.93281   0.83406   0.84492   0.00000  Uiso   1.00
C2052  C     0.67891   0.82475   0.81614   0.00000  Uiso   1.00
C2053  C     0.98714   0.84108   0.84883   0.00000  Uiso   1.00
C2054  C     0.83989   0.68890   0.79264   0.00000  Uiso   1.00
C2055  C     0.85620   0.97772   0.87521   0.00000  Uiso   1.00
C2056  C     0.84498   0.97977   0.79176   0.00000  Uiso   1.00
H2057  H     0.83327   0.70568   0.76025   0.00000  Uiso   1.00
H2058  H     0.67492   0.86917   0.73883   0.00000  Uiso   1.00
H2059  H     0.69483   0.84239   0.99756   0.00000  Uiso   1.00
H2060  H     0.97635   0.88050   0.98995   0.00000  Uiso   1.00
H2061  H     0.96052   0.82593   0.98308   0.00000  Uiso   1.00
H2062  H     0.96193   0.92073   0.85505   0.00000  Uiso   1.00
H2063  H     0.68203   0.91010   0.82289   0.00000  Uiso   1.00
H2064  H     0.68869   0.94869   0.91832   0.00000  Uiso   1.00
H2065  H     0.74503   0.93025   0.89466   0.00000  Uiso   1.00
H2066  H     0.66777   0.99582   0.84775   0.00000  Uiso   1.00
H2067  H     0.72771   0.97855   0.82885   0.00000  Uiso   1.00
H2068  H     0.86291   0.96057   0.90738   0.00000  Uiso   1.00
H2069  H     0.73062   0.67362   0.88131   0.00000  Uiso   1.00
H2070  H     0.89563   0.92671   0.71701   0.00000  Uiso   1.00
H2071  H     0.91736   0.93235   0.77660   0.00000  Uiso   1.00
H2072  H     0.91130   0.67004   0.70386   0.00000  Uiso   1.00
H2073  H     0.93716   0.67500   0.76362   0.00000  Uiso   1.00
H2074  H     0.67241   0.95455   0.75467   0.00000  Uiso   1.00
H2075  H     0.67655   0.66678   0.71906   0.00000  Uiso   1.00
H2076  H     0.98157   0.95250   0.69415   0.00000  Uiso   1.00
H2077  H     0.92940   0.75418   0.90617   0.00000  Uiso   1.00
H2078  H     0.95068   0.70360   0.89077   0.00000  Uiso   1.00
H2079  H     0.79700   0.89246   0.70347   0.00000  Uiso   1.00
H2080  H     0.94105   0.72976   0.98915   0.00000  Uiso   1.00
H2081  H     0.96510   0.68095   0.97095   0.00000  Uiso   1.00
H2082  H     0.70548   0.71791   0.94106   0.00000  Uiso   1.00
H2083  H     0.70461   0.72992   0.66714   0.00000  Uiso   1.00
H2084  H     0.68078   0.76758   0.95667   0.00000  Uiso   1.00
H2085  H     0.86760   0.77367   0.96308   0.00000  Uiso   1.00
H2086  H     0.79791   0.89279   0.95290   0.00000  Uiso   1.00
H2087  H     0.86827   0.77365   0.71383   0.00000  Uiso   1.00
H2088  H     0.96988   0.77884   0.71882   0.00000  Uiso   1.00
H2089  H     0.70285   0.79195   0.73454   0.00000  Uiso   1.00
H2090  H     0.94111   0.85291   0.72506   0.00000  Uiso   1.00
N2091  N     0.83332   0.83332   0.95240   0.00000  Uiso   1.00
N2092  N     0.83335   0.83334   0.71427   0.00000  Uiso   1.00
O2093  O     0.83333   0.77225   0.87154   0.00000  Uiso   1.00
O2094  O     0.67625   0.87098   0.87953   0.00000  Uiso   1.00
O2095  O     0.84576   0.96107   0.74980   0.00000  Uiso   1.00
O2096  O     0.87762   0.70658   0.91668   0.00000  Uiso   1.00
O2097  O     0.83334   0.89442   0.79513   0.00000  Uiso   1.00
O2098  O     0.83333   0.77226   0.79510   0.00000  Uiso   1.00
O2099  O     0.83334   0.89441   0.87157   0.00000  Uiso   1.00
O2100  O     0.75725   0.83333   0.86261   0.00000  Uiso   1.00
O2101  O     0.90942   0.83334   0.80405   0.00000  Uiso   1.00
O2102  O     0.75725   0.83334   0.78617   0.00000  Uiso   1.00
O2103  O     0.90942   0.83333   0.88050   0.00000  Uiso   1.00
O2104  O     0.98752   0.79506   0.78575   0.00000  Uiso   1.00
Zn2105 Zn    0.83333   0.83333   0.88437   0.00000  Uiso   1.00
Zn2106 Zn    0.83333   0.83334   0.78229   0.00000  Uiso   1.00
loop_
_geom_bond_atom_site_label_1
_geom_bond_atom_site_label_2
_geom_bond_distance
_geom_bond_site_symmetry_2
_ccdc_geom_bond_type
C1     C4      1.428   .     S
C1     O65     1.286   .     A
C1     O70     1.282   .     A
C2     C4      1.407   .     A
C2     O68     1.383   .     S
C2     C495    1.376   1_545 S
C3     C27     1.398   .     A
C3     C28     1.410   .     A
C3     C12     1.428   .     S
C4     C26     1.397   .     A
C5     H51     1.081   .     S
C5     N64     1.365   .     A
C5     C1411   1.414   1_554 S
C6     N63     1.365   .     A
C6     H57     1.076   .     S
C6     C710    1.414   .     S
C7     H58     1.079   .     S
C7     N63     1.366   .     A
C7     C707    1.414   .     S
C8     H59     1.081   .     S
C8     N64     1.366   .     A
C8     C1410   1.414   1_554 S
C9     O76     1.421   .     S
C9     C10     1.545   .     S
C9     H60     1.110   .     S
C9     H139    1.109   .     S
C10    H62     1.109   .     S
C10    C11     1.527   .     S
C10    H108    1.110   .     S
C11    H1513   1.111   1_554 S
C11    H1436   1.110   1_554 S
C11    H1437   1.110   1_554 S
C12    O69     1.280   .     A
C12    O71     1.288   .     A
C13    C14     1.528   .     S
C13    H35     1.116   .     S
C13    O66     1.417   .     S
C13    H190    1.113   1_455 S
C14    H37     1.109   .     S
C14    H36     1.112   .     S
C14    C15     1.527   .     S
C15    H38     1.110   .     S
C15    H39     1.111   .     S
C15    H275    1.109   .     S
C16    H42     1.110   .     S
C16    O67     1.420   .     S
C16    H43     1.114   .     S
C16    C17     1.535   .     S
C17    C18     1.527   .     S
C17    H278    1.111   .     S
C17    H279    1.111   .     S
C18    H48     1.110   .     S
C18    H124    1.109   .     S
C18    H359    1.110   .     S
C19    O68     1.420   .     S
C19    H49     1.109   .     S
C19    C20     1.526   .     S
C19    H50     1.117   .     S
C20    H52     1.110   .     S
C20    H53     1.110   .     S
C20    C99     1.527   .     S
C21    H56     1.110   .     S
C21    H54     1.109   .     S
C21    C176    1.527   1_455 S
C21    H757    1.110   .     S
C22    O72     1.279   .     A
C22    C24     1.414   .     S
C22    O74     1.277   .     A
C23    O73     1.270   .     A
C23    C25     1.404   .     S
C23    O75     1.282   .     A
C24    C181    1.348   1_455 S
C24    O232    1.403   1_455 S
C25    C102    1.348   .     S
C25    O144    1.393   .     S
C26    H29     1.084   .     S
C26    C496    1.370   1_545 S
C27    H40     1.084   .     S
C27    C236    1.376   .     S
C28    O67     1.385   .     S
C28    C260    1.370   .     S
H30    C166    1.110   1_455 S
H31    C869    1.111   1_455 S
H32    C713    1.110   .     S
H33    C713    1.110   .     S
H34    C91     1.113   .     S
H41    C483    1.109   1_545 S
H44    C485    1.111   1_545 S
H45    C485    1.111   1_545 S
H46    C174    1.109   1_455 S
H47    C642    1.110   1_445 S
H55    C1425   1.110   1_554 S
H61    C165    1.109   1_455 S
N63    Zn77    2.008   .     S
N64    Zn78    2.008   .     S
O65    Zn77    1.999   .     S
O66    C181    1.393   1_455 S
O69    Zn78    1.999   .     S
O70    Zn78    1.990   .     S
O71    Zn77    1.990   .     S
O72    Zn77    1.974   .     S
O73    Zn78    1.974   .     S
O74    Zn78    1.979   .     S
O75    Zn77    1.979   .     S
O76    C102    1.403   .     S
C79    C82     1.428   .     S
C79    O143    1.286   .     A
C79    O148    1.282   .     A
C80    C82     1.407   .     A
C80    O146    1.383   .     S
C80    C573    1.376   1_545 S
C81    C105    1.398   .     A
C81    C106    1.410   .     A
C81    C90     1.428   .     S
C82    C104    1.397   .     A
C83    H129    1.081   .     S
C83    N142    1.365   .     A
C83    C1489   1.414   1_554 S
C84    N141    1.365   .     A
C84    H135    1.076   .     S
C84    C788    1.414   .     S
C85    H136    1.079   .     S
C85    N141    1.366   .     A
C85    C785    1.414   .     S
C86    H137    1.081   .     S
C86    N142    1.366   .     A
C86    C1488   1.414   1_554 S
C87    O154    1.421   .     S
C87    C88     1.545   .     S
C87    H138    1.110   .     S
C87    H217    1.109   .     S
C88    H140    1.109   .     S
C88    C89     1.527   .     S
C88    H186    1.110   .     S
C89    H1591   1.111   1_554 S
C89    H1514   1.110   1_554 S
C89    H1515   1.110   1_554 S
C90    O147    1.280   .     A
C90    O149    1.288   .     A
C91    C92     1.528   .     S
C91    H113    1.116   .     S
C91    O144    1.417   .     S
C92    H115    1.109   .     S
C92    H114    1.112   .     S
C92    C93     1.527   .     S
C93    H116    1.110   .     S
C93    H117    1.111   .     S
C93    H353    1.109   .     S
C94    H120    1.110   .     S
C94    O145    1.420   .     S
C94    H121    1.114   .     S
C94    C95     1.535   .     S
C95    C96     1.527   .     S
C95    H356    1.111   .     S
C95    H357    1.111   .     S
C96    H126    1.110   .     S
C96    H202    1.109   .     S
C96    H437    1.110   .     S
C97    O146    1.420   .     S
C97    H127    1.109   .     S
C97    C98     1.526   .     S
C97    H128    1.117   .     S
C98    H130    1.110   .     S
C98    H131    1.110   .     S
C98    C177    1.527   .     S
C99    H134    1.110   .     S
C99    H132    1.109   .     S
C99    H835    1.110   .     S
C100   O150    1.279   .     A
C100   C102    1.414   .     S
C100   O152    1.277   .     A
C101   O151    1.270   .     A
C101   C103    1.404   .     S
C101   O153    1.282   .     A
C103   C180    1.348   .     S
C103   O222    1.393   .     S
C104   H107    1.084   .     S
C104   C574    1.370   1_545 S
C105   H118    1.084   .     S
C105   C314    1.376   .     S
C106   O145    1.385   .     S
C106   C338    1.370   .     S
H109   C713    1.111   .     S
H110   C791    1.110   .     S
H111   C791    1.110   .     S
H112   C169    1.113   .     S
H119   C561    1.109   1_545 S
H122   C563    1.111   1_545 S
H123   C563    1.111   1_545 S
H125   C486    1.110   1_545 S
H133   C1503   1.110   1_554 S
N141   Zn155   2.008   .     S
N142   Zn156   2.008   .     S
O143   Zn155   1.999   .     S
O147   Zn156   1.999   .     S
O148   Zn156   1.990   .     S
O149   Zn155   1.990   .     S
O150   Zn155   1.974   .     S
O151   Zn156   1.974   .     S
O152   Zn156   1.979   .     S
O153   Zn155   1.979   .     S
O154   C180    1.403   .     S
C157   C160    1.428   .     S
C157   O221    1.286   .     A
C157   O226    1.282   .     A
C158   C160    1.407   .     A
C158   O224    1.383   .     S
C158   C651    1.376   1_545 S
C159   C183    1.398   .     A
C159   C184    1.410   .     A
C159   C168    1.428   .     S
C160   C182    1.397   .     A
C161   H207    1.081   .     S
C161   N220    1.365   .     A
C161   C1567   1.414   1_554 S
C162   N219    1.365   .     A
C162   H213    1.076   .     S
C162   C866    1.414   .     S
C163   H214    1.079   .     S
C163   N219    1.366   .     A
C163   C863    1.414   .     S
C164   H215    1.081   .     S
C164   N220    1.366   .     A
C164   C1566   1.414   1_554 S
C165   O232    1.421   .     S
C165   C166    1.545   .     S
C165   H216    1.110   .     S
C165   H61     1.109   1_655 S
C166   H218    1.109   .     S
C166   C167    1.527   .     S
C166   H30     1.110   1_655 S
C167   H1435   1.111   1_654 S
C167   H1592   1.110   1_554 S
C167   H1593   1.110   1_554 S
C168   O225    1.280   .     A
C168   O227    1.288   .     A
C169   C170    1.528   .     S
C169   H191    1.116   .     S
C169   O222    1.417   .     S
C170   H193    1.109   .     S
C170   H192    1.112   .     S
C170   C171    1.527   .     S
C171   H194    1.110   .     S
C171   H195    1.111   .     S
C171   H431    1.109   .     S
C172   H198    1.110   .     S
C172   O223    1.420   .     S
C172   H199    1.114   .     S
C172   C173    1.535   .     S
C173   C174    1.527   .     S
C173   H434    1.111   .     S
C173   H435    1.111   .     S
C174   H204    1.110   .     S
C174   H46     1.109   1_655 S
C174   H281    1.110   1_655 S
C175   O224    1.420   .     S
C175   H205    1.109   .     S
C175   C176    1.526   .     S
C175   H206    1.117   .     S
C176   H208    1.110   .     S
C176   H209    1.110   .     S
C176   C21     1.527   1_655 S
C177   H212    1.110   .     S
C177   H210    1.109   .     S
C177   H913    1.110   .     S
C178   O228    1.279   .     A
C178   C180    1.414   .     S
C178   O230    1.277   .     A
C179   O229    1.270   .     A
C179   C181    1.404   .     S
C179   O231    1.282   .     A
C181   C24     1.348   1_655 S
C181   O66     1.393   1_655 S
C182   H185    1.084   .     S
C182   C652    1.370   1_545 S
C183   H196    1.084   .     S
C183   C392    1.376   .     S
C184   O223    1.385   .     S
C184   C416    1.370   .     S
H187   C791    1.111   .     S
H188   C869    1.110   .     S
H189   C869    1.110   .     S
H190   C13     1.113   1_655 S
H197   C639    1.109   1_545 S
H200   C641    1.111   1_545 S
H201   C641    1.111   1_545 S
H203   C564    1.110   1_545 S
H211   C1581   1.110   1_554 S
N219   Zn233   2.008   .     S
N220   Zn234   2.008   .     S
O221   Zn233   1.999   .     S
O225   Zn234   1.999   .     S
O226   Zn234   1.990   .     S
O227   Zn233   1.990   .     S
O228   Zn233   1.974   .     S
O229   Zn234   1.974   .     S
O230   Zn234   1.979   .     S
O231   Zn233   1.979   .     S
O232   C24     1.403   1_655 S
C235   C238    1.428   .     S
C235   O299    1.286   .     A
C235   O304    1.282   .     A
C236   C238    1.407   .     A
C236   O302    1.383   .     S
C237   C261    1.398   .     A
C237   C262    1.410   .     A
C237   C246    1.428   .     S
C238   C260    1.397   .     A
C239   H285    1.081   .     S
C239   N298    1.365   .     A
C239   C1645   1.414   1_554 S
C240   N297    1.365   .     A
C240   H291    1.076   .     S
C240   C944    1.414   .     S
C241   H292    1.079   .     S
C241   N297    1.366   .     A
C241   C941    1.414   .     S
C242   H293    1.081   .     S
C242   N298    1.366   .     A
C242   C1644   1.414   1_554 S
C243   O310    1.421   .     S
C243   C244    1.545   .     S
C243   H294    1.110   .     S
C243   H373    1.109   .     S
C244   H296    1.109   .     S
C244   C245    1.527   .     S
C244   H342    1.110   .     S
C245   H1747   1.111   1_554 S
C245   H1670   1.110   1_554 S
C245   H1671   1.110   1_554 S
C246   O303    1.280   .     A
C246   O305    1.288   .     A
C247   C248    1.528   .     S
C247   H269    1.116   .     S
C247   O300    1.417   .     S
C247   H424    1.113   1_455 S
C248   H271    1.109   .     S
C248   H270    1.112   .     S
C248   C249    1.527   .     S
C249   H272    1.110   .     S
C249   H273    1.111   .     S
C249   H509    1.109   .     S
C250   H276    1.110   .     S
C250   O301    1.420   .     S
C250   H277    1.114   .     S
C250   C251    1.535   .     S
C251   C252    1.527   .     S
C251   H512    1.111   .     S
C251   H513    1.111   .     S
C252   H282    1.110   .     S
C252   H358    1.109   .     S
C252   H593    1.110   .     S
C253   O302    1.420   .     S
C253   H283    1.109   .     S
C253   C254    1.526   .     S
C253   H284    1.117   .     S
C254   H286    1.110   .     S
C254   H287    1.110   .     S
C254   C333    1.527   .     S
C255   H290    1.110   .     S
C255   H288    1.109   .     S
C255   C410    1.527   1_455 S
C255   H991    1.110   .     S
C256   O306    1.279   .     A
C256   C258    1.414   .     S
C256   O308    1.277   .     A
C257   O307    1.270   .     A
C257   C259    1.404   .     S
C257   O309    1.282   .     A
C258   C415    1.348   1_455 S
C258   O466    1.403   1_455 S
C259   C336    1.348   .     S
C259   O378    1.393   .     S
C260   H263    1.084   .     S
C261   H274    1.084   .     S
C261   C470    1.376   .     S
C262   O301    1.385   .     S
C262   C494    1.370   .     S
H264   C400    1.110   1_455 S
H265   C1103   1.111   1_455 S
H266   C947    1.110   .     S
H267   C947    1.110   .     S
H268   C325    1.113   .     S
H280   C408    1.109   1_455 S
H281   C174    1.110   1_455 S
H289   C1659   1.110   1_554 S
H295   C399    1.109   1_455 S
N297   Zn311   2.008   .     S
N298   Zn312   2.008   .     S
O299   Zn311   1.999   .     S
O300   C415    1.393   1_455 S
O303   Zn312   1.999   .     S
O304   Zn312   1.990   .     S
O305   Zn311   1.990   .     S
O306   Zn311   1.974   .     S
O307   Zn312   1.974   .     S
O308   Zn312   1.979   .     S
O309   Zn311   1.979   .     S
O310   C336    1.403   .     S
C313   C316    1.428   .     S
C313   O377    1.286   .     A
C313   O382    1.282   .     A
C314   C316    1.407   .     A
C314   O380    1.383   .     S
C315   C339    1.398   .     A
C315   C340    1.410   .     A
C315   C324    1.428   .     S
C316   C338    1.397   .     A
C317   H363    1.081   .     S
C317   N376    1.365   .     A
C317   C1723   1.414   1_554 S
C318   N375    1.365   .     A
C318   H369    1.076   .     S
C318   C1022   1.414   .     S
C319   H370    1.079   .     S
C319   N375    1.366   .     A
C319   C1019   1.414   .     S
C320   H371    1.081   .     S
C320   N376    1.366   .     A
C320   C1722   1.414   1_554 S
C321   O388    1.421   .     S
C321   C322    1.545   .     S
C321   H372    1.110   .     S
C321   H451    1.109   .     S
C322   H374    1.109   .     S
C322   C323    1.527   .     S
C322   H420    1.110   .     S
C323   H1825   1.111   1_554 S
C323   H1748   1.110   1_554 S
C323   H1749   1.110   1_554 S
C324   O381    1.280   .     A
C324   O383    1.288   .     A
C325   C326    1.528   .     S
C325   H347    1.116   .     S
C325   O378    1.417   .     S
C326   H349    1.109   .     S
C326   H348    1.112   .     S
C326   C327    1.527   .     S
C327   H350    1.110   .     S
C327   H351    1.111   .     S
C327   H587    1.109   .     S
C328   H354    1.110   .     S
C328   O379    1.420   .     S
C328   H355    1.114   .     S
C328   C329    1.535   .     S
C329   C330    1.527   .     S
C329   H590    1.111   .     S
C329   H591    1.111   .     S
C330   H360    1.110   .     S
C330   H436    1.109   .     S
C330   H671    1.110   .     S
C331   O380    1.420   .     S
C331   H361    1.109   .     S
C331   C332    1.526   .     S
C331   H362    1.117   .     S
C332   H364    1.110   .     S
C332   H365    1.110   .     S
C332   C411    1.527   .     S
C333   H368    1.110   .     S
C333   H366    1.109   .     S
C333   H1069   1.110   .     S
C334   O384    1.279   .     A
C334   C336    1.414   .     S
C334   O386    1.277   .     A
C335   O385    1.270   .     A
C335   C337    1.404   .     S
C335   O387    1.282   .     A
C337   C414    1.348   .     S
C337   O456    1.393   .     S
C338   H341    1.084   .     S
C339   H352    1.084   .     S
C339   C548    1.376   .     S
C340   O379    1.385   .     S
C340   C572    1.370   .     S
H343   C947    1.111   .     S
H344   C1025   1.110   .     S
H345   C1025   1.110   .     S
H346   C403    1.113   .     S
H367   C1737   1.110   1_554 S
N375   Zn389   2.008   .     S
N376   Zn390   2.008   .     S
O377   Zn389   1.999   .     S
O381   Zn390   1.999   .     S
O382   Zn390   1.990   .     S
O383   Zn389   1.990   .     S
O384   Zn389   1.974   .     S
O385   Zn390   1.974   .     S
O386   Zn390   1.979   .     S
O387   Zn389   1.979   .     S
O388   C414    1.403   .     S
C391   C394    1.428   .     S
C391   O455    1.286   .     A
C391   O460    1.282   .     A
C392   C394    1.407   .     A
C392   O458    1.383   .     S
C393   C417    1.398   .     A
C393   C418    1.410   .     A
C393   C402    1.428   .     S
C394   C416    1.397   .     A
C395   H441    1.081   .     S
C395   N454    1.365   .     A
C395   C1801   1.414   1_554 S
C396   N453    1.365   .     A
C396   H447    1.076   .     S
C396   C1100   1.414   .     S
C397   H448    1.079   .     S
C397   N453    1.366   .     A
C397   C1097   1.414   .     S
C398   H449    1.081   .     S
C398   N454    1.366   .     A
C398   C1800   1.414   1_554 S
C399   O466    1.421   .     S
C399   C400    1.545   .     S
C399   H450    1.110   .     S
C399   H295    1.109   1_655 S
C400   H452    1.109   .     S
C400   C401    1.527   .     S
C400   H264    1.110   1_655 S
C401   H1669   1.111   1_654 S
C401   H1826   1.110   1_554 S
C401   H1827   1.110   1_554 S
C402   O459    1.280   .     A
C402   O461    1.288   .     A
C403   C404    1.528   .     S
C403   H425    1.116   .     S
C403   O456    1.417   .     S
C404   H427    1.109   .     S
C404   H426    1.112   .     S
C404   C405    1.527   .     S
C405   H428    1.110   .     S
C405   H429    1.111   .     S
C405   H665    1.109   .     S
C406   H432    1.110   .     S
C406   O457    1.420   .     S
C406   H433    1.114   .     S
C406   C407    1.535   .     S
C407   C408    1.527   .     S
C407   H668    1.111   .     S
C407   H669    1.111   .     S
C408   H438    1.110   .     S
C408   H280    1.109   1_655 S
C408   H515    1.110   1_655 S
C409   O458    1.420   .     S
C409   H439    1.109   .     S
C409   C410    1.526   .     S
C409   H440    1.117   .     S
C410   H442    1.110   .     S
C410   H443    1.110   .     S
C410   C255    1.527   1_655 S
C411   H446    1.110   .     S
C411   H444    1.109   .     S
C411   H1147   1.110   .     S
C412   O462    1.279   .     A
C412   C414    1.414   .     S
C412   O464    1.277   .     A
C413   O463    1.270   .     A
C413   C415    1.404   .     S
C413   O465    1.282   .     A
C415   C258    1.348   1_655 S
C415   O300    1.393   1_655 S
C416   H419    1.084   .     S
C417   H430    1.084   .     S
C417   C626    1.376   .     S
C418   O457    1.385   .     S
C418   C650    1.370   .     S
H421   C1025   1.111   .     S
H422   C1103   1.110   .     S
H423   C1103   1.110   .     S
H424   C247    1.113   1_655 S
H445   C1815   1.110   1_554 S
N453   Zn467   2.008   .     S
N454   Zn468   2.008   .     S
O455   Zn467   1.999   .     S
O459   Zn468   1.999   .     S
O460   Zn468   1.990   .     S
O461   Zn467   1.990   .     S
O462   Zn467   1.974   .     S
O463   Zn468   1.974   .     S
O464   Zn468   1.979   .     S
O465   Zn467   1.979   .     S
O466   C258    1.403   1_655 S
C469   C472    1.428   .     S
C469   O533    1.286   .     A
C469   O538    1.282   .     A
C470   C472    1.407   .     A
C470   O536    1.383   .     S
C471   C495    1.398   .     A
C471   C496    1.410   .     A
C471   C480    1.428   .     S
C472   C494    1.397   .     A
C473   H519    1.081   .     S
C473   N532    1.365   .     A
C473   C1879   1.414   1_554 S
C474   N531    1.365   .     A
C474   H525    1.076   .     S
C474   C1178   1.414   .     S
C475   H526    1.079   .     S
C475   N531    1.366   .     A
C475   C1175   1.414   .     S
C476   H527    1.081   .     S
C476   N532    1.366   .     A
C476   C1878   1.414   1_554 S
C477   O544    1.421   .     S
C477   C478    1.545   .     S
C477   H528    1.110   .     S
C477   H607    1.109   .     S
C478   H530    1.109   .     S
C478   C479    1.527   .     S
C478   H576    1.110   .     S
C479   H1981   1.111   1_554 S
C479   H1904   1.110   1_554 S
C479   H1905   1.110   1_554 S
C480   O537    1.280   .     A
C480   O539    1.288   .     A
C481   C482    1.528   .     S
C481   H503    1.116   .     S
C481   O534    1.417   .     S
C481   H658    1.113   1_455 S
C482   H505    1.109   .     S
C482   H504    1.112   .     S
C482   C483    1.527   .     S
C483   H506    1.110   .     S
C483   H507    1.111   .     S
C483   H41     1.109   1_565 S
C484   H510    1.110   .     S
C484   O535    1.420   .     S
C484   H511    1.114   .     S
C484   C485    1.535   .     S
C485   C486    1.527   .     S
C485   H44     1.111   1_565 S
C485   H45     1.111   1_565 S
C486   H516    1.110   .     S
C486   H592    1.109   .     S
C486   H125    1.110   1_565 S
C487   O536    1.420   .     S
C487   H517    1.109   .     S
C487   C488    1.526   .     S
C487   H518    1.117   .     S
C488   H520    1.110   .     S
C488   H521    1.110   .     S
C488   C567    1.527   .     S
C489   H524    1.110   .     S
C489   H522    1.109   .     S
C489   C644    1.527   1_455 S
C489   H1225   1.110   .     S
C490   O540    1.279   .     A
C490   C492    1.414   .     S
C490   O542    1.277   .     A
C491   O541    1.270   .     A
C491   C493    1.404   .     S
C491   O543    1.282   .     A
C492   C649    1.348   1_455 S
C492   O700    1.403   1_455 S
C493   C570    1.348   .     S
C493   O612    1.393   .     S
C494   H497    1.084   .     S
C495   H508    1.084   .     S
C495   C2      1.376   1_565 S
C496   O535    1.385   .     S
C496   C26     1.370   1_565 S
H498   C634    1.110   1_455 S
H499   C1337   1.111   1_455 S
H500   C1181   1.110   .     S
H501   C1181   1.110   .     S
H502   C559    1.113   .     S
H514   C642    1.109   1_455 S
H515   C408    1.110   1_455 S
H523   C1893   1.110   1_554 S
H529   C633    1.109   1_455 S
N531   Zn545   2.008   .     S
N532   Zn546   2.008   .     S
O533   Zn545   1.999   .     S
O534   C649    1.393   1_455 S
O537   Zn546   1.999   .     S
O538   Zn546   1.990   .     S
O539   Zn545   1.990   .     S
O540   Zn545   1.974   .     S
O541   Zn546   1.974   .     S
O542   Zn546   1.979   .     S
O543   Zn545   1.979   .     S
O544   C570    1.403   .     S
C547   C550    1.428   .     S
C547   O611    1.286   .     A
C547   O616    1.282   .     A
C548   C550    1.407   .     A
C548   O614    1.383   .     S
C549   C573    1.398   .     A
C549   C574    1.410   .     A
C549   C558    1.428   .     S
C550   C572    1.397   .     A
C551   H597    1.081   .     S
C551   N610    1.365   .     A
C551   C1957   1.414   1_554 S
C552   N609    1.365   .     A
C552   H603    1.076   .     S
C552   C1256   1.414   .     S
C553   H604    1.079   .     S
C553   N609    1.366   .     A
C553   C1253   1.414   .     S
C554   H605    1.081   .     S
C554   N610    1.366   .     A
C554   C1956   1.414   1_554 S
C555   O622    1.421   .     S
C555   C556    1.545   .     S
C555   H606    1.110   .     S
C555   H685    1.109   .     S
C556   H608    1.109   .     S
C556   C557    1.527   .     S
C556   H654    1.110   .     S
C557   H2059   1.111   1_554 S
C557   H1982   1.110   1_554 S
C557   H1983   1.110   1_554 S
C558   O615    1.280   .     A
C558   O617    1.288   .     A
C559   C560    1.528   .     S
C559   H581    1.116   .     S
C559   O612    1.417   .     S
C560   H583    1.109   .     S
C560   H582    1.112   .     S
C560   C561    1.527   .     S
C561   H584    1.110   .     S
C561   H585    1.111   .     S
C561   H119    1.109   1_565 S
C562   H588    1.110   .     S
C562   O613    1.420   .     S
C562   H589    1.114   .     S
C562   C563    1.535   .     S
C563   C564    1.527   .     S
C563   H122    1.111   1_565 S
C563   H123    1.111   1_565 S
C564   H594    1.110   .     S
C564   H670    1.109   .     S
C564   H203    1.110   1_565 S
C565   O614    1.420   .     S
C565   H595    1.109   .     S
C565   C566    1.526   .     S
C565   H596    1.117   .     S
C566   H598    1.110   .     S
C566   H599    1.110   .     S
C566   C645    1.527   .     S
C567   H602    1.110   .     S
C567   H600    1.109   .     S
C567   H1303   1.110   .     S
C568   O618    1.279   .     A
C568   C570    1.414   .     S
C568   O620    1.277   .     A
C569   O619    1.270   .     A
C569   C571    1.404   .     S
C569   O621    1.282   .     A
C571   C648    1.348   .     S
C571   O690    1.393   .     S
C572   H575    1.084   .     S
C573   H586    1.084   .     S
C573   C80     1.376   1_565 S
C574   O613    1.385   .     S
C574   C104    1.370   1_565 S
H577   C1181   1.111   .     S
H578   C1259   1.110   .     S
H579   C1259   1.110   .     S
H580   C637    1.113   .     S
H601   C1971   1.110   1_554 S
N609   Zn623   2.008   .     S
N610   Zn624   2.008   .     S
O611   Zn623   1.999   .     S
O615   Zn624   1.999   .     S
O616   Zn624   1.990   .     S
O617   Zn623   1.990   .     S
O618   Zn623   1.974   .     S
O619   Zn624   1.974   .     S
O620   Zn624   1.979   .     S
O621   Zn623   1.979   .     S
O622   C648    1.403   .     S
C625   C628    1.428   .     S
C625   O689    1.286   .     A
C625   O694    1.282   .     A
C626   C628    1.407   .     A
C626   O692    1.383   .     S
C627   C651    1.398   .     A
C627   C652    1.410   .     A
C627   C636    1.428   .     S
C628   C650    1.397   .     A
C629   H675    1.081   .     S
C629   N688    1.365   .     A
C629   C2035   1.414   1_554 S
C630   N687    1.365   .     A
C630   H681    1.076   .     S
C630   C1334   1.414   .     S
C631   H682    1.079   .     S
C631   N687    1.366   .     A
C631   C1331   1.414   .     S
C632   H683    1.081   .     S
C632   N688    1.366   .     A
C632   C2034   1.414   1_554 S
C633   O700    1.421   .     S
C633   C634    1.545   .     S
C633   H684    1.110   .     S
C633   H529    1.109   1_655 S
C634   H686    1.109   .     S
C634   C635    1.527   .     S
C634   H498    1.110   1_655 S
C635   H1903   1.111   1_654 S
C635   H2060   1.110   1_554 S
C635   H2061   1.110   1_554 S
C636   O693    1.280   .     A
C636   O695    1.288   .     A
C637   C638    1.528   .     S
C637   H659    1.116   .     S
C637   O690    1.417   .     S
C638   H661    1.109   .     S
C638   H660    1.112   .     S
C638   C639    1.527   .     S
C639   H662    1.110   .     S
C639   H663    1.111   .     S
C639   H197    1.109   1_565 S
C640   H666    1.110   .     S
C640   O691    1.420   .     S
C640   H667    1.114   .     S
C640   C641    1.535   .     S
C641   C642    1.527   .     S
C641   H200    1.111   1_565 S
C641   H201    1.111   1_565 S
C642   H672    1.110   .     S
C642   H514    1.109   1_655 S
C642   H47     1.110   1_665 S
C643   O692    1.420   .     S
C643   H673    1.109   .     S
C643   C644    1.526   .     S
C643   H674    1.117   .     S
C644   H676    1.110   .     S
C644   H677    1.110   .     S
C644   C489    1.527   1_655 S
C645   H680    1.110   .     S
C645   H678    1.109   .     S
C645   H1381   1.110   .     S
C646   O696    1.279   .     A
C646   C648    1.414   .     S
C646   O698    1.277   .     A
C647   O697    1.270   .     A
C647   C649    1.404   .     S
C647   O699    1.282   .     A
C649   C492    1.348   1_655 S
C649   O534    1.393   1_655 S
C650   H653    1.084   .     S
C651   H664    1.084   .     S
C651   C158    1.376   1_565 S
C652   O691    1.385   .     S
C652   C182    1.370   1_565 S
H655   C1259   1.111   .     S
H656   C1337   1.110   .     S
H657   C1337   1.110   .     S
H658   C481    1.113   1_655 S
H679   C2049   1.110   1_554 S
N687   Zn701   2.008   .     S
N688   Zn702   2.008   .     S
O689   Zn701   1.999   .     S
O693   Zn702   1.999   .     S
O694   Zn702   1.990   .     S
O695   Zn701   1.990   .     S
O696   Zn701   1.974   .     S
O697   Zn702   1.974   .     S
O698   Zn702   1.979   .     S
O699   Zn701   1.979   .     S
O700   C492    1.403   1_655 S
C703   C706    1.428   .     S
C703   O767    1.286   .     A
C703   O772    1.282   .     A
C704   C706    1.407   .     A
C704   O770    1.383   .     S
C704   C1197   1.376   1_545 S
C705   C729    1.398   .     A
C705   C730    1.410   .     A
C705   C714    1.428   .     S
C706   C728    1.397   .     A
C707   H753    1.081   .     S
C707   N766    1.365   .     A
C708   N765    1.365   .     A
C708   H759    1.076   .     S
C708   C1412   1.414   .     S
C709   H760    1.079   .     S
C709   N765    1.366   .     A
C709   C1409   1.414   .     S
C710   H761    1.081   .     S
C710   N766    1.366   .     A
C711   O778    1.421   .     S
C711   C712    1.545   .     S
C711   H762    1.110   .     S
C711   H841    1.109   .     S
C712   H764    1.109   .     S
C712   C713    1.527   .     S
C712   H810    1.110   .     S
C714   O771    1.280   .     A
C714   O773    1.288   .     A
C715   C716    1.528   .     S
C715   H737    1.116   .     S
C715   O768    1.417   .     S
C715   H892    1.113   1_455 S
C716   H739    1.109   .     S
C716   H738    1.112   .     S
C716   C717    1.527   .     S
C717   H740    1.110   .     S
C717   H741    1.111   .     S
C717   H977    1.109   .     S
C718   H744    1.110   .     S
C718   O769    1.420   .     S
C718   H745    1.114   .     S
C718   C719    1.535   .     S
C719   C720    1.527   .     S
C719   H980    1.111   .     S
C719   H981    1.111   .     S
C720   H750    1.110   .     S
C720   H826    1.109   .     S
C720   H1061   1.110   .     S
C721   O770    1.420   .     S
C721   H751    1.109   .     S
C721   C722    1.526   .     S
C721   H752    1.117   .     S
C722   H754    1.110   .     S
C722   H755    1.110   .     S
C722   C801    1.527   .     S
C723   H758    1.110   .     S
C723   H756    1.109   .     S
C723   C878    1.527   1_455 S
C723   H1459   1.110   .     S
C724   O774    1.279   .     A
C724   C726    1.414   .     S
C724   O776    1.277   .     A
C725   O775    1.270   .     A
C725   C727    1.404   .     S
C725   O777    1.282   .     A
C726   C883    1.348   1_455 S
C726   O934    1.403   1_455 S
C727   C804    1.348   .     S
C727   O846    1.393   .     S
C728   H731    1.084   .     S
C728   C1198   1.370   1_545 S
C729   H742    1.084   .     S
C729   C938    1.376   .     S
C730   O769    1.385   .     S
C730   C962    1.370   .     S
H732   C868    1.110   1_455 S
H733   C1571   1.111   1_455 S
H734   C1415   1.110   .     S
H735   C1415   1.110   .     S
H736   C793    1.113   .     S
H743   C1185   1.109   1_545 S
H746   C1187   1.111   1_545 S
H747   C1187   1.111   1_545 S
H748   C876    1.109   1_455 S
H749   C1344   1.110   1_445 S
H763   C867    1.109   1_455 S
N765   Zn779   2.008   .     S
N766   Zn780   2.008   .     S
O767   Zn779   1.999   .     S
O768   C883    1.393   1_455 S
O771   Zn780   1.999   .     S
O772   Zn780   1.990   .     S
O773   Zn779   1.990   .     S
O774   Zn779   1.974   .     S
O775   Zn780   1.974   .     S
O776   Zn780   1.979   .     S
O777   Zn779   1.979   .     S
O778   C804    1.403   .     S
C781   C784    1.428   .     S
C781   O845    1.286   .     A
C781   O850    1.282   .     A
C782   C784    1.407   .     A
C782   O848    1.383   .     S
C782   C1275   1.376   1_545 S
C783   C807    1.398   .     A
C783   C808    1.410   .     A
C783   C792    1.428   .     S
C784   C806    1.397   .     A
C785   H831    1.081   .     S
C785   N844    1.365   .     A
C786   N843    1.365   .     A
C786   H837    1.076   .     S
C786   C1490   1.414   .     S
C787   H838    1.079   .     S
C787   N843    1.366   .     A
C787   C1487   1.414   .     S
C788   H839    1.081   .     S
C788   N844    1.366   .     A
C789   O856    1.421   .     S
C789   C790    1.545   .     S
C789   H840    1.110   .     S
C789   H919    1.109   .     S
C790   H842    1.109   .     S
C790   C791    1.527   .     S
C790   H888    1.110   .     S
C792   O849    1.280   .     A
C792   O851    1.288   .     A
C793   C794    1.528   .     S
C793   H815    1.116   .     S
C793   O846    1.417   .     S
C794   H817    1.109   .     S
C794   H816    1.112   .     S
C794   C795    1.527   .     S
C795   H818    1.110   .     S
C795   H819    1.111   .     S
C795   H1055   1.109   .     S
C796   H822    1.110   .     S
C796   O847    1.420   .     S
C796   H823    1.114   .     S
C796   C797    1.535   .     S
C797   C798    1.527   .     S
C797   H1058   1.111   .     S
C797   H1059   1.111   .     S
C798   H828    1.110   .     S
C798   H904    1.109   .     S
C798   H1139   1.110   .     S
C799   O848    1.420   .     S
C799   H829    1.109   .     S
C799   C800    1.526   .     S
C799   H830    1.117   .     S
C800   H832    1.110   .     S
C800   H833    1.110   .     S
C800   C879    1.527   .     S
C801   H836    1.110   .     S
C801   H834    1.109   .     S
C801   H1537   1.110   .     S
C802   O852    1.279   .     A
C802   C804    1.414   .     S
C802   O854    1.277   .     A
C803   O853    1.270   .     A
C803   C805    1.404   .     S
C803   O855    1.282   .     A
C805   C882    1.348   .     S
C805   O924    1.393   .     S
C806   H809    1.084   .     S
C806   C1276   1.370   1_545 S
C807   H820    1.084   .     S
C807   C1016   1.376   .     S
C808   O847    1.385   .     S
C808   C1040   1.370   .     S
H811   C1415   1.111   .     S
H812   C1493   1.110   .     S
H813   C1493   1.110   .     S
H814   C871    1.113   .     S
H821   C1263   1.109   1_545 S
H824   C1265   1.111   1_545 S
H825   C1265   1.111   1_545 S
H827   C1188   1.110   1_545 S
N843   Zn857   2.008   .     S
N844   Zn858   2.008   .     S
O845   Zn857   1.999   .     S
O849   Zn858   1.999   .     S
O850   Zn858   1.990   .     S
O851   Zn857   1.990   .     S
O852   Zn857   1.974   .     S
O853   Zn858   1.974   .     S
O854   Zn858   1.979   .     S
O855   Zn857   1.979   .     S
O856   C882    1.403   .     S
C859   C862    1.428   .     S
C859   O923    1.286   .     A
C859   O928    1.282   .     A
C860   C862    1.407   .     A
C860   O926    1.383   .     S
C860   C1353   1.376   1_545 S
C861   C885    1.398   .     A
C861   C886    1.410   .     A
C861   C870    1.428   .     S
C862   C884    1.397   .     A
C863   H909    1.081   .     S
C863   N922    1.365   .     A
C864   N921    1.365   .     A
C864   H915    1.076   .     S
C864   C1568   1.414   .     S
C865   H916    1.079   .     S
C865   N921    1.366   .     A
C865   C1565   1.414   .     S
C866   H917    1.081   .     S
C866   N922    1.366   .     A
C867   O934    1.421   .     S
C867   C868    1.545   .     S
C867   H918    1.110   .     S
C867   H763    1.109   1_655 S
C868   H920    1.109   .     S
C868   C869    1.527   .     S
C868   H732    1.110   1_655 S
C869   H31     1.111   1_655 S
C870   O927    1.280   .     A
C870   O929    1.288   .     A
C871   C872    1.528   .     S
C871   H893    1.116   .     S
C871   O924    1.417   .     S
C872   H895    1.109   .     S
C872   H894    1.112   .     S
C872   C873    1.527   .     S
C873   H896    1.110   .     S
C873   H897    1.111   .     S
C873   H1133   1.109   .     S
C874   H900    1.110   .     S
C874   O925    1.420   .     S
C874   H901    1.114   .     S
C874   C875    1.535   .     S
C875   C876    1.527   .     S
C875   H1136   1.111   .     S
C875   H1137   1.111   .     S
C876   H906    1.110   .     S
C876   H748    1.109   1_655 S
C876   H983    1.110   1_655 S
C877   O926    1.420   .     S
C877   H907    1.109   .     S
C877   C878    1.526   .     S
C877   H908    1.117   .     S
C878   H910    1.110   .     S
C878   H911    1.110   .     S
C878   C723    1.527   1_655 S
C879   H914    1.110   .     S
C879   H912    1.109   .     S
C879   H1615   1.110   .     S
C880   O930    1.279   .     A
C880   C882    1.414   .     S
C880   O932    1.277   .     A
C881   O931    1.270   .     A
C881   C883    1.404   .     S
C881   O933    1.282   .     A
C883   C726    1.348   1_655 S
C883   O768    1.393   1_655 S
C884   H887    1.084   .     S
C884   C1354   1.370   1_545 S
C885   H898    1.084   .     S
C885   C1094   1.376   .     S
C886   O925    1.385   .     S
C886   C1118   1.370   .     S
H889   C1493   1.111   .     S
H890   C1571   1.110   .     S
H891   C1571   1.110   .     S
H892   C715    1.113   1_655 S
H899   C1341   1.109   1_545 S
H902   C1343   1.111   1_545 S
H903   C1343   1.111   1_545 S
H905   C1266   1.110   1_545 S
N921   Zn935   2.008   .     S
N922   Zn936   2.008   .     S
O923   Zn935   1.999   .     S
O927   Zn936   1.999   .     S
O928   Zn936   1.990   .     S
O929   Zn935   1.990   .     S
O930   Zn935   1.974   .     S
O931   Zn936   1.974   .     S
O932   Zn936   1.979   .     S
O933   Zn935   1.979   .     S
O934   C726    1.403   1_655 S
C937   C940    1.428   .     S
C937   O1001   1.286   .     A
C937   O1006   1.282   .     A
C938   C940    1.407   .     A
C938   O1004   1.383   .     S
C939   C963    1.398   .     A
C939   C964    1.410   .     A
C939   C948    1.428   .     S
C940   C962    1.397   .     A
C941   H987    1.081   .     S
C941   N1000   1.365   .     A
C942   N999    1.365   .     A
C942   H993    1.076   .     S
C942   C1646   1.414   .     S
C943   H994    1.079   .     S
C943   N999    1.366   .     A
C943   C1643   1.414   .     S
C944   H995    1.081   .     S
C944   N1000   1.366   .     A
C945   O1012   1.421   .     S
C945   C946    1.545   .     S
C945   H996    1.110   .     S
C945   H1075   1.109   .     S
C946   H998    1.109   .     S
C946   C947    1.527   .     S
C946   H1044   1.110   .     S
C948   O1005   1.280   .     A
C948   O1007   1.288   .     A
C949   C950    1.528   .     S
C949   H971    1.116   .     S
C949   O1002   1.417   .     S
C949   H1126   1.113   1_455 S
C950   H973    1.109   .     S
C950   H972    1.112   .     S
C950   C951    1.527   .     S
C951   H974    1.110   .     S
C951   H975    1.111   .     S
C951   H1211   1.109   .     S
C952   H978    1.110   .     S
C952   O1003   1.420   .     S
C952   H979    1.114   .     S
C952   C953    1.535   .     S
C953   C954    1.527   .     S
C953   H1214   1.111   .     S
C953   H1215   1.111   .     S
C954   H984    1.110   .     S
C954   H1060   1.109   .     S
C954   H1295   1.110   .     S
C955   O1004   1.420   .     S
C955   H985    1.109   .     S
C955   C956    1.526   .     S
C955   H986    1.117   .     S
C956   H988    1.110   .     S
C956   H989    1.110   .     S
C956   C1035   1.527   .     S
C957   H992    1.110   .     S
C957   H990    1.109   .     S
C957   C1112   1.527   1_455 S
C957   H1693   1.110   .     S
C958   O1008   1.279   .     A
C958   C960    1.414   .     S
C958   O1010   1.277   .     A
C959   O1009   1.270   .     A
C959   C961    1.404   .     S
C959   O1011   1.282   .     A
C960   C1117   1.348   1_455 S
C960   O1168   1.403   1_455 S
C961   C1038   1.348   .     S
C961   O1080   1.393   .     S
C962   H965    1.084   .     S
C963   H976    1.084   .     S
C963   C1172   1.376   .     S
C964   O1003   1.385   .     S
C964   C1196   1.370   .     S
H966   C1102   1.110   1_455 S
H967   C1805   1.111   1_455 S
H968   C1649   1.110   .     S
H969   C1649   1.110   .     S
H970   C1027   1.113   .     S
H982   C1110   1.109   1_455 S
H983   C876    1.110   1_455 S
H997   C1101   1.109   1_455 S
N999   Zn1013  2.008   .     S
N1000  Zn1014  2.008   .     S
O1001  Zn1013  1.999   .     S
O1002  C1117   1.393   1_455 S
O1005  Zn1014  1.999   .     S
O1006  Zn1014  1.990   .     S
O1007  Zn1013  1.990   .     S
O1008  Zn1013  1.974   .     S
O1009  Zn1014  1.974   .     S
O1010  Zn1014  1.979   .     S
O1011  Zn1013  1.979   .     S
O1012  C1038   1.403   .     S
C1015  C1018   1.428   .     S
C1015  O1079   1.286   .     A
C1015  O1084   1.282   .     A
C1016  C1018   1.407   .     A
C1016  O1082   1.383   .     S
C1017  C1041   1.398   .     A
C1017  C1042   1.410   .     A
C1017  C1026   1.428   .     S
C1018  C1040   1.397   .     A
C1019  H1065   1.081   .     S
C1019  N1078   1.365   .     A
C1020  N1077   1.365   .     A
C1020  H1071   1.076   .     S
C1020  C1724   1.414   .     S
C1021  H1072   1.079   .     S
C1021  N1077   1.366   .     A
C1021  C1721   1.414   .     S
C1022  H1073   1.081   .     S
C1022  N1078   1.366   .     A
C1023  O1090   1.421   .     S
C1023  C1024   1.545   .     S
C1023  H1074   1.110   .     S
C1023  H1153   1.109   .     S
C1024  H1076   1.109   .     S
C1024  C1025   1.527   .     S
C1024  H1122   1.110   .     S
C1026  O1083   1.280   .     A
C1026  O1085   1.288   .     A
C1027  C1028   1.528   .     S
C1027  H1049   1.116   .     S
C1027  O1080   1.417   .     S
C1028  H1051   1.109   .     S
C1028  H1050   1.112   .     S
C1028  C1029   1.527   .     S
C1029  H1052   1.110   .     S
C1029  H1053   1.111   .     S
C1029  H1289   1.109   .     S
C1030  H1056   1.110   .     S
C1030  O1081   1.420   .     S
C1030  H1057   1.114   .     S
C1030  C1031   1.535   .     S
C1031  C1032   1.527   .     S
C1031  H1292   1.111   .     S
C1031  H1293   1.111   .     S
C1032  H1062   1.110   .     S
C1032  H1138   1.109   .     S
C1032  H1373   1.110   .     S
C1033  O1082   1.420   .     S
C1033  H1063   1.109   .     S
C1033  C1034   1.526   .     S
C1033  H1064   1.117   .     S
C1034  H1066   1.110   .     S
C1034  H1067   1.110   .     S
C1034  C1113   1.527   .     S
C1035  H1070   1.110   .     S
C1035  H1068   1.109   .     S
C1035  H1771   1.110   .     S
C1036  O1086   1.279   .     A
C1036  C1038   1.414   .     S
C1036  O1088   1.277   .     A
C1037  O1087   1.270   .     A
C1037  C1039   1.404   .     S
C1037  O1089   1.282   .     A
C1039  C1116   1.348   .     S
C1039  O1158   1.393   .     S
C1040  H1043   1.084   .     S
C1041  H1054   1.084   .     S
C1041  C1250   1.376   .     S
C1042  O1081   1.385   .     S
C1042  C1274   1.370   .     S
H1045  C1649   1.111   .     S
H1046  C1727   1.110   .     S
H1047  C1727   1.110   .     S
H1048  C1105   1.113   .     S
N1077  Zn1091  2.008   .     S
N1078  Zn1092  2.008   .     S
O1079  Zn1091  1.999   .     S
O1083  Zn1092  1.999   .     S
O1084  Zn1092  1.990   .     S
O1085  Zn1091  1.990   .     S
O1086  Zn1091  1.974   .     S
O1087  Zn1092  1.974   .     S
O1088  Zn1092  1.979   .     S
O1089  Zn1091  1.979   .     S
O1090  C1116   1.403   .     S
C1093  C1096   1.428   .     S
C1093  O1157   1.286   .     A
C1093  O1162   1.282   .     A
C1094  C1096   1.407   .     A
C1094  O1160   1.383   .     S
C1095  C1119   1.398   .     A
C1095  C1120   1.410   .     A
C1095  C1104   1.428   .     S
C1096  C1118   1.397   .     A
C1097  H1143   1.081   .     S
C1097  N1156   1.365   .     A
C1098  N1155   1.365   .     A
C1098  H1149   1.076   .     S
C1098  C1802   1.414   .     S
C1099  H1150   1.079   .     S
C1099  N1155   1.366   .     A
C1099  C1799   1.414   .     S
C1100  H1151   1.081   .     S
C1100  N1156   1.366   .     A
C1101  O1168   1.421   .     S
C1101  C1102   1.545   .     S
C1101  H1152   1.110   .     S
C1101  H997    1.109   1_655 S
C1102  H1154   1.109   .     S
C1102  C1103   1.527   .     S
C1102  H966    1.110   1_655 S
C1103  H265    1.111   1_655 S
C1104  O1161   1.280   .     A
C1104  O1163   1.288   .     A
C1105  C1106   1.528   .     S
C1105  H1127   1.116   .     S
C1105  O1158   1.417   .     S
C1106  H1129   1.109   .     S
C1106  H1128   1.112   .     S
C1106  C1107   1.527   .     S
C1107  H1130   1.110   .     S
C1107  H1131   1.111   .     S
C1107  H1367   1.109   .     S
C1108  H1134   1.110   .     S
C1108  O1159   1.420   .     S
C1108  H1135   1.114   .     S
C1108  C1109   1.535   .     S
C1109  C1110   1.527   .     S
C1109  H1370   1.111   .     S
C1109  H1371   1.111   .     S
C1110  H1140   1.110   .     S
C1110  H982    1.109   1_655 S
C1110  H1217   1.110   1_655 S
C1111  O1160   1.420   .     S
C1111  H1141   1.109   .     S
C1111  C1112   1.526   .     S
C1111  H1142   1.117   .     S
C1112  H1144   1.110   .     S
C1112  H1145   1.110   .     S
C1112  C957    1.527   1_655 S
C1113  H1148   1.110   .     S
C1113  H1146   1.109   .     S
C1113  H1849   1.110   .     S
C1114  O1164   1.279   .     A
C1114  C1116   1.414   .     S
C1114  O1166   1.277   .     A
C1115  O1165   1.270   .     A
C1115  C1117   1.404   .     S
C1115  O1167   1.282   .     A
C1117  C960    1.348   1_655 S
C1117  O1002   1.393   1_655 S
C1118  H1121   1.084   .     S
C1119  H1132   1.084   .     S
C1119  C1328   1.376   .     S
C1120  O1159   1.385   .     S
C1120  C1352   1.370   .     S
H1123  C1727   1.111   .     S
H1124  C1805   1.110   .     S
H1125  C1805   1.110   .     S
H1126  C949    1.113   1_655 S
N1155  Zn1169  2.008   .     S
N1156  Zn1170  2.008   .     S
O1157  Zn1169  1.999   .     S
O1161  Zn1170  1.999   .     S
O1162  Zn1170  1.990   .     S
O1163  Zn1169  1.990   .     S
O1164  Zn1169  1.974   .     S
O1165  Zn1170  1.974   .     S
O1166  Zn1170  1.979   .     S
O1167  Zn1169  1.979   .     S
O1168  C960    1.403   1_655 S
C1171  C1174   1.428   .     S
C1171  O1235   1.286   .     A
C1171  O1240   1.282   .     A
C1172  C1174   1.407   .     A
C1172  O1238   1.383   .     S
C1173  C1197   1.398   .     A
C1173  C1198   1.410   .     A
C1173  C1182   1.428   .     S
C1174  C1196   1.397   .     A
C1175  H1221   1.081   .     S
C1175  N1234   1.365   .     A
C1176  N1233   1.365   .     A
C1176  H1227   1.076   .     S
C1176  C1880   1.414   .     S
C1177  H1228   1.079   .     S
C1177  N1233   1.366   .     A
C1177  C1877   1.414   .     S
C1178  H1229   1.081   .     S
C1178  N1234   1.366   .     A
C1179  O1246   1.421   .     S
C1179  C1180   1.545   .     S
C1179  H1230   1.110   .     S
C1179  H1309   1.109   .     S
C1180  H1232   1.109   .     S
C1180  C1181   1.527   .     S
C1180  H1278   1.110   .     S
C1182  O1239   1.280   .     A
C1182  O1241   1.288   .     A
C1183  C1184   1.528   .     S
C1183  H1205   1.116   .     S
C1183  O1236   1.417   .     S
C1183  H1360   1.113   1_455 S
C1184  H1207   1.109   .     S
C1184  H1206   1.112   .     S
C1184  C1185   1.527   .     S
C1185  H1208   1.110   .     S
C1185  H1209   1.111   .     S
C1185  H743    1.109   1_565 S
C1186  H1212   1.110   .     S
C1186  O1237   1.420   .     S
C1186  H1213   1.114   .     S
C1186  C1187   1.535   .     S
C1187  C1188   1.527   .     S
C1187  H746    1.111   1_565 S
C1187  H747    1.111   1_565 S
C1188  H1218   1.110   .     S
C1188  H1294   1.109   .     S
C1188  H827    1.110   1_565 S
C1189  O1238   1.420   .     S
C1189  H1219   1.109   .     S
C1189  C1190   1.526   .     S
C1189  H1220   1.117   .     S
C1190  H1222   1.110   .     S
C1190  H1223   1.110   .     S
C1190  C1269   1.527   .     S
C1191  H1226   1.110   .     S
C1191  H1224   1.109   .     S
C1191  C1346   1.527   1_455 S
C1191  H1927   1.110   .     S
C1192  O1242   1.279   .     A
C1192  C1194   1.414   .     S
C1192  O1244   1.277   .     A
C1193  O1243   1.270   .     A
C1193  C1195   1.404   .     S
C1193  O1245   1.282   .     A
C1194  C1351   1.348   1_455 S
C1194  O1402   1.403   1_455 S
C1195  C1272   1.348   .     S
C1195  O1314   1.393   .     S
C1196  H1199   1.084   .     S
C1197  H1210   1.084   .     S
C1197  C704    1.376   1_565 S
C1198  O1237   1.385   .     S
C1198  C728    1.370   1_565 S
H1200  C1336   1.110   1_455 S
H1201  C2039   1.111   1_455 S
H1202  C1883   1.110   .     S
H1203  C1883   1.110   .     S
H1204  C1261   1.113   .     S
H1216  C1344   1.109   1_455 S
H1217  C1110   1.110   1_455 S
H1231  C1335   1.109   1_455 S
N1233  Zn1247  2.008   .     S
N1234  Zn1248  2.008   .     S
O1235  Zn1247  1.999   .     S
O1236  C1351   1.393   1_455 S
O1239  Zn1248  1.999   .     S
O1240  Zn1248  1.990   .     S
O1241  Zn1247  1.990   .     S
O1242  Zn1247  1.974   .     S
O1243  Zn1248  1.974   .     S
O1244  Zn1248  1.979   .     S
O1245  Zn1247  1.979   .     S
O1246  C1272   1.403   .     S
C1249  C1252   1.428   .     S
C1249  O1313   1.286   .     A
C1249  O1318   1.282   .     A
C1250  C1252   1.407   .     A
C1250  O1316   1.383   .     S
C1251  C1275   1.398   .     A
C1251  C1276   1.410   .     A
C1251  C1260   1.428   .     S
C1252  C1274   1.397   .     A
C1253  H1299   1.081   .     S
C1253  N1312   1.365   .     A
C1254  N1311   1.365   .     A
C1254  H1305   1.076   .     S
C1254  C1958   1.414   .     S
C1255  H1306   1.079   .     S
C1255  N1311   1.366   .     A
C1255  C1955   1.414   .     S
C1256  H1307   1.081   .     S
C1256  N1312   1.366   .     A
C1257  O1324   1.421   .     S
C1257  C1258   1.545   .     S
C1257  H1308   1.110   .     S
C1257  H1387   1.109   .     S
C1258  H1310   1.109   .     S
C1258  C1259   1.527   .     S
C1258  H1356   1.110   .     S
C1260  O1317   1.280   .     A
C1260  O1319   1.288   .     A
C1261  C1262   1.528   .     S
C1261  H1283   1.116   .     S
C1261  O1314   1.417   .     S
C1262  H1285   1.109   .     S
C1262  H1284   1.112   .     S
C1262  C1263   1.527   .     S
C1263  H1286   1.110   .     S
C1263  H1287   1.111   .     S
C1263  H821    1.109   1_565 S
C1264  H1290   1.110   .     S
C1264  O1315   1.420   .     S
C1264  H1291   1.114   .     S
C1264  C1265   1.535   .     S
C1265  C1266   1.527   .     S
C1265  H824    1.111   1_565 S
C1265  H825    1.111   1_565 S
C1266  H1296   1.110   .     S
C1266  H1372   1.109   .     S
C1266  H905    1.110   1_565 S
C1267  O1316   1.420   .     S
C1267  H1297   1.109   .     S
C1267  C1268   1.526   .     S
C1267  H1298   1.117   .     S
C1268  H1300   1.110   .     S
C1268  H1301   1.110   .     S
C1268  C1347   1.527   .     S
C1269  H1304   1.110   .     S
C1269  H1302   1.109   .     S
C1269  H2005   1.110   .     S
C1270  O1320   1.279   .     A
C1270  C1272   1.414   .     S
C1270  O1322   1.277   .     A
C1271  O1321   1.270   .     A
C1271  C1273   1.404   .     S
C1271  O1323   1.282   .     A
C1273  C1350   1.348   .     S
C1273  O1392   1.393   .     S
C1274  H1277   1.084   .     S
C1275  H1288   1.084   .     S
C1275  C782    1.376   1_565 S
C1276  O1315   1.385   .     S
C1276  C806    1.370   1_565 S
H1279  C1883   1.111   .     S
H1280  C1961   1.110   .     S
H1281  C1961   1.110   .     S
H1282  C1339   1.113   .     S
N1311  Zn1325  2.008   .     S
N1312  Zn1326  2.008   .     S
O1313  Zn1325  1.999   .     S
O1317  Zn1326  1.999   .     S
O1318  Zn1326  1.990   .     S
O1319  Zn1325  1.990   .     S
O1320  Zn1325  1.974   .     S
O1321  Zn1326  1.974   .     S
O1322  Zn1326  1.979   .     S
O1323  Zn1325  1.979   .     S
O1324  C1350   1.403   .     S
C1327  C1330   1.428   .     S
C1327  O1391   1.286   .     A
C1327  O1396   1.282   .     A
C1328  C1330   1.407   .     A
C1328  O1394   1.383   .     S
C1329  C1353   1.398   .     A
C1329  C1354   1.410   .     A
C1329  C1338   1.428   .     S
C1330  C1352   1.397   .     A
C1331  H1377   1.081   .     S
C1331  N1390   1.365   .     A
C1332  N1389   1.365   .     A
C1332  H1383   1.076   .     S
C1332  C2036   1.414   .     S
C1333  H1384   1.079   .     S
C1333  N1389   1.366   .     A
C1333  C2033   1.414   .     S
C1334  H1385   1.081   .     S
C1334  N1390   1.366   .     A
C1335  O1402   1.421   .     S
C1335  C1336   1.545   .     S
C1335  H1386   1.110   .     S
C1335  H1231   1.109   1_655 S
C1336  H1388   1.109   .     S
C1336  C1337   1.527   .     S
C1336  H1200   1.110   1_655 S
C1337  H499    1.111   1_655 S
C1338  O1395   1.280   .     A
C1338  O1397   1.288   .     A
C1339  C1340   1.528   .     S
C1339  H1361   1.116   .     S
C1339  O1392   1.417   .     S
C1340  H1363   1.109   .     S
C1340  H1362   1.112   .     S
C1340  C1341   1.527   .     S
C1341  H1364   1.110   .     S
C1341  H1365   1.111   .     S
C1341  H899    1.109   1_565 S
C1342  H1368   1.110   .     S
C1342  O1393   1.420   .     S
C1342  H1369   1.114   .     S
C1342  C1343   1.535   .     S
C1343  C1344   1.527   .     S
C1343  H902    1.111   1_565 S
C1343  H903    1.111   1_565 S
C1344  H1374   1.110   .     S
C1344  H1216   1.109   1_655 S
C1344  H749    1.110   1_665 S
C1345  O1394   1.420   .     S
C1345  H1375   1.109   .     S
C1345  C1346   1.526   .     S
C1345  H1376   1.117   .     S
C1346  H1378   1.110   .     S
C1346  H1379   1.110   .     S
C1346  C1191   1.527   1_655 S
C1347  H1382   1.110   .     S
C1347  H1380   1.109   .     S
C1347  H2083   1.110   .     S
C1348  O1398   1.279   .     A
C1348  C1350   1.414   .     S
C1348  O1400   1.277   .     A
C1349  O1399   1.270   .     A
C1349  C1351   1.404   .     S
C1349  O1401   1.282   .     A
C1351  C1194   1.348   1_655 S
C1351  O1236   1.393   1_655 S
C1352  H1355   1.084   .     S
C1353  H1366   1.084   .     S
C1353  C860    1.376   1_565 S
C1354  O1393   1.385   .     S
C1354  C884    1.370   1_565 S
H1357  C1961   1.111   .     S
H1358  C2039   1.110   .     S
H1359  C2039   1.110   .     S
H1360  C1183   1.113   1_655 S
N1389  Zn1403  2.008   .     S
N1390  Zn1404  2.008   .     S
O1391  Zn1403  1.999   .     S
O1395  Zn1404  1.999   .     S
O1396  Zn1404  1.990   .     S
O1397  Zn1403  1.990   .     S
O1398  Zn1403  1.974   .     S
O1399  Zn1404  1.974   .     S
O1400  Zn1404  1.979   .     S
O1401  Zn1403  1.979   .     S
O1402  C1194   1.403   1_655 S
C1405  C1408   1.428   .     S
C1405  O1469   1.286   .     A
C1405  O1474   1.282   .     A
C1406  C1408   1.407   .     A
C1406  O1472   1.383   .     S
C1406  C1899   1.376   1_545 S
C1407  C1431   1.398   .     A
C1407  C1432   1.410   .     A
C1407  C1416   1.428   .     S
C1408  C1430   1.397   .     A
C1409  H1455   1.081   .     S
C1409  N1468   1.365   .     A
C1410  N1467   1.365   .     A
C1410  H1461   1.076   .     S
C1410  C8      1.414   1_556 S
C1411  H1462   1.079   .     S
C1411  N1467   1.366   .     A
C1411  C5      1.414   1_556 S
C1412  H1463   1.081   .     S
C1412  N1468   1.366   .     A
C1413  O1480   1.421   .     S
C1413  C1414   1.545   .     S
C1413  H1464   1.110   .     S
C1413  H1543   1.109   .     S
C1414  H1466   1.109   .     S
C1414  C1415   1.527   .     S
C1414  H1512   1.110   .     S
C1416  O1473   1.280   .     A
C1416  O1475   1.288   .     A
C1417  C1418   1.528   .     S
C1417  H1439   1.116   .     S
C1417  O1470   1.417   .     S
C1417  H1594   1.113   1_455 S
C1418  H1441   1.109   .     S
C1418  H1440   1.112   .     S
C1418  C1419   1.527   .     S
C1419  H1442   1.110   .     S
C1419  H1443   1.111   .     S
C1419  H1679   1.109   .     S
C1420  H1446   1.110   .     S
C1420  O1471   1.420   .     S
C1420  H1447   1.114   .     S
C1420  C1421   1.535   .     S
C1421  C1422   1.527   .     S
C1421  H1682   1.111   .     S
C1421  H1683   1.111   .     S
C1422  H1452   1.110   .     S
C1422  H1528   1.109   .     S
C1422  H1763   1.110   .     S
C1423  O1472   1.420   .     S
C1423  H1453   1.109   .     S
C1423  C1424   1.526   .     S
C1423  H1454   1.117   .     S
C1424  H1456   1.110   .     S
C1424  H1457   1.110   .     S
C1424  C1503   1.527   .     S
C1425  H1460   1.110   .     S
C1425  H1458   1.109   .     S
C1425  C1580   1.527   1_455 S
C1425  H55     1.110   1_556 S
C1426  O1476   1.279   .     A
C1426  C1428   1.414   .     S
C1426  O1478   1.277   .     A
C1427  O1477   1.270   .     A
C1427  C1429   1.404   .     S
C1427  O1479   1.282   .     A
C1428  C1585   1.348   1_455 S
C1428  O1636   1.403   1_455 S
C1429  C1506   1.348   .     S
C1429  O1548   1.393   .     S
C1430  H1433   1.084   .     S
C1430  C1900   1.370   1_545 S
C1431  H1444   1.084   .     S
C1431  C1640   1.376   .     S
C1432  O1471   1.385   .     S
C1432  C1664   1.370   .     S
H1434  C1570   1.110   1_455 S
H1435  C167    1.111   1_456 S
H1436  C11     1.110   1_556 S
H1437  C11     1.110   1_556 S
H1438  C1495   1.113   .     S
H1445  C1887   1.109   1_545 S
H1448  C1889   1.111   1_545 S
H1449  C1889   1.111   1_545 S
H1450  C1578   1.109   1_455 S
H1451  C2046   1.110   1_445 S
H1465  C1569   1.109   1_455 S
N1467  Zn1481  2.008   .     S
N1468  Zn1482  2.008   .     S
O1469  Zn1481  1.999   .     S
O1470  C1585   1.393   1_455 S
O1473  Zn1482  1.999   .     S
O1474  Zn1482  1.990   .     S
O1475  Zn1481  1.990   .     S
O1476  Zn1481  1.974   .     S
O1477  Zn1482  1.974   .     S
O1478  Zn1482  1.979   .     S
O1479  Zn1481  1.979   .     S
O1480  C1506   1.403   .     S
C1483  C1486   1.428   .     S
C1483  O1547   1.286   .     A
C1483  O1552   1.282   .     A
C1484  C1486   1.407   .     A
C1484  O1550   1.383   .     S
C1484  C1977   1.376   1_545 S
C1485  C1509   1.398   .     A
C1485  C1510   1.410   .     A
C1485  C1494   1.428   .     S
C1486  C1508   1.397   .     A
C1487  H1533   1.081   .     S
C1487  N1546   1.365   .     A
C1488  N1545   1.365   .     A
C1488  H1539   1.076   .     S
C1488  C86     1.414   1_556 S
C1489  H1540   1.079   .     S
C1489  N1545   1.366   .     A
C1489  C83     1.414   1_556 S
C1490  H1541   1.081   .     S
C1490  N1546   1.366   .     A
C1491  O1558   1.421   .     S
C1491  C1492   1.545   .     S
C1491  H1542   1.110   .     S
C1491  H1621   1.109   .     S
C1492  H1544   1.109   .     S
C1492  C1493   1.527   .     S
C1492  H1590   1.110   .     S
C1494  O1551   1.280   .     A
C1494  O1553   1.288   .     A
C1495  C1496   1.528   .     S
C1495  H1517   1.116   .     S
C1495  O1548   1.417   .     S
C1496  H1519   1.109   .     S
C1496  H1518   1.112   .     S
C1496  C1497   1.527   .     S
C1497  H1520   1.110   .     S
C1497  H1521   1.111   .     S
C1497  H1757   1.109   .     S
C1498  H1524   1.110   .     S
C1498  O1549   1.420   .     S
C1498  H1525   1.114   .     S
C1498  C1499   1.535   .     S
C1499  C1500   1.527   .     S
C1499  H1760   1.111   .     S
C1499  H1761   1.111   .     S
C1500  H1530   1.110   .     S
C1500  H1606   1.109   .     S
C1500  H1841   1.110   .     S
C1501  O1550   1.420   .     S
C1501  H1531   1.109   .     S
C1501  C1502   1.526   .     S
C1501  H1532   1.117   .     S
C1502  H1534   1.110   .     S
C1502  H1535   1.110   .     S
C1502  C1581   1.527   .     S
C1503  H1538   1.110   .     S
C1503  H1536   1.109   .     S
C1503  H133    1.110   1_556 S
C1504  O1554   1.279   .     A
C1504  C1506   1.414   .     S
C1504  O1556   1.277   .     A
C1505  O1555   1.270   .     A
C1505  C1507   1.404   .     S
C1505  O1557   1.282   .     A
C1507  C1584   1.348   .     S
C1507  O1626   1.393   .     S
C1508  H1511   1.084   .     S
C1508  C1978   1.370   1_545 S
C1509  H1522   1.084   .     S
C1509  C1718   1.376   .     S
C1510  O1549   1.385   .     S
C1510  C1742   1.370   .     S
H1513  C11     1.111   1_556 S
H1514  C89     1.110   1_556 S
H1515  C89     1.110   1_556 S
H1516  C1573   1.113   .     S
H1523  C1965   1.109   1_545 S
H1526  C1967   1.111   1_545 S
H1527  C1967   1.111   1_545 S
H1529  C1890   1.110   1_545 S
N1545  Zn1559  2.008   .     S
N1546  Zn1560  2.008   .     S
O1547  Zn1559  1.999   .     S
O1551  Zn1560  1.999   .     S
O1552  Zn1560  1.990   .     S
O1553  Zn1559  1.990   .     S
O1554  Zn1559  1.974   .     S
O1555  Zn1560  1.974   .     S
O1556  Zn1560  1.979   .     S
O1557  Zn1559  1.979   .     S
O1558  C1584   1.403   .     S
C1561  C1564   1.428   .     S
C1561  O1625   1.286   .     A
C1561  O1630   1.282   .     A
C1562  C1564   1.407   .     A
C1562  O1628   1.383   .     S
C1562  C2055   1.376   1_545 S
C1563  C1587   1.398   .     A
C1563  C1588   1.410   .     A
C1563  C1572   1.428   .     S
C1564  C1586   1.397   .     A
C1565  H1611   1.081   .     S
C1565  N1624   1.365   .     A
C1566  N1623   1.365   .     A
C1566  H1617   1.076   .     S
C1566  C164    1.414   1_556 S
C1567  H1618   1.079   .     S
C1567  N1623   1.366   .     A
C1567  C161    1.414   1_556 S
C1568  H1619   1.081   .     S
C1568  N1624   1.366   .     A
C1569  O1636   1.421   .     S
C1569  C1570   1.545   .     S
C1569  H1620   1.110   .     S
C1569  H1465   1.109   1_655 S
C1570  H1622   1.109   .     S
C1570  C1571   1.527   .     S
C1570  H1434   1.110   1_655 S
C1571  H733    1.111   1_655 S
C1572  O1629   1.280   .     A
C1572  O1631   1.288   .     A
C1573  C1574   1.528   .     S
C1573  H1595   1.116   .     S
C1573  O1626   1.417   .     S
C1574  H1597   1.109   .     S
C1574  H1596   1.112   .     S
C1574  C1575   1.527   .     S
C1575  H1598   1.110   .     S
C1575  H1599   1.111   .     S
C1575  H1835   1.109   .     S
C1576  H1602   1.110   .     S
C1576  O1627   1.420   .     S
C1576  H1603   1.114   .     S
C1576  C1577   1.535   .     S
C1577  C1578   1.527   .     S
C1577  H1838   1.111   .     S
C1577  H1839   1.111   .     S
C1578  H1608   1.110   .     S
C1578  H1450   1.109   1_655 S
C1578  H1685   1.110   1_655 S
C1579  O1628   1.420   .     S
C1579  H1609   1.109   .     S
C1579  C1580   1.526   .     S
C1579  H1610   1.117   .     S
C1580  H1612   1.110   .     S
C1580  H1613   1.110   .     S
C1580  C1425   1.527   1_655 S
C1581  H1616   1.110   .     S
C1581  H1614   1.109   .     S
C1581  H211    1.110   1_556 S
C1582  O1632   1.279   .     A
C1582  C1584   1.414   .     S
C1582  O1634   1.277   .     A
C1583  O1633   1.270   .     A
C1583  C1585   1.404   .     S
C1583  O1635   1.282   .     A
C1585  C1428   1.348   1_655 S
C1585  O1470   1.393   1_655 S
C1586  H1589   1.084   .     S
C1586  C2056   1.370   1_545 S
C1587  H1600   1.084   .     S
C1587  C1796   1.376   .     S
C1588  O1627   1.385   .     S
C1588  C1820   1.370   .     S
H1591  C89     1.111   1_556 S
H1592  C167    1.110   1_556 S
H1593  C167    1.110   1_556 S
H1594  C1417   1.113   1_655 S
H1601  C2043   1.109   1_545 S
H1604  C2045   1.111   1_545 S
H1605  C2045   1.111   1_545 S
H1607  C1968   1.110   1_545 S
N1623  Zn1637  2.008   .     S
N1624  Zn1638  2.008   .     S
O1625  Zn1637  1.999   .     S
O1629  Zn1638  1.999   .     S
O1630  Zn1638  1.990   .     S
O1631  Zn1637  1.990   .     S
O1632  Zn1637  1.974   .     S
O1633  Zn1638  1.974   .     S
O1634  Zn1638  1.979   .     S
O1635  Zn1637  1.979   .     S
O1636  C1428   1.403   1_655 S
C1639  C1642   1.428   .     S
C1639  O1703   1.286   .     A
C1639  O1708   1.282   .     A
C1640  C1642   1.407   .     A
C1640  O1706   1.383   .     S
C1641  C1665   1.398   .     A
C1641  C1666   1.410   .     A
C1641  C1650   1.428   .     S
C1642  C1664   1.397   .     A
C1643  H1689   1.081   .     S
C1643  N1702   1.365   .     A
C1644  N1701   1.365   .     A
C1644  H1695   1.076   .     S
C1644  C242    1.414   1_556 S
C1645  H1696   1.079   .     S
C1645  N1701   1.366   .     A
C1645  C239    1.414   1_556 S
C1646  H1697   1.081   .     S
C1646  N1702   1.366   .     A
C1647  O1714   1.421   .     S
C1647  C1648   1.545   .     S
C1647  H1698   1.110   .     S
C1647  H1777   1.109   .     S
C1648  H1700   1.109   .     S
C1648  C1649   1.527   .     S
C1648  H1746   1.110   .     S
C1650  O1707   1.280   .     A
C1650  O1709   1.288   .     A
C1651  C1652   1.528   .     S
C1651  H1673   1.116   .     S
C1651  O1704   1.417   .     S
C1651  H1828   1.113   1_455 S
C1652  H1675   1.109   .     S
C1652  H1674   1.112   .     S
C1652  C1653   1.527   .     S
C1653  H1676   1.110   .     S
C1653  H1677   1.111   .     S
C1653  H1913   1.109   .     S
C1654  H1680   1.110   .     S
C1654  O1705   1.420   .     S
C1654  H1681   1.114   .     S
C1654  C1655   1.535   .     S
C1655  C1656   1.527   .     S
C1655  H1916   1.111   .     S
C1655  H1917   1.111   .     S
C1656  H1686   1.110   .     S
C1656  H1762   1.109   .     S
C1656  H1997   1.110   .     S
C1657  O1706   1.420   .     S
C1657  H1687   1.109   .     S
C1657  C1658   1.526   .     S
C1657  H1688   1.117   .     S
C1658  H1690   1.110   .     S
C1658  H1691   1.110   .     S
C1658  C1737   1.527   .     S
C1659  H1694   1.110   .     S
C1659  H1692   1.109   .     S
C1659  C1814   1.527   1_455 S
C1659  H289    1.110   1_556 S
C1660  O1710   1.279   .     A
C1660  C1662   1.414   .     S
C1660  O1712   1.277   .     A
C1661  O1711   1.270   .     A
C1661  C1663   1.404   .     S
C1661  O1713   1.282   .     A
C1662  C1819   1.348   1_455 S
C1662  O1870   1.403   1_455 S
C1663  C1740   1.348   .     S
C1663  O1782   1.393   .     S
C1664  H1667   1.084   .     S
C1665  H1678   1.084   .     S
C1665  C1874   1.376   .     S
C1666  O1705   1.385   .     S
C1666  C1898   1.370   .     S
H1668  C1804   1.110   1_455 S
H1669  C401    1.111   1_456 S
H1670  C245    1.110   1_556 S
H1671  C245    1.110   1_556 S
H1672  C1729   1.113   .     S
H1684  C1812   1.109   1_455 S
H1685  C1578   1.110   1_455 S
H1699  C1803   1.109   1_455 S
N1701  Zn1715  2.008   .     S
N1702  Zn1716  2.008   .     S
O1703  Zn1715  1.999   .     S
O1704  C1819   1.393   1_455 S
O1707  Zn1716  1.999   .     S
O1708  Zn1716  1.990   .     S
O1709  Zn1715  1.990   .     S
O1710  Zn1715  1.974   .     S
O1711  Zn1716  1.974   .     S
O1712  Zn1716  1.979   .     S
O1713  Zn1715  1.979   .     S
O1714  C1740   1.403   .     S
C1717  C1720   1.428   .     S
C1717  O1781   1.286   .     A
C1717  O1786   1.282   .     A
C1718  C1720   1.407   .     A
C1718  O1784   1.383   .     S
C1719  C1743   1.398   .     A
C1719  C1744   1.410   .     A
C1719  C1728   1.428   .     S
C1720  C1742   1.397   .     A
C1721  H1767   1.081   .     S
C1721  N1780   1.365   .     A
C1722  N1779   1.365   .     A
C1722  H1773   1.076   .     S
C1722  C320    1.414   1_556 S
C1723  H1774   1.079   .     S
C1723  N1779   1.366   .     A
C1723  C317    1.414   1_556 S
C1724  H1775   1.081   .     S
C1724  N1780   1.366   .     A
C1725  O1792   1.421   .     S
C1725  C1726   1.545   .     S
C1725  H1776   1.110   .     S
C1725  H1855   1.109   .     S
C1726  H1778   1.109   .     S
C1726  C1727   1.527   .     S
C1726  H1824   1.110   .     S
C1728  O1785   1.280   .     A
C1728  O1787   1.288   .     A
C1729  C1730   1.528   .     S
C1729  H1751   1.116   .     S
C1729  O1782   1.417   .     S
C1730  H1753   1.109   .     S
C1730  H1752   1.112   .     S
C1730  C1731   1.527   .     S
C1731  H1754   1.110   .     S
C1731  H1755   1.111   .     S
C1731  H1991   1.109   .     S
C1732  H1758   1.110   .     S
C1732  O1783   1.420   .     S
C1732  H1759   1.114   .     S
C1732  C1733   1.535   .     S
C1733  C1734   1.527   .     S
C1733  H1994   1.111   .     S
C1733  H1995   1.111   .     S
C1734  H1764   1.110   .     S
C1734  H1840   1.109   .     S
C1734  H2075   1.110   .     S
C1735  O1784   1.420   .     S
C1735  H1765   1.109   .     S
C1735  C1736   1.526   .     S
C1735  H1766   1.117   .     S
C1736  H1768   1.110   .     S
C1736  H1769   1.110   .     S
C1736  C1815   1.527   .     S
C1737  H1772   1.110   .     S
C1737  H1770   1.109   .     S
C1737  H367    1.110   1_556 S
C1738  O1788   1.279   .     A
C1738  C1740   1.414   .     S
C1738  O1790   1.277   .     A
C1739  O1789   1.270   .     A
C1739  C1741   1.404   .     S
C1739  O1791   1.282   .     A
C1741  C1818   1.348   .     S
C1741  O1860   1.393   .     S
C1742  H1745   1.084   .     S
C1743  H1756   1.084   .     S
C1743  C1952   1.376   .     S
C1744  O1783   1.385   .     S
C1744  C1976   1.370   .     S
H1747  C245    1.111   1_556 S
H1748  C323    1.110   1_556 S
H1749  C323    1.110   1_556 S
H1750  C1807   1.113   .     S
N1779  Zn1793  2.008   .     S
N1780  Zn1794  2.008   .     S
O1781  Zn1793  1.999   .     S
O1785  Zn1794  1.999   .     S
O1786  Zn1794  1.990   .     S
O1787  Zn1793  1.990   .     S
O1788  Zn1793  1.974   .     S
O1789  Zn1794  1.974   .     S
O1790  Zn1794  1.979   .     S
O1791  Zn1793  1.979   .     S
O1792  C1818   1.403   .     S
C1795  C1798   1.428   .     S
C1795  O1859   1.286   .     A
C1795  O1864   1.282   .     A
C1796  C1798   1.407   .     A
C1796  O1862   1.383   .     S
C1797  C1821   1.398   .     A
C1797  C1822   1.410   .     A
C1797  C1806   1.428   .     S
C1798  C1820   1.397   .     A
C1799  H1845   1.081   .     S
C1799  N1858   1.365   .     A
C1800  N1857   1.365   .     A
C1800  H1851   1.076   .     S
C1800  C398    1.414   1_556 S
C1801  H1852   1.079   .     S
C1801  N1857   1.366   .     A
C1801  C395    1.414   1_556 S
C1802  H1853   1.081   .     S
C1802  N1858   1.366   .     A
C1803  O1870   1.421   .     S
C1803  C1804   1.545   .     S
C1803  H1854   1.110   .     S
C1803  H1699   1.109   1_655 S
C1804  H1856   1.109   .     S
C1804  C1805   1.527   .     S
C1804  H1668   1.110   1_655 S
C1805  H967    1.111   1_655 S
C1806  O1863   1.280   .     A
C1806  O1865   1.288   .     A
C1807  C1808   1.528   .     S
C1807  H1829   1.116   .     S
C1807  O1860   1.417   .     S
C1808  H1831   1.109   .     S
C1808  H1830   1.112   .     S
C1808  C1809   1.527   .     S
C1809  H1832   1.110   .     S
C1809  H1833   1.111   .     S
C1809  H2069   1.109   .     S
C1810  H1836   1.110   .     S
C1810  O1861   1.420   .     S
C1810  H1837   1.114   .     S
C1810  C1811   1.535   .     S
C1811  C1812   1.527   .     S
C1811  H2072   1.111   .     S
C1811  H2073   1.111   .     S
C1812  H1842   1.110   .     S
C1812  H1684   1.109   1_655 S
C1812  H1919   1.110   1_655 S
C1813  O1862   1.420   .     S
C1813  H1843   1.109   .     S
C1813  C1814   1.526   .     S
C1813  H1844   1.117   .     S
C1814  H1846   1.110   .     S
C1814  H1847   1.110   .     S
C1814  C1659   1.527   1_655 S
C1815  H1850   1.110   .     S
C1815  H1848   1.109   .     S
C1815  H445    1.110   1_556 S
C1816  O1866   1.279   .     A
C1816  C1818   1.414   .     S
C1816  O1868   1.277   .     A
C1817  O1867   1.270   .     A
C1817  C1819   1.404   .     S
C1817  O1869   1.282   .     A
C1819  C1662   1.348   1_655 S
C1819  O1704   1.393   1_655 S
C1820  H1823   1.084   .     S
C1821  H1834   1.084   .     S
C1821  C2030   1.376   .     S
C1822  O1861   1.385   .     S
C1822  C2054   1.370   .     S
H1825  C323    1.111   1_556 S
H1826  C401    1.110   1_556 S
H1827  C401    1.110   1_556 S
H1828  C1651   1.113   1_655 S
N1857  Zn1871  2.008   .     S
N1858  Zn1872  2.008   .     S
O1859  Zn1871  1.999   .     S
O1863  Zn1872  1.999   .     S
O1864  Zn1872  1.990   .     S
O1865  Zn1871  1.990   .     S
O1866  Zn1871  1.974   .     S
O1867  Zn1872  1.974   .     S
O1868  Zn1872  1.979   .     S
O1869  Zn1871  1.979   .     S
O1870  C1662   1.403   1_655 S
C1873  C1876   1.428   .     S
C1873  O1937   1.286   .     A
C1873  O1942   1.282   .     A
C1874  C1876   1.407   .     A
C1874  O1940   1.383   .     S
C1875  C1899   1.398   .     A
C1875  C1900   1.410   .     A
C1875  C1884   1.428   .     S
C1876  C1898   1.397   .     A
C1877  H1923   1.081   .     S
C1877  N1936   1.365   .     A
C1878  N1935   1.365   .     A
C1878  H1929   1.076   .     S
C1878  C476    1.414   1_556 S
C1879  H1930   1.079   .     S
C1879  N1935   1.366   .     A
C1879  C473    1.414   1_556 S
C1880  H1931   1.081   .     S
C1880  N1936   1.366   .     A
C1881  O1948   1.421   .     S
C1881  C1882   1.545   .     S
C1881  H1932   1.110   .     S
C1881  H2011   1.109   .     S
C1882  H1934   1.109   .     S
C1882  C1883   1.527   .     S
C1882  H1980   1.110   .     S
C1884  O1941   1.280   .     A
C1884  O1943   1.288   .     A
C1885  C1886   1.528   .     S
C1885  H1907   1.116   .     S
C1885  O1938   1.417   .     S
C1885  H2062   1.113   1_455 S
C1886  H1909   1.109   .     S
C1886  H1908   1.112   .     S
C1886  C1887   1.527   .     S
C1887  H1910   1.110   .     S
C1887  H1911   1.111   .     S
C1887  H1445   1.109   1_565 S
C1888  H1914   1.110   .     S
C1888  O1939   1.420   .     S
C1888  H1915   1.114   .     S
C1888  C1889   1.535   .     S
C1889  C1890   1.527   .     S
C1889  H1448   1.111   1_565 S
C1889  H1449   1.111   1_565 S
C1890  H1920   1.110   .     S
C1890  H1996   1.109   .     S
C1890  H1529   1.110   1_565 S
C1891  O1940   1.420   .     S
C1891  H1921   1.109   .     S
C1891  C1892   1.526   .     S
C1891  H1922   1.117   .     S
C1892  H1924   1.110   .     S
C1892  H1925   1.110   .     S
C1892  C1971   1.527   .     S
C1893  H1928   1.110   .     S
C1893  H1926   1.109   .     S
C1893  C2048   1.527   1_455 S
C1893  H523    1.110   1_556 S
C1894  O1944   1.279   .     A
C1894  C1896   1.414   .     S
C1894  O1946   1.277   .     A
C1895  O1945   1.270   .     A
C1895  C1897   1.404   .     S
C1895  O1947   1.282   .     A
C1896  C2053   1.348   1_455 S
C1896  O2104   1.403   1_455 S
C1897  C1974   1.348   .     S
C1897  O2016   1.393   .     S
C1898  H1901   1.084   .     S
C1899  H1912   1.084   .     S
C1899  C1406   1.376   1_565 S
C1900  O1939   1.385   .     S
C1900  C1430   1.370   1_565 S
H1902  C2038   1.110   1_455 S
H1903  C635    1.111   1_456 S
H1904  C479    1.110   1_556 S
H1905  C479    1.110   1_556 S
H1906  C1963   1.113   .     S
H1918  C2046   1.109   1_455 S
H1919  C1812   1.110   1_455 S
H1933  C2037   1.109   1_455 S
N1935  Zn1949  2.008   .     S
N1936  Zn1950  2.008   .     S
O1937  Zn1949  1.999   .     S
O1938  C2053   1.393   1_455 S
O1941  Zn1950  1.999   .     S
O1942  Zn1950  1.990   .     S
O1943  Zn1949  1.990   .     S
O1944  Zn1949  1.974   .     S
O1945  Zn1950  1.974   .     S
O1946  Zn1950  1.979   .     S
O1947  Zn1949  1.979   .     S
O1948  C1974   1.403   .     S
C1951  C1954   1.428   .     S
C1951  O2015   1.286   .     A
C1951  O2020   1.282   .     A
C1952  C1954   1.407   .     A
C1952  O2018   1.383   .     S
C1953  C1977   1.398   .     A
C1953  C1978   1.410   .     A
C1953  C1962   1.428   .     S
C1954  C1976   1.397   .     A
C1955  H2001   1.081   .     S
C1955  N2014   1.365   .     A
C1956  N2013   1.365   .     A
C1956  H2007   1.076   .     S
C1956  C554    1.414   1_556 S
C1957  H2008   1.079   .     S
C1957  N2013   1.366   .     A
C1957  C551    1.414   1_556 S
C1958  H2009   1.081   .     S
C1958  N2014   1.366   .     A
C1959  O2026   1.421   .     S
C1959  C1960   1.545   .     S
C1959  H2010   1.110   .     S
C1959  H2089   1.109   .     S
C1960  H2012   1.109   .     S
C1960  C1961   1.527   .     S
C1960  H2058   1.110   .     S
C1962  O2019   1.280   .     A
C1962  O2021   1.288   .     A
C1963  C1964   1.528   .     S
C1963  H1985   1.116   .     S
C1963  O2016   1.417   .     S
C1964  H1987   1.109   .     S
C1964  H1986   1.112   .     S
C1964  C1965   1.527   .     S
C1965  H1988   1.110   .     S
C1965  H1989   1.111   .     S
C1965  H1523   1.109   1_565 S
C1966  H1992   1.110   .     S
C1966  O2017   1.420   .     S
C1966  H1993   1.114   .     S
C1966  C1967   1.535   .     S
C1967  C1968   1.527   .     S
C1967  H1526   1.111   1_565 S
C1967  H1527   1.111   1_565 S
C1968  H1998   1.110   .     S
C1968  H2074   1.109   .     S
C1968  H1607   1.110   1_565 S
C1969  O2018   1.420   .     S
C1969  H1999   1.109   .     S
C1969  C1970   1.526   .     S
C1969  H2000   1.117   .     S
C1970  H2002   1.110   .     S
C1970  H2003   1.110   .     S
C1970  C2049   1.527   .     S
C1971  H2006   1.110   .     S
C1971  H2004   1.109   .     S
C1971  H601    1.110   1_556 S
C1972  O2022   1.279   .     A
C1972  C1974   1.414   .     S
C1972  O2024   1.277   .     A
C1973  O2023   1.270   .     A
C1973  C1975   1.404   .     S
C1973  O2025   1.282   .     A
C1975  C2052   1.348   .     S
C1975  O2094   1.393   .     S
C1976  H1979   1.084   .     S
C1977  H1990   1.084   .     S
C1977  C1484   1.376   1_565 S
C1978  O2017   1.385   .     S
C1978  C1508   1.370   1_565 S
H1981  C479    1.111   1_556 S
H1982  C557    1.110   1_556 S
H1983  C557    1.110   1_556 S
H1984  C2041   1.113   .     S
N2013  Zn2027  2.008   .     S
N2014  Zn2028  2.008   .     S
O2015  Zn2027  1.999   .     S
O2019  Zn2028  1.999   .     S
O2020  Zn2028  1.990   .     S
O2021  Zn2027  1.990   .     S
O2022  Zn2027  1.974   .     S
O2023  Zn2028  1.974   .     S
O2024  Zn2028  1.979   .     S
O2025  Zn2027  1.979   .     S
O2026  C2052   1.403   .     S
C2029  C2032   1.428   .     S
C2029  O2093   1.286   .     A
C2029  O2098   1.282   .     A
C2030  C2032   1.407   .     A
C2030  O2096   1.383   .     S
C2031  C2055   1.398   .     A
C2031  C2056   1.410   .     A
C2031  C2040   1.428   .     S
C2032  C2054   1.397   .     A
C2033  H2079   1.081   .     S
C2033  N2092   1.365   .     A
C2034  N2091   1.365   .     A
C2034  H2085   1.076   .     S
C2034  C632    1.414   1_556 S
C2035  H2086   1.079   .     S
C2035  N2091   1.366   .     A
C2035  C629    1.414   1_556 S
C2036  H2087   1.081   .     S
C2036  N2092   1.366   .     A
C2037  O2104   1.421   .     S
C2037  C2038   1.545   .     S
C2037  H2088   1.110   .     S
C2037  H1933   1.109   1_655 S
C2038  H2090   1.109   .     S
C2038  C2039   1.527   .     S
C2038  H1902   1.110   1_655 S
C2039  H1201   1.111   1_655 S
C2040  O2097   1.280   .     A
C2040  O2099   1.288   .     A
C2041  C2042   1.528   .     S
C2041  H2063   1.116   .     S
C2041  O2094   1.417   .     S
C2042  H2065   1.109   .     S
C2042  H2064   1.112   .     S
C2042  C2043   1.527   .     S
C2043  H2066   1.110   .     S
C2043  H2067   1.111   .     S
C2043  H1601   1.109   1_565 S
C2044  H2070   1.110   .     S
C2044  O2095   1.420   .     S
C2044  H2071   1.114   .     S
C2044  C2045   1.535   .     S
C2045  C2046   1.527   .     S
C2045  H1604   1.111   1_565 S
C2045  H1605   1.111   1_565 S
C2046  H2076   1.110   .     S
C2046  H1918   1.109   1_655 S
C2046  H1451   1.110   1_665 S
C2047  O2096   1.420   .     S
C2047  H2077   1.109   .     S
C2047  C2048   1.526   .     S
C2047  H2078   1.117   .     S
C2048  H2080   1.110   .     S
C2048  H2081   1.110   .     S
C2048  C1893   1.527   1_655 S
C2049  H2084   1.110   .     S
C2049  H2082   1.109   .     S
C2049  H679    1.110   1_556 S
C2050  O2100   1.279   .     A
C2050  C2052   1.414   .     S
C2050  O2102   1.277   .     A
C2051  O2101   1.270   .     A
C2051  C2053   1.404   .     S
C2051  O2103   1.282   .     A
C2053  C1896   1.348   1_655 S
C2053  O1938   1.393   1_655 S
C2054  H2057   1.084   .     S
C2055  H2068   1.084   .     S
C2055  C1562   1.376   1_565 S
C2056  O2095   1.385   .     S
C2056  C1586   1.370   1_565 S
H2059  C557    1.111   1_556 S
H2060  C635    1.110   1_556 S
H2061  C635    1.110   1_556 S
H2062  C1885   1.113   1_655 S
N2091  Zn2105  2.008   .     S
N2092  Zn2106  2.008   .     S
O2093  Zn2105  1.999   .     S
O2097  Zn2106  1.999   .     S
O2098  Zn2106  1.990   .     S
O2099  Zn2105  1.990   .     S
O2100  Zn2105  1.974   .     S
O2101  Zn2106  1.974   .     S
O2102  Zn2106  1.979   .     S
O2103  Zn2105  1.979   .     S
O2104  C1896   1.403   1_655 S
