data_str_m3_o10_o17_pcu_sym.29
_audit_creation_date              2020-01-03
_audit_creation_method            'Materials Studio'
_symmetry_space_group_name_H-M    'P1'
_symmetry_Int_Tables_number       1
_symmetry_cell_setting            triclinic
loop_
_symmetry_equiv_pos_as_xyz
  x,y,z
_cell_length_a                    23.5776
_cell_length_b                    25.6312
_cell_length_c                    29.9403
_cell_angle_alpha                 93.2700
_cell_angle_beta                  83.9072
_cell_angle_gamma                 94.3080
loop_
_atom_site_label
_atom_site_type_symbol
_atom_site_fract_x
_atom_site_fract_y
_atom_site_fract_z
_atom_site_U_iso_or_equiv
_atom_site_adp_type
_atom_site_occupancy
C1     C     0.18194   0.26484   0.24890   0.00000  Uiso   1.00
C2     C     0.19523   0.20779   0.40586   0.00000  Uiso   1.00
C3     C     0.16897   0.16668   0.11576   0.00000  Uiso   1.00
C4     C     0.16436   0.16666   0.38424   0.00000  Uiso   1.00
C5     C     0.20203   0.20561   0.09190   0.00000  Uiso   1.00
C6     C     0.13130   0.12773   0.40810   0.00000  Uiso   1.00
C7     C     0.19565   0.20924   0.04632   0.00000  Uiso   1.00
C8     C     0.13769   0.12410   0.45368   0.00000  Uiso   1.00
C9     C     0.16663   0.16686   0.02344   0.00000  Uiso   1.00
C10    C     0.16671   0.16647   0.47656   0.00000  Uiso   1.00
C11    C     0.13695   0.12518   0.04748   0.00000  Uiso   1.00
C12    C     0.15140   0.06849   0.25110   0.00000  Uiso   1.00
C13    C     0.19638   0.20815   0.45252   0.00000  Uiso   1.00
C14    C     0.21796   0.25350   0.02275   0.00000  Uiso   1.00
C15    C     0.11538   0.07983   0.47725   0.00000  Uiso   1.00
C16    C     0.22423   0.25052   0.47579   0.00000  Uiso   1.00
C17    C     0.10910   0.08281   0.02421   0.00000  Uiso   1.00
C18    C     0.18985   0.31951   0.24823   0.00000  Uiso   1.00
C19    C     0.14348   0.01382   0.25177   0.00000  Uiso   1.00
C20    C     0.16587   0.16525   0.33630   0.00000  Uiso   1.00
C21    C     0.16747   0.16809   0.16370   0.00000  Uiso   1.00
C22    C     0.13810   0.12554   0.09414   0.00000  Uiso   1.00
H23    H     0.23356   0.00345   0.24485   0.00000  Uiso   1.00
H24    H     0.09977   0.32988   0.25515   0.00000  Uiso   1.00
H25    H     0.13429   0.07783   0.14328   0.00000  Uiso   1.00
H26    H     0.19904   0.25550   0.35672   0.00000  Uiso   1.00
H27    H     0.28347   0.30769   0.47123   0.00000  Uiso   1.00
H28    H     0.04986   0.02564   0.02877   0.00000  Uiso   1.00
I29    I     0.27345   0.24651   0.12179   0.00000  Uiso   1.00
I30    I     0.05988   0.08682   0.37821   0.00000  Uiso   1.00
I31    I     0.21950   0.33137   0.05366   0.00000  Uiso   1.00
I32    I     0.11384   0.00196   0.44634   0.00000  Uiso   1.00
I33    I     0.01001   0.08916   0.19742   0.00000  Uiso   1.00
I34    I     0.32332   0.24417   0.30259   0.00000  Uiso   1.00
N35    N     0.31678   0.15265   0.23783   0.00000  Uiso   1.00
N36    N     0.01656   0.18068   0.26217   0.00000  Uiso   1.00
O37    O     0.12975   0.24619   0.25299   0.00000  Uiso   1.00
O38    O     0.22058   0.24995   0.38251   0.00000  Uiso   1.00
O39    O     0.25492   0.29015   0.45232   0.00000  Uiso   1.00
O40    O     0.07841   0.04318   0.04768   0.00000  Uiso   1.00
O41    O     0.20358   0.08714   0.24702   0.00000  Uiso   1.00
O42    O     0.22613   0.23721   0.24519   0.00000  Uiso   1.00
O43    O     0.10720   0.09613   0.25482   0.00000  Uiso   1.00
O44    O     0.11847   0.17117   0.31998   0.00000  Uiso   1.00
O45    O     0.21486   0.16216   0.18003   0.00000  Uiso   1.00
O46    O     0.21485   0.16219   0.31218   0.00000  Uiso   1.00
O47    O     0.11848   0.17115   0.18783   0.00000  Uiso   1.00
O48    O     0.11275   0.08338   0.11749   0.00000  Uiso   1.00
Zn49   Zn    0.10231   0.17266   0.25521   0.00000  Uiso   1.00
Zn50   Zn    0.23102   0.16067   0.24479   0.00000  Uiso   1.00
C51    C     0.51527   0.26484   0.24890   0.00000  Uiso   1.00
C52    C     0.52857   0.20779   0.40586   0.00000  Uiso   1.00
C53    C     0.50230   0.16668   0.11576   0.00000  Uiso   1.00
C54    C     0.49770   0.16666   0.38424   0.00000  Uiso   1.00
C55    C     0.53537   0.20561   0.09190   0.00000  Uiso   1.00
C56    C     0.46463   0.12773   0.40810   0.00000  Uiso   1.00
C57    C     0.52898   0.20924   0.04632   0.00000  Uiso   1.00
C58    C     0.47102   0.12410   0.45368   0.00000  Uiso   1.00
C59    C     0.49996   0.16686   0.02344   0.00000  Uiso   1.00
C60    C     0.50004   0.16647   0.47656   0.00000  Uiso   1.00
C61    C     0.47029   0.12518   0.04748   0.00000  Uiso   1.00
C62    C     0.48473   0.06849   0.25110   0.00000  Uiso   1.00
C63    C     0.52971   0.20815   0.45252   0.00000  Uiso   1.00
C64    C     0.55129   0.25350   0.02275   0.00000  Uiso   1.00
C65    C     0.44871   0.07983   0.47725   0.00000  Uiso   1.00
C66    C     0.55757   0.25052   0.47579   0.00000  Uiso   1.00
C67    C     0.44243   0.08281   0.02421   0.00000  Uiso   1.00
C68    C     0.52318   0.31951   0.24823   0.00000  Uiso   1.00
C69    C     0.47682   0.01382   0.25177   0.00000  Uiso   1.00
C70    C     0.49920   0.16525   0.33630   0.00000  Uiso   1.00
C71    C     0.50080   0.16809   0.16370   0.00000  Uiso   1.00
C72    C     0.47143   0.12554   0.09414   0.00000  Uiso   1.00
H73    H     0.56689   0.00345   0.24485   0.00000  Uiso   1.00
H74    H     0.43311   0.32988   0.25515   0.00000  Uiso   1.00
H75    H     0.46763   0.07783   0.14328   0.00000  Uiso   1.00
H76    H     0.53237   0.25550   0.35672   0.00000  Uiso   1.00
H77    H     0.61680   0.30769   0.47123   0.00000  Uiso   1.00
H78    H     0.38320   0.02564   0.02877   0.00000  Uiso   1.00
I79    I     0.60678   0.24651   0.12179   0.00000  Uiso   1.00
I80    I     0.39322   0.08682   0.37821   0.00000  Uiso   1.00
I81    I     0.55283   0.33137   0.05366   0.00000  Uiso   1.00
I82    I     0.44717   0.00196   0.44634   0.00000  Uiso   1.00
I83    I     0.34335   0.08916   0.19742   0.00000  Uiso   1.00
I84    I     0.65665   0.24417   0.30259   0.00000  Uiso   1.00
N85    N     0.65011   0.15265   0.23783   0.00000  Uiso   1.00
N86    N     0.34989   0.18068   0.26217   0.00000  Uiso   1.00
O87    O     0.46308   0.24619   0.25299   0.00000  Uiso   1.00
O88    O     0.55391   0.24995   0.38251   0.00000  Uiso   1.00
O89    O     0.58826   0.29015   0.45232   0.00000  Uiso   1.00
O90    O     0.41174   0.04318   0.04768   0.00000  Uiso   1.00
O91    O     0.53692   0.08714   0.24702   0.00000  Uiso   1.00
O92    O     0.55946   0.23721   0.24519   0.00000  Uiso   1.00
O93    O     0.44054   0.09613   0.25482   0.00000  Uiso   1.00
O94    O     0.45181   0.17117   0.31998   0.00000  Uiso   1.00
O95    O     0.54819   0.16216   0.18003   0.00000  Uiso   1.00
O96    O     0.54819   0.16219   0.31218   0.00000  Uiso   1.00
O97    O     0.45181   0.17115   0.18783   0.00000  Uiso   1.00
O98    O     0.44609   0.08338   0.11749   0.00000  Uiso   1.00
Zn99   Zn    0.43565   0.17266   0.25521   0.00000  Uiso   1.00
Zn100  Zn    0.56435   0.16067   0.24479   0.00000  Uiso   1.00
C101   C     0.84860   0.26484   0.24890   0.00000  Uiso   1.00
C102   C     0.86190   0.20779   0.40586   0.00000  Uiso   1.00
C103   C     0.83564   0.16668   0.11576   0.00000  Uiso   1.00
C104   C     0.83103   0.16666   0.38424   0.00000  Uiso   1.00
C105   C     0.86870   0.20561   0.09190   0.00000  Uiso   1.00
C106   C     0.79797   0.12773   0.40810   0.00000  Uiso   1.00
C107   C     0.86231   0.20924   0.04632   0.00000  Uiso   1.00
C108   C     0.80435   0.12410   0.45368   0.00000  Uiso   1.00
C109   C     0.83329   0.16686   0.02344   0.00000  Uiso   1.00
C110   C     0.83337   0.16647   0.47656   0.00000  Uiso   1.00
C111   C     0.80362   0.12518   0.04748   0.00000  Uiso   1.00
C112   C     0.81806   0.06849   0.25110   0.00000  Uiso   1.00
C113   C     0.86305   0.20815   0.45252   0.00000  Uiso   1.00
C114   C     0.88462   0.25350   0.02275   0.00000  Uiso   1.00
C115   C     0.78204   0.07983   0.47725   0.00000  Uiso   1.00
C116   C     0.89090   0.25052   0.47579   0.00000  Uiso   1.00
C117   C     0.77577   0.08281   0.02421   0.00000  Uiso   1.00
C118   C     0.85652   0.31951   0.24823   0.00000  Uiso   1.00
C119   C     0.81015   0.01382   0.25177   0.00000  Uiso   1.00
C120   C     0.83253   0.16525   0.33630   0.00000  Uiso   1.00
C121   C     0.83413   0.16809   0.16370   0.00000  Uiso   1.00
C122   C     0.80477   0.12554   0.09414   0.00000  Uiso   1.00
H123   H     0.90023   0.00345   0.24485   0.00000  Uiso   1.00
H124   H     0.76644   0.32988   0.25515   0.00000  Uiso   1.00
H125   H     0.80096   0.07783   0.14328   0.00000  Uiso   1.00
H126   H     0.86571   0.25550   0.35672   0.00000  Uiso   1.00
H127   H     0.95014   0.30769   0.47123   0.00000  Uiso   1.00
H128   H     0.71653   0.02564   0.02877   0.00000  Uiso   1.00
I129   I     0.94011   0.24651   0.12179   0.00000  Uiso   1.00
I130   I     0.72655   0.08682   0.37821   0.00000  Uiso   1.00
I131   I     0.88616   0.33137   0.05366   0.00000  Uiso   1.00
I132   I     0.78051   0.00196   0.44634   0.00000  Uiso   1.00
I133   I     0.67668   0.08916   0.19742   0.00000  Uiso   1.00
I134   I     0.98999   0.24417   0.30259   0.00000  Uiso   1.00
N135   N     0.98344   0.15265   0.23783   0.00000  Uiso   1.00
N136   N     0.68322   0.18068   0.26217   0.00000  Uiso   1.00
O137   O     0.79642   0.24619   0.25299   0.00000  Uiso   1.00
O138   O     0.88725   0.24995   0.38251   0.00000  Uiso   1.00
O139   O     0.92159   0.29015   0.45232   0.00000  Uiso   1.00
O140   O     0.74508   0.04318   0.04768   0.00000  Uiso   1.00
O141   O     0.87025   0.08714   0.24702   0.00000  Uiso   1.00
O142   O     0.89280   0.23721   0.24519   0.00000  Uiso   1.00
O143   O     0.77387   0.09613   0.25482   0.00000  Uiso   1.00
O144   O     0.78514   0.17117   0.31998   0.00000  Uiso   1.00
O145   O     0.88153   0.16216   0.18003   0.00000  Uiso   1.00
O146   O     0.88152   0.16219   0.31218   0.00000  Uiso   1.00
O147   O     0.78515   0.17115   0.18783   0.00000  Uiso   1.00
O148   O     0.77942   0.08338   0.11749   0.00000  Uiso   1.00
Zn149  Zn    0.76898   0.17266   0.25521   0.00000  Uiso   1.00
Zn150  Zn    0.89769   0.16067   0.24479   0.00000  Uiso   1.00
C151   C     0.18194   0.59817   0.24890   0.00000  Uiso   1.00
C152   C     0.19523   0.54112   0.40586   0.00000  Uiso   1.00
C153   C     0.16897   0.50001   0.11576   0.00000  Uiso   1.00
C154   C     0.16436   0.49999   0.38424   0.00000  Uiso   1.00
C155   C     0.20203   0.53894   0.09190   0.00000  Uiso   1.00
C156   C     0.13130   0.46106   0.40810   0.00000  Uiso   1.00
C157   C     0.19565   0.54257   0.04632   0.00000  Uiso   1.00
C158   C     0.13769   0.45743   0.45368   0.00000  Uiso   1.00
C159   C     0.16663   0.50020   0.02344   0.00000  Uiso   1.00
C160   C     0.16671   0.49980   0.47656   0.00000  Uiso   1.00
C161   C     0.13695   0.45852   0.04748   0.00000  Uiso   1.00
C162   C     0.15140   0.40183   0.25110   0.00000  Uiso   1.00
C163   C     0.19638   0.54148   0.45252   0.00000  Uiso   1.00
C164   C     0.21796   0.58684   0.02275   0.00000  Uiso   1.00
C165   C     0.11538   0.41316   0.47725   0.00000  Uiso   1.00
C166   C     0.22423   0.58385   0.47579   0.00000  Uiso   1.00
C167   C     0.10910   0.41615   0.02421   0.00000  Uiso   1.00
C168   C     0.18985   0.65284   0.24823   0.00000  Uiso   1.00
C169   C     0.14348   0.34716   0.25177   0.00000  Uiso   1.00
C170   C     0.16587   0.49858   0.33630   0.00000  Uiso   1.00
C171   C     0.16747   0.50142   0.16370   0.00000  Uiso   1.00
C172   C     0.13810   0.45888   0.09414   0.00000  Uiso   1.00
H173   H     0.23356   0.33679   0.24485   0.00000  Uiso   1.00
H174   H     0.09977   0.66321   0.25515   0.00000  Uiso   1.00
H175   H     0.13429   0.41116   0.14328   0.00000  Uiso   1.00
H176   H     0.19904   0.58884   0.35672   0.00000  Uiso   1.00
H177   H     0.28347   0.64103   0.47123   0.00000  Uiso   1.00
H178   H     0.04986   0.35897   0.02877   0.00000  Uiso   1.00
I179   I     0.27345   0.57984   0.12179   0.00000  Uiso   1.00
I180   I     0.05988   0.42016   0.37821   0.00000  Uiso   1.00
I181   I     0.21950   0.66471   0.05366   0.00000  Uiso   1.00
I182   I     0.11384   0.33529   0.44634   0.00000  Uiso   1.00
I183   I     0.01001   0.42250   0.19742   0.00000  Uiso   1.00
I184   I     0.32332   0.57750   0.30259   0.00000  Uiso   1.00
N185   N     0.31678   0.48598   0.23783   0.00000  Uiso   1.00
N186   N     0.01656   0.51402   0.26217   0.00000  Uiso   1.00
O187   O     0.12975   0.57952   0.25299   0.00000  Uiso   1.00
O188   O     0.22058   0.58329   0.38251   0.00000  Uiso   1.00
O189   O     0.25492   0.62349   0.45232   0.00000  Uiso   1.00
O190   O     0.07841   0.37651   0.04768   0.00000  Uiso   1.00
O191   O     0.20358   0.42048   0.24702   0.00000  Uiso   1.00
O192   O     0.22613   0.57054   0.24519   0.00000  Uiso   1.00
O193   O     0.10720   0.42946   0.25482   0.00000  Uiso   1.00
O194   O     0.11847   0.50450   0.31998   0.00000  Uiso   1.00
O195   O     0.21486   0.49550   0.18003   0.00000  Uiso   1.00
O196   O     0.21485   0.49552   0.31218   0.00000  Uiso   1.00
O197   O     0.11848   0.50448   0.18783   0.00000  Uiso   1.00
O198   O     0.11275   0.41671   0.11749   0.00000  Uiso   1.00
Zn199  Zn    0.10231   0.50600   0.25521   0.00000  Uiso   1.00
Zn200  Zn    0.23102   0.49400   0.24479   0.00000  Uiso   1.00
C201   C     0.51527   0.59817   0.24890   0.00000  Uiso   1.00
C202   C     0.52857   0.54112   0.40586   0.00000  Uiso   1.00
C203   C     0.50230   0.50001   0.11576   0.00000  Uiso   1.00
C204   C     0.49770   0.49999   0.38424   0.00000  Uiso   1.00
C205   C     0.53537   0.53894   0.09190   0.00000  Uiso   1.00
C206   C     0.46463   0.46106   0.40810   0.00000  Uiso   1.00
C207   C     0.52898   0.54257   0.04632   0.00000  Uiso   1.00
C208   C     0.47102   0.45743   0.45368   0.00000  Uiso   1.00
C209   C     0.49996   0.50020   0.02344   0.00000  Uiso   1.00
C210   C     0.50004   0.49980   0.47656   0.00000  Uiso   1.00
C211   C     0.47029   0.45852   0.04748   0.00000  Uiso   1.00
C212   C     0.48473   0.40183   0.25110   0.00000  Uiso   1.00
C213   C     0.52971   0.54148   0.45252   0.00000  Uiso   1.00
C214   C     0.55129   0.58684   0.02275   0.00000  Uiso   1.00
C215   C     0.44871   0.41316   0.47725   0.00000  Uiso   1.00
C216   C     0.55757   0.58385   0.47579   0.00000  Uiso   1.00
C217   C     0.44243   0.41615   0.02421   0.00000  Uiso   1.00
C218   C     0.52318   0.65284   0.24823   0.00000  Uiso   1.00
C219   C     0.47682   0.34716   0.25177   0.00000  Uiso   1.00
C220   C     0.49920   0.49858   0.33630   0.00000  Uiso   1.00
C221   C     0.50080   0.50142   0.16370   0.00000  Uiso   1.00
C222   C     0.47143   0.45888   0.09414   0.00000  Uiso   1.00
H223   H     0.56689   0.33679   0.24485   0.00000  Uiso   1.00
H224   H     0.43311   0.66321   0.25515   0.00000  Uiso   1.00
H225   H     0.46763   0.41116   0.14328   0.00000  Uiso   1.00
H226   H     0.53237   0.58884   0.35672   0.00000  Uiso   1.00
H227   H     0.61680   0.64103   0.47123   0.00000  Uiso   1.00
H228   H     0.38320   0.35897   0.02877   0.00000  Uiso   1.00
I229   I     0.60678   0.57984   0.12179   0.00000  Uiso   1.00
I230   I     0.39322   0.42016   0.37821   0.00000  Uiso   1.00
I231   I     0.55283   0.66471   0.05366   0.00000  Uiso   1.00
I232   I     0.44717   0.33529   0.44634   0.00000  Uiso   1.00
I233   I     0.34335   0.42250   0.19742   0.00000  Uiso   1.00
I234   I     0.65665   0.57750   0.30259   0.00000  Uiso   1.00
N235   N     0.65011   0.48598   0.23783   0.00000  Uiso   1.00
N236   N     0.34989   0.51402   0.26217   0.00000  Uiso   1.00
O237   O     0.46308   0.57952   0.25299   0.00000  Uiso   1.00
O238   O     0.55391   0.58329   0.38251   0.00000  Uiso   1.00
O239   O     0.58826   0.62349   0.45232   0.00000  Uiso   1.00
O240   O     0.41174   0.37651   0.04768   0.00000  Uiso   1.00
O241   O     0.53692   0.42048   0.24702   0.00000  Uiso   1.00
O242   O     0.55946   0.57054   0.24519   0.00000  Uiso   1.00
O243   O     0.44054   0.42946   0.25482   0.00000  Uiso   1.00
O244   O     0.45181   0.50450   0.31998   0.00000  Uiso   1.00
O245   O     0.54819   0.49550   0.18003   0.00000  Uiso   1.00
O246   O     0.54819   0.49552   0.31218   0.00000  Uiso   1.00
O247   O     0.45181   0.50448   0.18783   0.00000  Uiso   1.00
O248   O     0.44609   0.41671   0.11749   0.00000  Uiso   1.00
Zn249  Zn    0.43565   0.50600   0.25521   0.00000  Uiso   1.00
Zn250  Zn    0.56435   0.49400   0.24479   0.00000  Uiso   1.00
C251   C     0.84860   0.59817   0.24890   0.00000  Uiso   1.00
C252   C     0.86190   0.54112   0.40586   0.00000  Uiso   1.00
C253   C     0.83564   0.50001   0.11576   0.00000  Uiso   1.00
C254   C     0.83103   0.49999   0.38424   0.00000  Uiso   1.00
C255   C     0.86870   0.53894   0.09190   0.00000  Uiso   1.00
C256   C     0.79797   0.46106   0.40810   0.00000  Uiso   1.00
C257   C     0.86231   0.54257   0.04632   0.00000  Uiso   1.00
C258   C     0.80435   0.45743   0.45368   0.00000  Uiso   1.00
C259   C     0.83329   0.50020   0.02344   0.00000  Uiso   1.00
C260   C     0.83337   0.49980   0.47656   0.00000  Uiso   1.00
C261   C     0.80362   0.45852   0.04748   0.00000  Uiso   1.00
C262   C     0.81806   0.40183   0.25110   0.00000  Uiso   1.00
C263   C     0.86305   0.54148   0.45252   0.00000  Uiso   1.00
C264   C     0.88462   0.58684   0.02275   0.00000  Uiso   1.00
C265   C     0.78204   0.41316   0.47725   0.00000  Uiso   1.00
C266   C     0.89090   0.58385   0.47579   0.00000  Uiso   1.00
C267   C     0.77577   0.41615   0.02421   0.00000  Uiso   1.00
C268   C     0.85652   0.65284   0.24823   0.00000  Uiso   1.00
C269   C     0.81015   0.34716   0.25177   0.00000  Uiso   1.00
C270   C     0.83253   0.49858   0.33630   0.00000  Uiso   1.00
C271   C     0.83413   0.50142   0.16370   0.00000  Uiso   1.00
C272   C     0.80477   0.45888   0.09414   0.00000  Uiso   1.00
H273   H     0.90023   0.33679   0.24485   0.00000  Uiso   1.00
H274   H     0.76644   0.66321   0.25515   0.00000  Uiso   1.00
H275   H     0.80096   0.41116   0.14328   0.00000  Uiso   1.00
H276   H     0.86571   0.58884   0.35672   0.00000  Uiso   1.00
H277   H     0.95014   0.64103   0.47123   0.00000  Uiso   1.00
H278   H     0.71653   0.35897   0.02877   0.00000  Uiso   1.00
I279   I     0.94011   0.57984   0.12179   0.00000  Uiso   1.00
I280   I     0.72655   0.42016   0.37821   0.00000  Uiso   1.00
I281   I     0.88616   0.66471   0.05366   0.00000  Uiso   1.00
I282   I     0.78051   0.33529   0.44634   0.00000  Uiso   1.00
I283   I     0.67668   0.42250   0.19742   0.00000  Uiso   1.00
I284   I     0.98999   0.57750   0.30259   0.00000  Uiso   1.00
N285   N     0.98344   0.48598   0.23783   0.00000  Uiso   1.00
N286   N     0.68322   0.51402   0.26217   0.00000  Uiso   1.00
O287   O     0.79642   0.57952   0.25299   0.00000  Uiso   1.00
O288   O     0.88725   0.58329   0.38251   0.00000  Uiso   1.00
O289   O     0.92159   0.62349   0.45232   0.00000  Uiso   1.00
O290   O     0.74508   0.37651   0.04768   0.00000  Uiso   1.00
O291   O     0.87025   0.42048   0.24702   0.00000  Uiso   1.00
O292   O     0.89280   0.57054   0.24519   0.00000  Uiso   1.00
O293   O     0.77387   0.42946   0.25482   0.00000  Uiso   1.00
O294   O     0.78514   0.50450   0.31998   0.00000  Uiso   1.00
O295   O     0.88153   0.49550   0.18003   0.00000  Uiso   1.00
O296   O     0.88152   0.49552   0.31218   0.00000  Uiso   1.00
O297   O     0.78515   0.50448   0.18783   0.00000  Uiso   1.00
O298   O     0.77942   0.41671   0.11749   0.00000  Uiso   1.00
Zn299  Zn    0.76898   0.50600   0.25521   0.00000  Uiso   1.00
Zn300  Zn    0.89769   0.49400   0.24479   0.00000  Uiso   1.00
C301   C     0.18194   0.93151   0.24890   0.00000  Uiso   1.00
C302   C     0.19523   0.87446   0.40586   0.00000  Uiso   1.00
C303   C     0.16897   0.83335   0.11576   0.00000  Uiso   1.00
C304   C     0.16436   0.83332   0.38424   0.00000  Uiso   1.00
C305   C     0.20203   0.87227   0.09190   0.00000  Uiso   1.00
C306   C     0.13130   0.79439   0.40810   0.00000  Uiso   1.00
C307   C     0.19565   0.87590   0.04632   0.00000  Uiso   1.00
C308   C     0.13769   0.79076   0.45368   0.00000  Uiso   1.00
C309   C     0.16663   0.83353   0.02344   0.00000  Uiso   1.00
C310   C     0.16671   0.83314   0.47656   0.00000  Uiso   1.00
C311   C     0.13695   0.79185   0.04748   0.00000  Uiso   1.00
C312   C     0.15140   0.73516   0.25110   0.00000  Uiso   1.00
C313   C     0.19638   0.87482   0.45252   0.00000  Uiso   1.00
C314   C     0.21796   0.92017   0.02275   0.00000  Uiso   1.00
C315   C     0.11538   0.74650   0.47725   0.00000  Uiso   1.00
C316   C     0.22423   0.91719   0.47579   0.00000  Uiso   1.00
C317   C     0.10910   0.74948   0.02421   0.00000  Uiso   1.00
C318   C     0.18985   0.98618   0.24823   0.00000  Uiso   1.00
C319   C     0.14348   0.68049   0.25177   0.00000  Uiso   1.00
C320   C     0.16587   0.83191   0.33630   0.00000  Uiso   1.00
C321   C     0.16747   0.83475   0.16370   0.00000  Uiso   1.00
C322   C     0.13810   0.79221   0.09414   0.00000  Uiso   1.00
H323   H     0.23356   0.67012   0.24485   0.00000  Uiso   1.00
H324   H     0.09977   0.99655   0.25515   0.00000  Uiso   1.00
H325   H     0.13429   0.74450   0.14328   0.00000  Uiso   1.00
H326   H     0.19904   0.92217   0.35672   0.00000  Uiso   1.00
H327   H     0.28347   0.97436   0.47123   0.00000  Uiso   1.00
H328   H     0.04986   0.69231   0.02877   0.00000  Uiso   1.00
I329   I     0.27345   0.91318   0.12179   0.00000  Uiso   1.00
I330   I     0.05988   0.75349   0.37821   0.00000  Uiso   1.00
I331   I     0.21950   0.99804   0.05366   0.00000  Uiso   1.00
I332   I     0.11384   0.66863   0.44634   0.00000  Uiso   1.00
I333   I     0.01001   0.75583   0.19742   0.00000  Uiso   1.00
I334   I     0.32332   0.91084   0.30259   0.00000  Uiso   1.00
N335   N     0.31678   0.81932   0.23783   0.00000  Uiso   1.00
N336   N     0.01656   0.84735   0.26217   0.00000  Uiso   1.00
O337   O     0.12975   0.91286   0.25299   0.00000  Uiso   1.00
O338   O     0.22058   0.91662   0.38251   0.00000  Uiso   1.00
O339   O     0.25492   0.95682   0.45232   0.00000  Uiso   1.00
O340   O     0.07841   0.70985   0.04768   0.00000  Uiso   1.00
O341   O     0.20358   0.75381   0.24702   0.00000  Uiso   1.00
O342   O     0.22613   0.90387   0.24519   0.00000  Uiso   1.00
O343   O     0.10720   0.76279   0.25482   0.00000  Uiso   1.00
O344   O     0.11847   0.83784   0.31998   0.00000  Uiso   1.00
O345   O     0.21486   0.82883   0.18003   0.00000  Uiso   1.00
O346   O     0.21485   0.82885   0.31218   0.00000  Uiso   1.00
O347   O     0.11848   0.83781   0.18783   0.00000  Uiso   1.00
O348   O     0.11275   0.75005   0.11749   0.00000  Uiso   1.00
Zn349  Zn    0.10231   0.83933   0.25521   0.00000  Uiso   1.00
Zn350  Zn    0.23102   0.82734   0.24479   0.00000  Uiso   1.00
C351   C     0.51527   0.93151   0.24890   0.00000  Uiso   1.00
C352   C     0.52857   0.87446   0.40586   0.00000  Uiso   1.00
C353   C     0.50230   0.83335   0.11576   0.00000  Uiso   1.00
C354   C     0.49770   0.83332   0.38424   0.00000  Uiso   1.00
C355   C     0.53537   0.87227   0.09190   0.00000  Uiso   1.00
C356   C     0.46463   0.79439   0.40810   0.00000  Uiso   1.00
C357   C     0.52898   0.87590   0.04632   0.00000  Uiso   1.00
C358   C     0.47102   0.79076   0.45368   0.00000  Uiso   1.00
C359   C     0.49996   0.83353   0.02344   0.00000  Uiso   1.00
C360   C     0.50004   0.83314   0.47656   0.00000  Uiso   1.00
C361   C     0.47029   0.79185   0.04748   0.00000  Uiso   1.00
C362   C     0.48473   0.73516   0.25110   0.00000  Uiso   1.00
C363   C     0.52971   0.87482   0.45252   0.00000  Uiso   1.00
C364   C     0.55129   0.92017   0.02275   0.00000  Uiso   1.00
C365   C     0.44871   0.74650   0.47725   0.00000  Uiso   1.00
C366   C     0.55757   0.91719   0.47579   0.00000  Uiso   1.00
C367   C     0.44243   0.74948   0.02421   0.00000  Uiso   1.00
C368   C     0.52318   0.98618   0.24823   0.00000  Uiso   1.00
C369   C     0.47682   0.68049   0.25177   0.00000  Uiso   1.00
C370   C     0.49920   0.83191   0.33630   0.00000  Uiso   1.00
C371   C     0.50080   0.83475   0.16370   0.00000  Uiso   1.00
C372   C     0.47143   0.79221   0.09414   0.00000  Uiso   1.00
H373   H     0.56689   0.67012   0.24485   0.00000  Uiso   1.00
H374   H     0.43311   0.99655   0.25515   0.00000  Uiso   1.00
H375   H     0.46763   0.74450   0.14328   0.00000  Uiso   1.00
H376   H     0.53237   0.92217   0.35672   0.00000  Uiso   1.00
H377   H     0.61680   0.97436   0.47123   0.00000  Uiso   1.00
H378   H     0.38320   0.69231   0.02877   0.00000  Uiso   1.00
I379   I     0.60678   0.91318   0.12179   0.00000  Uiso   1.00
I380   I     0.39322   0.75349   0.37821   0.00000  Uiso   1.00
I381   I     0.55283   0.99804   0.05366   0.00000  Uiso   1.00
I382   I     0.44717   0.66863   0.44634   0.00000  Uiso   1.00
I383   I     0.34335   0.75583   0.19742   0.00000  Uiso   1.00
I384   I     0.65665   0.91084   0.30259   0.00000  Uiso   1.00
N385   N     0.65011   0.81932   0.23783   0.00000  Uiso   1.00
N386   N     0.34989   0.84735   0.26217   0.00000  Uiso   1.00
O387   O     0.46308   0.91286   0.25299   0.00000  Uiso   1.00
O388   O     0.55391   0.91662   0.38251   0.00000  Uiso   1.00
O389   O     0.58826   0.95682   0.45232   0.00000  Uiso   1.00
O390   O     0.41174   0.70985   0.04768   0.00000  Uiso   1.00
O391   O     0.53692   0.75381   0.24702   0.00000  Uiso   1.00
O392   O     0.55946   0.90387   0.24519   0.00000  Uiso   1.00
O393   O     0.44054   0.76279   0.25482   0.00000  Uiso   1.00
O394   O     0.45181   0.83784   0.31998   0.00000  Uiso   1.00
O395   O     0.54819   0.82883   0.18003   0.00000  Uiso   1.00
O396   O     0.54819   0.82885   0.31218   0.00000  Uiso   1.00
O397   O     0.45181   0.83781   0.18783   0.00000  Uiso   1.00
O398   O     0.44609   0.75005   0.11749   0.00000  Uiso   1.00
Zn399  Zn    0.43565   0.83933   0.25521   0.00000  Uiso   1.00
Zn400  Zn    0.56435   0.82734   0.24479   0.00000  Uiso   1.00
C401   C     0.84860   0.93151   0.24890   0.00000  Uiso   1.00
C402   C     0.86190   0.87446   0.40586   0.00000  Uiso   1.00
C403   C     0.83564   0.83335   0.11576   0.00000  Uiso   1.00
C404   C     0.83103   0.83332   0.38424   0.00000  Uiso   1.00
C405   C     0.86870   0.87227   0.09190   0.00000  Uiso   1.00
C406   C     0.79797   0.79439   0.40810   0.00000  Uiso   1.00
C407   C     0.86231   0.87590   0.04632   0.00000  Uiso   1.00
C408   C     0.80435   0.79076   0.45368   0.00000  Uiso   1.00
C409   C     0.83329   0.83353   0.02344   0.00000  Uiso   1.00
C410   C     0.83337   0.83314   0.47656   0.00000  Uiso   1.00
C411   C     0.80362   0.79185   0.04748   0.00000  Uiso   1.00
C412   C     0.81806   0.73516   0.25110   0.00000  Uiso   1.00
C413   C     0.86305   0.87482   0.45252   0.00000  Uiso   1.00
C414   C     0.88462   0.92017   0.02275   0.00000  Uiso   1.00
C415   C     0.78204   0.74650   0.47725   0.00000  Uiso   1.00
C416   C     0.89090   0.91719   0.47579   0.00000  Uiso   1.00
C417   C     0.77577   0.74948   0.02421   0.00000  Uiso   1.00
C418   C     0.85652   0.98618   0.24823   0.00000  Uiso   1.00
C419   C     0.81015   0.68049   0.25177   0.00000  Uiso   1.00
C420   C     0.83253   0.83191   0.33630   0.00000  Uiso   1.00
C421   C     0.83413   0.83475   0.16370   0.00000  Uiso   1.00
C422   C     0.80477   0.79221   0.09414   0.00000  Uiso   1.00
H423   H     0.90023   0.67012   0.24485   0.00000  Uiso   1.00
H424   H     0.76644   0.99655   0.25515   0.00000  Uiso   1.00
H425   H     0.80096   0.74450   0.14328   0.00000  Uiso   1.00
H426   H     0.86571   0.92217   0.35672   0.00000  Uiso   1.00
H427   H     0.95014   0.97436   0.47123   0.00000  Uiso   1.00
H428   H     0.71653   0.69231   0.02877   0.00000  Uiso   1.00
I429   I     0.94011   0.91318   0.12179   0.00000  Uiso   1.00
I430   I     0.72655   0.75349   0.37821   0.00000  Uiso   1.00
I431   I     0.88616   0.99804   0.05366   0.00000  Uiso   1.00
I432   I     0.78051   0.66863   0.44634   0.00000  Uiso   1.00
I433   I     0.67668   0.75583   0.19742   0.00000  Uiso   1.00
I434   I     0.98999   0.91084   0.30259   0.00000  Uiso   1.00
N435   N     0.98344   0.81932   0.23783   0.00000  Uiso   1.00
N436   N     0.68322   0.84735   0.26217   0.00000  Uiso   1.00
O437   O     0.79642   0.91286   0.25299   0.00000  Uiso   1.00
O438   O     0.88725   0.91662   0.38251   0.00000  Uiso   1.00
O439   O     0.92159   0.95682   0.45232   0.00000  Uiso   1.00
O440   O     0.74508   0.70985   0.04768   0.00000  Uiso   1.00
O441   O     0.87025   0.75381   0.24702   0.00000  Uiso   1.00
O442   O     0.89280   0.90387   0.24519   0.00000  Uiso   1.00
O443   O     0.77387   0.76279   0.25482   0.00000  Uiso   1.00
O444   O     0.78514   0.83784   0.31998   0.00000  Uiso   1.00
O445   O     0.88153   0.82883   0.18003   0.00000  Uiso   1.00
O446   O     0.88152   0.82885   0.31218   0.00000  Uiso   1.00
O447   O     0.78515   0.83781   0.18783   0.00000  Uiso   1.00
O448   O     0.77942   0.75005   0.11749   0.00000  Uiso   1.00
Zn449  Zn    0.76898   0.83933   0.25521   0.00000  Uiso   1.00
Zn450  Zn    0.89769   0.82734   0.24479   0.00000  Uiso   1.00
C451   C     0.18194   0.26484   0.74890   0.00000  Uiso   1.00
C452   C     0.19523   0.20779   0.90586   0.00000  Uiso   1.00
C453   C     0.16897   0.16668   0.61576   0.00000  Uiso   1.00
C454   C     0.16436   0.16666   0.88424   0.00000  Uiso   1.00
C455   C     0.20203   0.20561   0.59190   0.00000  Uiso   1.00
C456   C     0.13130   0.12773   0.90810   0.00000  Uiso   1.00
C457   C     0.19565   0.20924   0.54632   0.00000  Uiso   1.00
C458   C     0.13769   0.12410   0.95368   0.00000  Uiso   1.00
C459   C     0.16663   0.16686   0.52344   0.00000  Uiso   1.00
C460   C     0.16671   0.16647   0.97656   0.00000  Uiso   1.00
C461   C     0.13695   0.12518   0.54748   0.00000  Uiso   1.00
C462   C     0.15140   0.06849   0.75110   0.00000  Uiso   1.00
C463   C     0.19638   0.20815   0.95252   0.00000  Uiso   1.00
C464   C     0.21796   0.25350   0.52275   0.00000  Uiso   1.00
C465   C     0.11538   0.07983   0.97725   0.00000  Uiso   1.00
C466   C     0.22423   0.25052   0.97579   0.00000  Uiso   1.00
C467   C     0.10910   0.08281   0.52421   0.00000  Uiso   1.00
C468   C     0.18985   0.31951   0.74823   0.00000  Uiso   1.00
C469   C     0.14348   0.01382   0.75177   0.00000  Uiso   1.00
C470   C     0.16587   0.16525   0.83630   0.00000  Uiso   1.00
C471   C     0.16747   0.16809   0.66370   0.00000  Uiso   1.00
C472   C     0.13810   0.12554   0.59414   0.00000  Uiso   1.00
H473   H     0.23356   0.00345   0.74485   0.00000  Uiso   1.00
H474   H     0.09977   0.32988   0.75515   0.00000  Uiso   1.00
H475   H     0.13429   0.07783   0.64328   0.00000  Uiso   1.00
H476   H     0.19904   0.25550   0.85672   0.00000  Uiso   1.00
H477   H     0.28347   0.30769   0.97123   0.00000  Uiso   1.00
H478   H     0.04986   0.02564   0.52877   0.00000  Uiso   1.00
I479   I     0.27345   0.24651   0.62179   0.00000  Uiso   1.00
I480   I     0.05988   0.08682   0.87821   0.00000  Uiso   1.00
I481   I     0.21950   0.33137   0.55366   0.00000  Uiso   1.00
I482   I     0.11384   0.00196   0.94634   0.00000  Uiso   1.00
I483   I     0.01001   0.08916   0.69742   0.00000  Uiso   1.00
I484   I     0.32332   0.24417   0.80259   0.00000  Uiso   1.00
N485   N     0.31678   0.15265   0.73783   0.00000  Uiso   1.00
N486   N     0.01656   0.18068   0.76217   0.00000  Uiso   1.00
O487   O     0.12975   0.24619   0.75299   0.00000  Uiso   1.00
O488   O     0.22058   0.24995   0.88251   0.00000  Uiso   1.00
O489   O     0.25492   0.29015   0.95232   0.00000  Uiso   1.00
O490   O     0.07841   0.04318   0.54768   0.00000  Uiso   1.00
O491   O     0.20358   0.08714   0.74702   0.00000  Uiso   1.00
O492   O     0.22613   0.23721   0.74519   0.00000  Uiso   1.00
O493   O     0.10720   0.09613   0.75482   0.00000  Uiso   1.00
O494   O     0.11847   0.17117   0.81998   0.00000  Uiso   1.00
O495   O     0.21486   0.16216   0.68003   0.00000  Uiso   1.00
O496   O     0.21485   0.16219   0.81218   0.00000  Uiso   1.00
O497   O     0.11848   0.17115   0.68783   0.00000  Uiso   1.00
O498   O     0.11275   0.08338   0.61749   0.00000  Uiso   1.00
Zn499  Zn    0.10231   0.17266   0.75521   0.00000  Uiso   1.00
Zn500  Zn    0.23102   0.16067   0.74479   0.00000  Uiso   1.00
C501   C     0.51527   0.26484   0.74890   0.00000  Uiso   1.00
C502   C     0.52857   0.20779   0.90586   0.00000  Uiso   1.00
C503   C     0.50230   0.16668   0.61576   0.00000  Uiso   1.00
C504   C     0.49770   0.16666   0.88424   0.00000  Uiso   1.00
C505   C     0.53537   0.20561   0.59190   0.00000  Uiso   1.00
C506   C     0.46463   0.12773   0.90810   0.00000  Uiso   1.00
C507   C     0.52898   0.20924   0.54632   0.00000  Uiso   1.00
C508   C     0.47102   0.12410   0.95368   0.00000  Uiso   1.00
C509   C     0.49996   0.16686   0.52344   0.00000  Uiso   1.00
C510   C     0.50004   0.16647   0.97656   0.00000  Uiso   1.00
C511   C     0.47029   0.12518   0.54748   0.00000  Uiso   1.00
C512   C     0.48473   0.06849   0.75110   0.00000  Uiso   1.00
C513   C     0.52971   0.20815   0.95252   0.00000  Uiso   1.00
C514   C     0.55129   0.25350   0.52275   0.00000  Uiso   1.00
C515   C     0.44871   0.07983   0.97725   0.00000  Uiso   1.00
C516   C     0.55757   0.25052   0.97579   0.00000  Uiso   1.00
C517   C     0.44243   0.08281   0.52421   0.00000  Uiso   1.00
C518   C     0.52318   0.31951   0.74823   0.00000  Uiso   1.00
C519   C     0.47682   0.01382   0.75177   0.00000  Uiso   1.00
C520   C     0.49920   0.16525   0.83630   0.00000  Uiso   1.00
C521   C     0.50080   0.16809   0.66370   0.00000  Uiso   1.00
C522   C     0.47143   0.12554   0.59414   0.00000  Uiso   1.00
H523   H     0.56689   0.00345   0.74485   0.00000  Uiso   1.00
H524   H     0.43311   0.32988   0.75515   0.00000  Uiso   1.00
H525   H     0.46763   0.07783   0.64328   0.00000  Uiso   1.00
H526   H     0.53237   0.25550   0.85672   0.00000  Uiso   1.00
H527   H     0.61680   0.30769   0.97123   0.00000  Uiso   1.00
H528   H     0.38320   0.02564   0.52877   0.00000  Uiso   1.00
I529   I     0.60678   0.24651   0.62179   0.00000  Uiso   1.00
I530   I     0.39322   0.08682   0.87821   0.00000  Uiso   1.00
I531   I     0.55283   0.33137   0.55366   0.00000  Uiso   1.00
I532   I     0.44717   0.00196   0.94634   0.00000  Uiso   1.00
I533   I     0.34335   0.08916   0.69742   0.00000  Uiso   1.00
I534   I     0.65665   0.24417   0.80259   0.00000  Uiso   1.00
N535   N     0.65011   0.15265   0.73783   0.00000  Uiso   1.00
N536   N     0.34989   0.18068   0.76217   0.00000  Uiso   1.00
O537   O     0.46308   0.24619   0.75299   0.00000  Uiso   1.00
O538   O     0.55391   0.24995   0.88251   0.00000  Uiso   1.00
O539   O     0.58826   0.29015   0.95232   0.00000  Uiso   1.00
O540   O     0.41174   0.04318   0.54768   0.00000  Uiso   1.00
O541   O     0.53692   0.08714   0.74702   0.00000  Uiso   1.00
O542   O     0.55946   0.23721   0.74519   0.00000  Uiso   1.00
O543   O     0.44054   0.09613   0.75482   0.00000  Uiso   1.00
O544   O     0.45181   0.17117   0.81998   0.00000  Uiso   1.00
O545   O     0.54819   0.16216   0.68003   0.00000  Uiso   1.00
O546   O     0.54819   0.16219   0.81218   0.00000  Uiso   1.00
O547   O     0.45181   0.17115   0.68783   0.00000  Uiso   1.00
O548   O     0.44609   0.08338   0.61749   0.00000  Uiso   1.00
Zn549  Zn    0.43565   0.17266   0.75521   0.00000  Uiso   1.00
Zn550  Zn    0.56435   0.16067   0.74479   0.00000  Uiso   1.00
C551   C     0.84860   0.26484   0.74890   0.00000  Uiso   1.00
C552   C     0.86190   0.20779   0.90586   0.00000  Uiso   1.00
C553   C     0.83564   0.16668   0.61576   0.00000  Uiso   1.00
C554   C     0.83103   0.16666   0.88424   0.00000  Uiso   1.00
C555   C     0.86870   0.20561   0.59190   0.00000  Uiso   1.00
C556   C     0.79797   0.12773   0.90810   0.00000  Uiso   1.00
C557   C     0.86231   0.20924   0.54632   0.00000  Uiso   1.00
C558   C     0.80435   0.12410   0.95368   0.00000  Uiso   1.00
C559   C     0.83329   0.16686   0.52344   0.00000  Uiso   1.00
C560   C     0.83337   0.16647   0.97656   0.00000  Uiso   1.00
C561   C     0.80362   0.12518   0.54748   0.00000  Uiso   1.00
C562   C     0.81806   0.06849   0.75110   0.00000  Uiso   1.00
C563   C     0.86305   0.20815   0.95252   0.00000  Uiso   1.00
C564   C     0.88462   0.25350   0.52275   0.00000  Uiso   1.00
C565   C     0.78204   0.07983   0.97725   0.00000  Uiso   1.00
C566   C     0.89090   0.25052   0.97579   0.00000  Uiso   1.00
C567   C     0.77577   0.08281   0.52421   0.00000  Uiso   1.00
C568   C     0.85652   0.31951   0.74823   0.00000  Uiso   1.00
C569   C     0.81015   0.01382   0.75177   0.00000  Uiso   1.00
C570   C     0.83253   0.16525   0.83630   0.00000  Uiso   1.00
C571   C     0.83413   0.16809   0.66370   0.00000  Uiso   1.00
C572   C     0.80477   0.12554   0.59414   0.00000  Uiso   1.00
H573   H     0.90023   0.00345   0.74485   0.00000  Uiso   1.00
H574   H     0.76644   0.32988   0.75515   0.00000  Uiso   1.00
H575   H     0.80096   0.07783   0.64328   0.00000  Uiso   1.00
H576   H     0.86571   0.25550   0.85672   0.00000  Uiso   1.00
H577   H     0.95014   0.30769   0.97123   0.00000  Uiso   1.00
H578   H     0.71653   0.02564   0.52877   0.00000  Uiso   1.00
I579   I     0.94011   0.24651   0.62179   0.00000  Uiso   1.00
I580   I     0.72655   0.08682   0.87821   0.00000  Uiso   1.00
I581   I     0.88616   0.33137   0.55366   0.00000  Uiso   1.00
I582   I     0.78051   0.00196   0.94634   0.00000  Uiso   1.00
I583   I     0.67668   0.08916   0.69742   0.00000  Uiso   1.00
I584   I     0.98999   0.24417   0.80259   0.00000  Uiso   1.00
N585   N     0.98344   0.15265   0.73783   0.00000  Uiso   1.00
N586   N     0.68322   0.18068   0.76217   0.00000  Uiso   1.00
O587   O     0.79642   0.24619   0.75299   0.00000  Uiso   1.00
O588   O     0.88725   0.24995   0.88251   0.00000  Uiso   1.00
O589   O     0.92159   0.29015   0.95232   0.00000  Uiso   1.00
O590   O     0.74508   0.04318   0.54768   0.00000  Uiso   1.00
O591   O     0.87025   0.08714   0.74702   0.00000  Uiso   1.00
O592   O     0.89280   0.23721   0.74519   0.00000  Uiso   1.00
O593   O     0.77387   0.09613   0.75482   0.00000  Uiso   1.00
O594   O     0.78514   0.17117   0.81998   0.00000  Uiso   1.00
O595   O     0.88153   0.16216   0.68003   0.00000  Uiso   1.00
O596   O     0.88152   0.16219   0.81218   0.00000  Uiso   1.00
O597   O     0.78515   0.17115   0.68783   0.00000  Uiso   1.00
O598   O     0.77942   0.08338   0.61749   0.00000  Uiso   1.00
Zn599  Zn    0.76898   0.17266   0.75521   0.00000  Uiso   1.00
Zn600  Zn    0.89769   0.16067   0.74479   0.00000  Uiso   1.00
C601   C     0.18194   0.59817   0.74890   0.00000  Uiso   1.00
C602   C     0.19523   0.54112   0.90586   0.00000  Uiso   1.00
C603   C     0.16897   0.50001   0.61576   0.00000  Uiso   1.00
C604   C     0.16436   0.49999   0.88424   0.00000  Uiso   1.00
C605   C     0.20203   0.53894   0.59190   0.00000  Uiso   1.00
C606   C     0.13130   0.46106   0.90810   0.00000  Uiso   1.00
C607   C     0.19565   0.54257   0.54632   0.00000  Uiso   1.00
C608   C     0.13769   0.45743   0.95368   0.00000  Uiso   1.00
C609   C     0.16663   0.50020   0.52344   0.00000  Uiso   1.00
C610   C     0.16671   0.49980   0.97656   0.00000  Uiso   1.00
C611   C     0.13695   0.45852   0.54748   0.00000  Uiso   1.00
C612   C     0.15140   0.40183   0.75110   0.00000  Uiso   1.00
C613   C     0.19638   0.54148   0.95252   0.00000  Uiso   1.00
C614   C     0.21796   0.58684   0.52275   0.00000  Uiso   1.00
C615   C     0.11538   0.41316   0.97725   0.00000  Uiso   1.00
C616   C     0.22423   0.58385   0.97579   0.00000  Uiso   1.00
C617   C     0.10910   0.41615   0.52421   0.00000  Uiso   1.00
C618   C     0.18985   0.65284   0.74823   0.00000  Uiso   1.00
C619   C     0.14348   0.34716   0.75177   0.00000  Uiso   1.00
C620   C     0.16587   0.49858   0.83630   0.00000  Uiso   1.00
C621   C     0.16747   0.50142   0.66370   0.00000  Uiso   1.00
C622   C     0.13810   0.45888   0.59414   0.00000  Uiso   1.00
H623   H     0.23356   0.33679   0.74485   0.00000  Uiso   1.00
H624   H     0.09977   0.66321   0.75515   0.00000  Uiso   1.00
H625   H     0.13429   0.41116   0.64328   0.00000  Uiso   1.00
H626   H     0.19904   0.58884   0.85672   0.00000  Uiso   1.00
H627   H     0.28347   0.64103   0.97123   0.00000  Uiso   1.00
H628   H     0.04986   0.35897   0.52877   0.00000  Uiso   1.00
I629   I     0.27345   0.57984   0.62179   0.00000  Uiso   1.00
I630   I     0.05988   0.42016   0.87821   0.00000  Uiso   1.00
I631   I     0.21950   0.66471   0.55366   0.00000  Uiso   1.00
I632   I     0.11384   0.33529   0.94634   0.00000  Uiso   1.00
I633   I     0.01001   0.42250   0.69742   0.00000  Uiso   1.00
I634   I     0.32332   0.57750   0.80259   0.00000  Uiso   1.00
N635   N     0.31678   0.48598   0.73783   0.00000  Uiso   1.00
N636   N     0.01656   0.51402   0.76217   0.00000  Uiso   1.00
O637   O     0.12975   0.57952   0.75299   0.00000  Uiso   1.00
O638   O     0.22058   0.58329   0.88251   0.00000  Uiso   1.00
O639   O     0.25492   0.62349   0.95232   0.00000  Uiso   1.00
O640   O     0.07841   0.37651   0.54768   0.00000  Uiso   1.00
O641   O     0.20358   0.42048   0.74702   0.00000  Uiso   1.00
O642   O     0.22613   0.57054   0.74519   0.00000  Uiso   1.00
O643   O     0.10720   0.42946   0.75482   0.00000  Uiso   1.00
O644   O     0.11847   0.50450   0.81998   0.00000  Uiso   1.00
O645   O     0.21486   0.49550   0.68003   0.00000  Uiso   1.00
O646   O     0.21485   0.49552   0.81218   0.00000  Uiso   1.00
O647   O     0.11848   0.50448   0.68783   0.00000  Uiso   1.00
O648   O     0.11275   0.41671   0.61749   0.00000  Uiso   1.00
Zn649  Zn    0.10231   0.50600   0.75521   0.00000  Uiso   1.00
Zn650  Zn    0.23102   0.49400   0.74479   0.00000  Uiso   1.00
C651   C     0.51527   0.59817   0.74890   0.00000  Uiso   1.00
C652   C     0.52857   0.54112   0.90586   0.00000  Uiso   1.00
C653   C     0.50230   0.50001   0.61576   0.00000  Uiso   1.00
C654   C     0.49770   0.49999   0.88424   0.00000  Uiso   1.00
C655   C     0.53537   0.53894   0.59190   0.00000  Uiso   1.00
C656   C     0.46463   0.46106   0.90810   0.00000  Uiso   1.00
C657   C     0.52898   0.54257   0.54632   0.00000  Uiso   1.00
C658   C     0.47102   0.45743   0.95368   0.00000  Uiso   1.00
C659   C     0.49996   0.50020   0.52344   0.00000  Uiso   1.00
C660   C     0.50004   0.49980   0.97656   0.00000  Uiso   1.00
C661   C     0.47029   0.45852   0.54748   0.00000  Uiso   1.00
C662   C     0.48473   0.40183   0.75110   0.00000  Uiso   1.00
C663   C     0.52971   0.54148   0.95252   0.00000  Uiso   1.00
C664   C     0.55129   0.58684   0.52275   0.00000  Uiso   1.00
C665   C     0.44871   0.41316   0.97725   0.00000  Uiso   1.00
C666   C     0.55757   0.58385   0.97579   0.00000  Uiso   1.00
C667   C     0.44243   0.41615   0.52421   0.00000  Uiso   1.00
C668   C     0.52318   0.65284   0.74823   0.00000  Uiso   1.00
C669   C     0.47682   0.34716   0.75177   0.00000  Uiso   1.00
C670   C     0.49920   0.49858   0.83630   0.00000  Uiso   1.00
C671   C     0.50080   0.50142   0.66370   0.00000  Uiso   1.00
C672   C     0.47143   0.45888   0.59414   0.00000  Uiso   1.00
H673   H     0.56689   0.33679   0.74485   0.00000  Uiso   1.00
H674   H     0.43311   0.66321   0.75515   0.00000  Uiso   1.00
H675   H     0.46763   0.41116   0.64328   0.00000  Uiso   1.00
H676   H     0.53237   0.58884   0.85672   0.00000  Uiso   1.00
H677   H     0.61680   0.64103   0.97123   0.00000  Uiso   1.00
H678   H     0.38320   0.35897   0.52877   0.00000  Uiso   1.00
I679   I     0.60678   0.57984   0.62179   0.00000  Uiso   1.00
I680   I     0.39322   0.42016   0.87821   0.00000  Uiso   1.00
I681   I     0.55283   0.66471   0.55366   0.00000  Uiso   1.00
I682   I     0.44717   0.33529   0.94634   0.00000  Uiso   1.00
I683   I     0.34335   0.42250   0.69742   0.00000  Uiso   1.00
I684   I     0.65665   0.57750   0.80259   0.00000  Uiso   1.00
N685   N     0.65011   0.48598   0.73783   0.00000  Uiso   1.00
N686   N     0.34989   0.51402   0.76217   0.00000  Uiso   1.00
O687   O     0.46308   0.57952   0.75299   0.00000  Uiso   1.00
O688   O     0.55391   0.58329   0.88251   0.00000  Uiso   1.00
O689   O     0.58826   0.62349   0.95232   0.00000  Uiso   1.00
O690   O     0.41174   0.37651   0.54768   0.00000  Uiso   1.00
O691   O     0.53692   0.42048   0.74702   0.00000  Uiso   1.00
O692   O     0.55946   0.57054   0.74519   0.00000  Uiso   1.00
O693   O     0.44054   0.42946   0.75482   0.00000  Uiso   1.00
O694   O     0.45181   0.50450   0.81998   0.00000  Uiso   1.00
O695   O     0.54819   0.49550   0.68003   0.00000  Uiso   1.00
O696   O     0.54819   0.49552   0.81218   0.00000  Uiso   1.00
O697   O     0.45181   0.50448   0.68783   0.00000  Uiso   1.00
O698   O     0.44609   0.41671   0.61749   0.00000  Uiso   1.00
Zn699  Zn    0.43565   0.50600   0.75521   0.00000  Uiso   1.00
Zn700  Zn    0.56435   0.49400   0.74479   0.00000  Uiso   1.00
C701   C     0.84860   0.59817   0.74890   0.00000  Uiso   1.00
C702   C     0.86190   0.54112   0.90586   0.00000  Uiso   1.00
C703   C     0.83564   0.50001   0.61576   0.00000  Uiso   1.00
C704   C     0.83103   0.49999   0.88424   0.00000  Uiso   1.00
C705   C     0.86870   0.53894   0.59190   0.00000  Uiso   1.00
C706   C     0.79797   0.46106   0.90810   0.00000  Uiso   1.00
C707   C     0.86231   0.54257   0.54632   0.00000  Uiso   1.00
C708   C     0.80435   0.45743   0.95368   0.00000  Uiso   1.00
C709   C     0.83329   0.50020   0.52344   0.00000  Uiso   1.00
C710   C     0.83337   0.49980   0.97656   0.00000  Uiso   1.00
C711   C     0.80362   0.45852   0.54748   0.00000  Uiso   1.00
C712   C     0.81806   0.40183   0.75110   0.00000  Uiso   1.00
C713   C     0.86305   0.54148   0.95252   0.00000  Uiso   1.00
C714   C     0.88462   0.58684   0.52275   0.00000  Uiso   1.00
C715   C     0.78204   0.41316   0.97725   0.00000  Uiso   1.00
C716   C     0.89090   0.58385   0.97579   0.00000  Uiso   1.00
C717   C     0.77577   0.41615   0.52421   0.00000  Uiso   1.00
C718   C     0.85652   0.65284   0.74823   0.00000  Uiso   1.00
C719   C     0.81015   0.34716   0.75177   0.00000  Uiso   1.00
C720   C     0.83253   0.49858   0.83630   0.00000  Uiso   1.00
C721   C     0.83413   0.50142   0.66370   0.00000  Uiso   1.00
C722   C     0.80477   0.45888   0.59414   0.00000  Uiso   1.00
H723   H     0.90023   0.33679   0.74485   0.00000  Uiso   1.00
H724   H     0.76644   0.66321   0.75515   0.00000  Uiso   1.00
H725   H     0.80096   0.41116   0.64328   0.00000  Uiso   1.00
H726   H     0.86571   0.58884   0.85672   0.00000  Uiso   1.00
H727   H     0.95014   0.64103   0.97123   0.00000  Uiso   1.00
H728   H     0.71653   0.35897   0.52877   0.00000  Uiso   1.00
I729   I     0.94011   0.57984   0.62179   0.00000  Uiso   1.00
I730   I     0.72655   0.42016   0.87821   0.00000  Uiso   1.00
I731   I     0.88616   0.66471   0.55366   0.00000  Uiso   1.00
I732   I     0.78051   0.33529   0.94634   0.00000  Uiso   1.00
I733   I     0.67668   0.42250   0.69742   0.00000  Uiso   1.00
I734   I     0.98999   0.57750   0.80259   0.00000  Uiso   1.00
N735   N     0.98344   0.48598   0.73783   0.00000  Uiso   1.00
N736   N     0.68322   0.51402   0.76217   0.00000  Uiso   1.00
O737   O     0.79642   0.57952   0.75299   0.00000  Uiso   1.00
O738   O     0.88725   0.58329   0.88251   0.00000  Uiso   1.00
O739   O     0.92159   0.62349   0.95232   0.00000  Uiso   1.00
O740   O     0.74508   0.37651   0.54768   0.00000  Uiso   1.00
O741   O     0.87025   0.42048   0.74702   0.00000  Uiso   1.00
O742   O     0.89280   0.57054   0.74519   0.00000  Uiso   1.00
O743   O     0.77387   0.42946   0.75482   0.00000  Uiso   1.00
O744   O     0.78514   0.50450   0.81998   0.00000  Uiso   1.00
O745   O     0.88153   0.49550   0.68003   0.00000  Uiso   1.00
O746   O     0.88152   0.49552   0.81218   0.00000  Uiso   1.00
O747   O     0.78515   0.50448   0.68783   0.00000  Uiso   1.00
O748   O     0.77942   0.41671   0.61749   0.00000  Uiso   1.00
Zn749  Zn    0.76898   0.50600   0.75521   0.00000  Uiso   1.00
Zn750  Zn    0.89769   0.49400   0.74479   0.00000  Uiso   1.00
C751   C     0.18194   0.93151   0.74890   0.00000  Uiso   1.00
C752   C     0.19523   0.87446   0.90586   0.00000  Uiso   1.00
C753   C     0.16897   0.83335   0.61576   0.00000  Uiso   1.00
C754   C     0.16436   0.83332   0.88424   0.00000  Uiso   1.00
C755   C     0.20203   0.87227   0.59190   0.00000  Uiso   1.00
C756   C     0.13130   0.79439   0.90810   0.00000  Uiso   1.00
C757   C     0.19565   0.87590   0.54632   0.00000  Uiso   1.00
C758   C     0.13769   0.79076   0.95368   0.00000  Uiso   1.00
C759   C     0.16663   0.83353   0.52344   0.00000  Uiso   1.00
C760   C     0.16671   0.83314   0.97656   0.00000  Uiso   1.00
C761   C     0.13695   0.79185   0.54748   0.00000  Uiso   1.00
C762   C     0.15140   0.73516   0.75110   0.00000  Uiso   1.00
C763   C     0.19638   0.87482   0.95252   0.00000  Uiso   1.00
C764   C     0.21796   0.92017   0.52275   0.00000  Uiso   1.00
C765   C     0.11538   0.74650   0.97725   0.00000  Uiso   1.00
C766   C     0.22423   0.91719   0.97579   0.00000  Uiso   1.00
C767   C     0.10910   0.74948   0.52421   0.00000  Uiso   1.00
C768   C     0.18985   0.98618   0.74823   0.00000  Uiso   1.00
C769   C     0.14348   0.68049   0.75177   0.00000  Uiso   1.00
C770   C     0.16587   0.83191   0.83630   0.00000  Uiso   1.00
C771   C     0.16747   0.83475   0.66370   0.00000  Uiso   1.00
C772   C     0.13810   0.79221   0.59414   0.00000  Uiso   1.00
H773   H     0.23356   0.67012   0.74485   0.00000  Uiso   1.00
H774   H     0.09977   0.99655   0.75515   0.00000  Uiso   1.00
H775   H     0.13429   0.74450   0.64328   0.00000  Uiso   1.00
H776   H     0.19904   0.92217   0.85672   0.00000  Uiso   1.00
H777   H     0.28347   0.97436   0.97123   0.00000  Uiso   1.00
H778   H     0.04986   0.69231   0.52877   0.00000  Uiso   1.00
I779   I     0.27345   0.91318   0.62179   0.00000  Uiso   1.00
I780   I     0.05988   0.75349   0.87821   0.00000  Uiso   1.00
I781   I     0.21950   0.99804   0.55366   0.00000  Uiso   1.00
I782   I     0.11384   0.66863   0.94634   0.00000  Uiso   1.00
I783   I     0.01001   0.75583   0.69742   0.00000  Uiso   1.00
I784   I     0.32332   0.91084   0.80259   0.00000  Uiso   1.00
N785   N     0.31678   0.81932   0.73783   0.00000  Uiso   1.00
N786   N     0.01656   0.84735   0.76217   0.00000  Uiso   1.00
O787   O     0.12975   0.91286   0.75299   0.00000  Uiso   1.00
O788   O     0.22058   0.91662   0.88251   0.00000  Uiso   1.00
O789   O     0.25492   0.95682   0.95232   0.00000  Uiso   1.00
O790   O     0.07841   0.70985   0.54768   0.00000  Uiso   1.00
O791   O     0.20358   0.75381   0.74702   0.00000  Uiso   1.00
O792   O     0.22613   0.90387   0.74519   0.00000  Uiso   1.00
O793   O     0.10720   0.76279   0.75482   0.00000  Uiso   1.00
O794   O     0.11847   0.83784   0.81998   0.00000  Uiso   1.00
O795   O     0.21486   0.82883   0.68003   0.00000  Uiso   1.00
O796   O     0.21485   0.82885   0.81218   0.00000  Uiso   1.00
O797   O     0.11848   0.83781   0.68783   0.00000  Uiso   1.00
O798   O     0.11275   0.75005   0.61749   0.00000  Uiso   1.00
Zn799  Zn    0.10231   0.83933   0.75521   0.00000  Uiso   1.00
Zn800  Zn    0.23102   0.82734   0.74479   0.00000  Uiso   1.00
C801   C     0.51527   0.93151   0.74890   0.00000  Uiso   1.00
C802   C     0.52857   0.87446   0.90586   0.00000  Uiso   1.00
C803   C     0.50230   0.83335   0.61576   0.00000  Uiso   1.00
C804   C     0.49770   0.83332   0.88424   0.00000  Uiso   1.00
C805   C     0.53537   0.87227   0.59190   0.00000  Uiso   1.00
C806   C     0.46463   0.79439   0.90810   0.00000  Uiso   1.00
C807   C     0.52898   0.87590   0.54632   0.00000  Uiso   1.00
C808   C     0.47102   0.79076   0.95368   0.00000  Uiso   1.00
C809   C     0.49996   0.83353   0.52344   0.00000  Uiso   1.00
C810   C     0.50004   0.83314   0.97656   0.00000  Uiso   1.00
C811   C     0.47029   0.79185   0.54748   0.00000  Uiso   1.00
C812   C     0.48473   0.73516   0.75110   0.00000  Uiso   1.00
C813   C     0.52971   0.87482   0.95252   0.00000  Uiso   1.00
C814   C     0.55129   0.92017   0.52275   0.00000  Uiso   1.00
C815   C     0.44871   0.74650   0.97725   0.00000  Uiso   1.00
C816   C     0.55757   0.91719   0.97579   0.00000  Uiso   1.00
C817   C     0.44243   0.74948   0.52421   0.00000  Uiso   1.00
C818   C     0.52318   0.98618   0.74823   0.00000  Uiso   1.00
C819   C     0.47682   0.68049   0.75177   0.00000  Uiso   1.00
C820   C     0.49920   0.83191   0.83630   0.00000  Uiso   1.00
C821   C     0.50080   0.83475   0.66370   0.00000  Uiso   1.00
C822   C     0.47143   0.79221   0.59414   0.00000  Uiso   1.00
H823   H     0.56689   0.67012   0.74485   0.00000  Uiso   1.00
H824   H     0.43311   0.99655   0.75515   0.00000  Uiso   1.00
H825   H     0.46763   0.74450   0.64328   0.00000  Uiso   1.00
H826   H     0.53237   0.92217   0.85672   0.00000  Uiso   1.00
H827   H     0.61680   0.97436   0.97123   0.00000  Uiso   1.00
H828   H     0.38320   0.69231   0.52877   0.00000  Uiso   1.00
I829   I     0.60678   0.91318   0.62179   0.00000  Uiso   1.00
I830   I     0.39322   0.75349   0.87821   0.00000  Uiso   1.00
I831   I     0.55283   0.99804   0.55366   0.00000  Uiso   1.00
I832   I     0.44717   0.66863   0.94634   0.00000  Uiso   1.00
I833   I     0.34335   0.75583   0.69742   0.00000  Uiso   1.00
I834   I     0.65665   0.91084   0.80259   0.00000  Uiso   1.00
N835   N     0.65011   0.81932   0.73783   0.00000  Uiso   1.00
N836   N     0.34989   0.84735   0.76217   0.00000  Uiso   1.00
O837   O     0.46308   0.91286   0.75299   0.00000  Uiso   1.00
O838   O     0.55391   0.91662   0.88251   0.00000  Uiso   1.00
O839   O     0.58826   0.95682   0.95232   0.00000  Uiso   1.00
O840   O     0.41174   0.70985   0.54768   0.00000  Uiso   1.00
O841   O     0.53692   0.75381   0.74702   0.00000  Uiso   1.00
O842   O     0.55946   0.90387   0.74519   0.00000  Uiso   1.00
O843   O     0.44054   0.76279   0.75482   0.00000  Uiso   1.00
O844   O     0.45181   0.83784   0.81998   0.00000  Uiso   1.00
O845   O     0.54819   0.82883   0.68003   0.00000  Uiso   1.00
O846   O     0.54819   0.82885   0.81218   0.00000  Uiso   1.00
O847   O     0.45181   0.83781   0.68783   0.00000  Uiso   1.00
O848   O     0.44609   0.75005   0.61749   0.00000  Uiso   1.00
Zn849  Zn    0.43565   0.83933   0.75521   0.00000  Uiso   1.00
Zn850  Zn    0.56435   0.82734   0.74479   0.00000  Uiso   1.00
C851   C     0.84860   0.93151   0.74890   0.00000  Uiso   1.00
C852   C     0.86190   0.87446   0.90586   0.00000  Uiso   1.00
C853   C     0.83564   0.83335   0.61576   0.00000  Uiso   1.00
C854   C     0.83103   0.83332   0.88424   0.00000  Uiso   1.00
C855   C     0.86870   0.87227   0.59190   0.00000  Uiso   1.00
C856   C     0.79797   0.79439   0.90810   0.00000  Uiso   1.00
C857   C     0.86231   0.87590   0.54632   0.00000  Uiso   1.00
C858   C     0.80435   0.79076   0.95368   0.00000  Uiso   1.00
C859   C     0.83329   0.83353   0.52344   0.00000  Uiso   1.00
C860   C     0.83337   0.83314   0.97656   0.00000  Uiso   1.00
C861   C     0.80362   0.79185   0.54748   0.00000  Uiso   1.00
C862   C     0.81806   0.73516   0.75110   0.00000  Uiso   1.00
C863   C     0.86305   0.87482   0.95252   0.00000  Uiso   1.00
C864   C     0.88462   0.92017   0.52275   0.00000  Uiso   1.00
C865   C     0.78204   0.74650   0.97725   0.00000  Uiso   1.00
C866   C     0.89090   0.91719   0.97579   0.00000  Uiso   1.00
C867   C     0.77577   0.74948   0.52421   0.00000  Uiso   1.00
C868   C     0.85652   0.98618   0.74823   0.00000  Uiso   1.00
C869   C     0.81015   0.68049   0.75177   0.00000  Uiso   1.00
C870   C     0.83253   0.83191   0.83630   0.00000  Uiso   1.00
C871   C     0.83413   0.83475   0.66370   0.00000  Uiso   1.00
C872   C     0.80477   0.79221   0.59414   0.00000  Uiso   1.00
H873   H     0.90023   0.67012   0.74485   0.00000  Uiso   1.00
H874   H     0.76644   0.99655   0.75515   0.00000  Uiso   1.00
H875   H     0.80096   0.74450   0.64328   0.00000  Uiso   1.00
H876   H     0.86571   0.92217   0.85672   0.00000  Uiso   1.00
H877   H     0.95014   0.97436   0.97123   0.00000  Uiso   1.00
H878   H     0.71653   0.69231   0.52877   0.00000  Uiso   1.00
I879   I     0.94011   0.91318   0.62179   0.00000  Uiso   1.00
I880   I     0.72655   0.75349   0.87821   0.00000  Uiso   1.00
I881   I     0.88616   0.99804   0.55366   0.00000  Uiso   1.00
I882   I     0.78051   0.66863   0.94634   0.00000  Uiso   1.00
I883   I     0.67668   0.75583   0.69742   0.00000  Uiso   1.00
I884   I     0.98999   0.91084   0.80259   0.00000  Uiso   1.00
N885   N     0.98344   0.81932   0.73783   0.00000  Uiso   1.00
N886   N     0.68322   0.84735   0.76217   0.00000  Uiso   1.00
O887   O     0.79642   0.91286   0.75299   0.00000  Uiso   1.00
O888   O     0.88725   0.91662   0.88251   0.00000  Uiso   1.00
O889   O     0.92159   0.95682   0.95232   0.00000  Uiso   1.00
O890   O     0.74508   0.70985   0.54768   0.00000  Uiso   1.00
O891   O     0.87025   0.75381   0.74702   0.00000  Uiso   1.00
O892   O     0.89280   0.90387   0.74519   0.00000  Uiso   1.00
O893   O     0.77387   0.76279   0.75482   0.00000  Uiso   1.00
O894   O     0.78514   0.83784   0.81998   0.00000  Uiso   1.00
O895   O     0.88153   0.82883   0.68003   0.00000  Uiso   1.00
O896   O     0.88152   0.82885   0.81218   0.00000  Uiso   1.00
O897   O     0.78515   0.83781   0.68783   0.00000  Uiso   1.00
O898   O     0.77942   0.75005   0.61749   0.00000  Uiso   1.00
Zn899  Zn    0.76898   0.83933   0.75521   0.00000  Uiso   1.00
Zn900  Zn    0.89769   0.82734   0.74479   0.00000  Uiso   1.00
loop_
_geom_bond_atom_site_label_1
_geom_bond_atom_site_label_2
_geom_bond_distance
_geom_bond_site_symmetry_2
_ccdc_geom_bond_type
C1     O42     1.295   .     A
C1     O37     1.282   .     A
C1     C18     1.401   .     S
C2     C4      1.403   .     A
C2     C13     1.400   .     A
C2     O38     1.384   .     S
C3     C21     1.430   .     S
C3     C22     1.403   .     A
C3     C5      1.400   .     A
C4     C6      1.400   .     A
C4     C20     1.430   .     S
C5     I29     2.164   .     S
C5     C7      1.398   .     A
C6     I30     2.164   .     S
C6     C8      1.398   .     A
C7     C9      1.421   .     A
C7     C14     1.409   .     A
C8     C15     1.409   .     A
C8     C10     1.421   .     A
C9     C11     1.420   .     A
C9     C460    1.403   1_554 S
C10    C13     1.420   .     A
C10    C459    1.403   .     S
C11    C22     1.400   .     A
C11    C17     1.414   .     A
C12    O41     1.282   .     A
C12    O43     1.295   .     A
C12    C19     1.401   .     S
C13    C16     1.414   .     A
C14    I31     2.151   .     S
C14    C466    1.397   1_554 S
C15    I32     2.151   .     S
C15    C467    1.397   .     S
C16    O39     1.383   .     S
C16    C464    1.397   .     S
C17    O40     1.383   .     S
C17    C465    1.397   1_554 S
C18    C169    1.338   .     S
C18    H173    1.088   .     S
C19    C318    1.338   1_545 S
C19    H324    1.088   1_545 S
C20    O44     1.289   .     A
C20    O46     1.301   .     A
C21    O47     1.301   .     A
C21    O45     1.289   .     A
C22    O48     1.384   .     S
H23    C318    1.088   1_545 S
H24    C169    1.088   .     S
H25    O48     0.990   .     S
H26    O38     0.990   .     S
H27    O39     0.991   .     S
H28    O40     0.991   .     S
I33    N135    2.067   1_455 S
I34    N86     2.067   .     S
N35    Zn50    2.035   .     S
N35    I83     2.067   .     S
N35    N86     1.278   .     S
N36    Zn49    2.035   .     S
N36    N135    1.278   1_455 S
N36    I134    2.067   1_455 S
O37    Zn49    1.948   .     S
O41    Zn50    1.948   .     S
O42    Zn50    1.973   .     S
O43    Zn49    1.973   .     S
O44    Zn49    2.018   .     S
O45    Zn50    2.018   .     S
O46    Zn50    2.012   .     S
O47    Zn49    2.012   .     S
C51    O92     1.295   .     A
C51    O87     1.282   .     A
C51    C68     1.401   .     S
C52    C54     1.403   .     A
C52    C63     1.400   .     A
C52    O88     1.384   .     S
C53    C71     1.430   .     S
C53    C72     1.403   .     A
C53    C55     1.400   .     A
C54    C56     1.400   .     A
C54    C70     1.430   .     S
C55    I79     2.164   .     S
C55    C57     1.398   .     A
C56    I80     2.164   .     S
C56    C58     1.398   .     A
C57    C59     1.421   .     A
C57    C64     1.409   .     A
C58    C65     1.409   .     A
C58    C60     1.421   .     A
C59    C61     1.420   .     A
C59    C510    1.403   1_554 S
C60    C63     1.420   .     A
C60    C509    1.403   .     S
C61    C72     1.400   .     A
C61    C67     1.414   .     A
C62    O91     1.282   .     A
C62    O93     1.295   .     A
C62    C69     1.401   .     S
C63    C66     1.414   .     A
C64    I81     2.151   .     S
C64    C516    1.397   1_554 S
C65    I82     2.151   .     S
C65    C517    1.397   .     S
C66    O89     1.383   .     S
C66    C514    1.397   .     S
C67    O90     1.383   .     S
C67    C515    1.397   1_554 S
C68    C219    1.338   .     S
C68    H223    1.088   .     S
C69    C368    1.338   1_545 S
C69    H374    1.088   1_545 S
C70    O94     1.289   .     A
C70    O96     1.301   .     A
C71    O97     1.301   .     A
C71    O95     1.289   .     A
C72    O98     1.384   .     S
H73    C368    1.088   1_545 S
H74    C219    1.088   .     S
H75    O98     0.990   .     S
H76    O88     0.990   .     S
H77    O89     0.991   .     S
H78    O90     0.991   .     S
I84    N136    2.067   .     S
N85    Zn100   2.035   .     S
N85    I133    2.067   .     S
N85    N136    1.278   .     S
N86    Zn99    2.035   .     S
O87    Zn99    1.948   .     S
O91    Zn100   1.948   .     S
O92    Zn100   1.973   .     S
O93    Zn99    1.973   .     S
O94    Zn99    2.018   .     S
O95    Zn100   2.018   .     S
O96    Zn100   2.012   .     S
O97    Zn99    2.012   .     S
C101   O142    1.295   .     A
C101   O137    1.282   .     A
C101   C118    1.401   .     S
C102   C104    1.403   .     A
C102   C113    1.400   .     A
C102   O138    1.384   .     S
C103   C121    1.430   .     S
C103   C122    1.403   .     A
C103   C105    1.400   .     A
C104   C106    1.400   .     A
C104   C120    1.430   .     S
C105   I129    2.164   .     S
C105   C107    1.398   .     A
C106   I130    2.164   .     S
C106   C108    1.398   .     A
C107   C109    1.421   .     A
C107   C114    1.409   .     A
C108   C115    1.409   .     A
C108   C110    1.421   .     A
C109   C111    1.420   .     A
C109   C560    1.403   1_554 S
C110   C113    1.420   .     A
C110   C559    1.403   .     S
C111   C122    1.400   .     A
C111   C117    1.414   .     A
C112   O141    1.282   .     A
C112   O143    1.295   .     A
C112   C119    1.401   .     S
C113   C116    1.414   .     A
C114   I131    2.151   .     S
C114   C566    1.397   1_554 S
C115   I132    2.151   .     S
C115   C567    1.397   .     S
C116   O139    1.383   .     S
C116   C564    1.397   .     S
C117   O140    1.383   .     S
C117   C565    1.397   1_554 S
C118   C269    1.338   .     S
C118   H273    1.088   .     S
C119   C418    1.338   1_545 S
C119   H424    1.088   1_545 S
C120   O144    1.289   .     A
C120   O146    1.301   .     A
C121   O147    1.301   .     A
C121   O145    1.289   .     A
C122   O148    1.384   .     S
H123   C418    1.088   1_545 S
H124   C269    1.088   .     S
H125   O148    0.990   .     S
H126   O138    0.990   .     S
H127   O139    0.991   .     S
H128   O140    0.991   .     S
I134   N36     2.067   1_655 S
N135   Zn150   2.035   .     S
N135   I33     2.067   1_655 S
N135   N36     1.278   1_655 S
N136   Zn149   2.035   .     S
O137   Zn149   1.948   .     S
O141   Zn150   1.948   .     S
O142   Zn150   1.973   .     S
O143   Zn149   1.973   .     S
O144   Zn149   2.018   .     S
O145   Zn150   2.018   .     S
O146   Zn150   2.012   .     S
O147   Zn149   2.012   .     S
C151   O192    1.295   .     A
C151   O187    1.282   .     A
C151   C168    1.401   .     S
C152   C154    1.403   .     A
C152   C163    1.400   .     A
C152   O188    1.384   .     S
C153   C171    1.430   .     S
C153   C172    1.403   .     A
C153   C155    1.400   .     A
C154   C156    1.400   .     A
C154   C170    1.430   .     S
C155   I179    2.164   .     S
C155   C157    1.398   .     A
C156   I180    2.164   .     S
C156   C158    1.398   .     A
C157   C159    1.421   .     A
C157   C164    1.409   .     A
C158   C165    1.409   .     A
C158   C160    1.421   .     A
C159   C161    1.420   .     A
C159   C610    1.403   1_554 S
C160   C163    1.420   .     A
C160   C609    1.403   .     S
C161   C172    1.400   .     A
C161   C167    1.414   .     A
C162   O191    1.282   .     A
C162   O193    1.295   .     A
C162   C169    1.401   .     S
C163   C166    1.414   .     A
C164   I181    2.151   .     S
C164   C616    1.397   1_554 S
C165   I182    2.151   .     S
C165   C617    1.397   .     S
C166   O189    1.383   .     S
C166   C614    1.397   .     S
C167   O190    1.383   .     S
C167   C615    1.397   1_554 S
C168   C319    1.338   .     S
C168   H323    1.088   .     S
C170   O194    1.289   .     A
C170   O196    1.301   .     A
C171   O197    1.301   .     A
C171   O195    1.289   .     A
C172   O198    1.384   .     S
H174   C319    1.088   .     S
H175   O198    0.990   .     S
H176   O188    0.990   .     S
H177   O189    0.991   .     S
H178   O190    0.991   .     S
I183   N285    2.067   1_455 S
I184   N236    2.067   .     S
N185   Zn200   2.035   .     S
N185   I233    2.067   .     S
N185   N236    1.278   .     S
N186   Zn199   2.035   .     S
N186   N285    1.278   1_455 S
N186   I284    2.067   1_455 S
O187   Zn199   1.948   .     S
O191   Zn200   1.948   .     S
O192   Zn200   1.973   .     S
O193   Zn199   1.973   .     S
O194   Zn199   2.018   .     S
O195   Zn200   2.018   .     S
O196   Zn200   2.012   .     S
O197   Zn199   2.012   .     S
C201   O242    1.295   .     A
C201   O237    1.282   .     A
C201   C218    1.401   .     S
C202   C204    1.403   .     A
C202   C213    1.400   .     A
C202   O238    1.384   .     S
C203   C221    1.430   .     S
C203   C222    1.403   .     A
C203   C205    1.400   .     A
C204   C206    1.400   .     A
C204   C220    1.430   .     S
C205   I229    2.164   .     S
C205   C207    1.398   .     A
C206   I230    2.164   .     S
C206   C208    1.398   .     A
C207   C209    1.421   .     A
C207   C214    1.409   .     A
C208   C215    1.409   .     A
C208   C210    1.421   .     A
C209   C211    1.420   .     A
C209   C660    1.403   1_554 S
C210   C213    1.420   .     A
C210   C659    1.403   .     S
C211   C222    1.400   .     A
C211   C217    1.414   .     A
C212   O241    1.282   .     A
C212   O243    1.295   .     A
C212   C219    1.401   .     S
C213   C216    1.414   .     A
C214   I231    2.151   .     S
C214   C666    1.397   1_554 S
C215   I232    2.151   .     S
C215   C667    1.397   .     S
C216   O239    1.383   .     S
C216   C664    1.397   .     S
C217   O240    1.383   .     S
C217   C665    1.397   1_554 S
C218   C369    1.338   .     S
C218   H373    1.088   .     S
C220   O244    1.289   .     A
C220   O246    1.301   .     A
C221   O247    1.301   .     A
C221   O245    1.289   .     A
C222   O248    1.384   .     S
H224   C369    1.088   .     S
H225   O248    0.990   .     S
H226   O238    0.990   .     S
H227   O239    0.991   .     S
H228   O240    0.991   .     S
I234   N286    2.067   .     S
N235   Zn250   2.035   .     S
N235   I283    2.067   .     S
N235   N286    1.278   .     S
N236   Zn249   2.035   .     S
O237   Zn249   1.948   .     S
O241   Zn250   1.948   .     S
O242   Zn250   1.973   .     S
O243   Zn249   1.973   .     S
O244   Zn249   2.018   .     S
O245   Zn250   2.018   .     S
O246   Zn250   2.012   .     S
O247   Zn249   2.012   .     S
C251   O292    1.295   .     A
C251   O287    1.282   .     A
C251   C268    1.401   .     S
C252   C254    1.403   .     A
C252   C263    1.400   .     A
C252   O288    1.384   .     S
C253   C271    1.430   .     S
C253   C272    1.403   .     A
C253   C255    1.400   .     A
C254   C256    1.400   .     A
C254   C270    1.430   .     S
C255   I279    2.164   .     S
C255   C257    1.398   .     A
C256   I280    2.164   .     S
C256   C258    1.398   .     A
C257   C259    1.421   .     A
C257   C264    1.409   .     A
C258   C265    1.409   .     A
C258   C260    1.421   .     A
C259   C261    1.420   .     A
C259   C710    1.403   1_554 S
C260   C263    1.420   .     A
C260   C709    1.403   .     S
C261   C272    1.400   .     A
C261   C267    1.414   .     A
C262   O291    1.282   .     A
C262   O293    1.295   .     A
C262   C269    1.401   .     S
C263   C266    1.414   .     A
C264   I281    2.151   .     S
C264   C716    1.397   1_554 S
C265   I282    2.151   .     S
C265   C717    1.397   .     S
C266   O289    1.383   .     S
C266   C714    1.397   .     S
C267   O290    1.383   .     S
C267   C715    1.397   1_554 S
C268   C419    1.338   .     S
C268   H423    1.088   .     S
C270   O294    1.289   .     A
C270   O296    1.301   .     A
C271   O297    1.301   .     A
C271   O295    1.289   .     A
C272   O298    1.384   .     S
H274   C419    1.088   .     S
H275   O298    0.990   .     S
H276   O288    0.990   .     S
H277   O289    0.991   .     S
H278   O290    0.991   .     S
I284   N186    2.067   1_655 S
N285   Zn300   2.035   .     S
N285   I183    2.067   1_655 S
N285   N186    1.278   1_655 S
N286   Zn299   2.035   .     S
O287   Zn299   1.948   .     S
O291   Zn300   1.948   .     S
O292   Zn300   1.973   .     S
O293   Zn299   1.973   .     S
O294   Zn299   2.018   .     S
O295   Zn300   2.018   .     S
O296   Zn300   2.012   .     S
O297   Zn299   2.012   .     S
C301   O342    1.295   .     A
C301   O337    1.282   .     A
C301   C318    1.401   .     S
C302   C304    1.403   .     A
C302   C313    1.400   .     A
C302   O338    1.384   .     S
C303   C321    1.430   .     S
C303   C322    1.403   .     A
C303   C305    1.400   .     A
C304   C306    1.400   .     A
C304   C320    1.430   .     S
C305   I329    2.164   .     S
C305   C307    1.398   .     A
C306   I330    2.164   .     S
C306   C308    1.398   .     A
C307   C309    1.421   .     A
C307   C314    1.409   .     A
C308   C315    1.409   .     A
C308   C310    1.421   .     A
C309   C311    1.420   .     A
C309   C760    1.403   1_554 S
C310   C313    1.420   .     A
C310   C759    1.403   .     S
C311   C322    1.400   .     A
C311   C317    1.414   .     A
C312   O341    1.282   .     A
C312   O343    1.295   .     A
C312   C319    1.401   .     S
C313   C316    1.414   .     A
C314   I331    2.151   .     S
C314   C766    1.397   1_554 S
C315   I332    2.151   .     S
C315   C767    1.397   .     S
C316   O339    1.383   .     S
C316   C764    1.397   .     S
C317   O340    1.383   .     S
C317   C765    1.397   1_554 S
C318   C19     1.338   1_565 S
C318   H23     1.088   1_565 S
C320   O344    1.289   .     A
C320   O346    1.301   .     A
C321   O347    1.301   .     A
C321   O345    1.289   .     A
C322   O348    1.384   .     S
H324   C19     1.088   1_565 S
H325   O348    0.990   .     S
H326   O338    0.990   .     S
H327   O339    0.991   .     S
H328   O340    0.991   .     S
I333   N435    2.067   1_455 S
I334   N386    2.067   .     S
N335   Zn350   2.035   .     S
N335   I383    2.067   .     S
N335   N386    1.278   .     S
N336   Zn349   2.035   .     S
N336   N435    1.278   1_455 S
N336   I434    2.067   1_455 S
O337   Zn349   1.948   .     S
O341   Zn350   1.948   .     S
O342   Zn350   1.973   .     S
O343   Zn349   1.973   .     S
O344   Zn349   2.018   .     S
O345   Zn350   2.018   .     S
O346   Zn350   2.012   .     S
O347   Zn349   2.012   .     S
C351   O392    1.295   .     A
C351   O387    1.282   .     A
C351   C368    1.401   .     S
C352   C354    1.403   .     A
C352   C363    1.400   .     A
C352   O388    1.384   .     S
C353   C371    1.430   .     S
C353   C372    1.403   .     A
C353   C355    1.400   .     A
C354   C356    1.400   .     A
C354   C370    1.430   .     S
C355   I379    2.164   .     S
C355   C357    1.398   .     A
C356   I380    2.164   .     S
C356   C358    1.398   .     A
C357   C359    1.421   .     A
C357   C364    1.409   .     A
C358   C365    1.409   .     A
C358   C360    1.421   .     A
C359   C361    1.420   .     A
C359   C810    1.403   1_554 S
C360   C363    1.420   .     A
C360   C809    1.403   .     S
C361   C372    1.400   .     A
C361   C367    1.414   .     A
C362   O391    1.282   .     A
C362   O393    1.295   .     A
C362   C369    1.401   .     S
C363   C366    1.414   .     A
C364   I381    2.151   .     S
C364   C816    1.397   1_554 S
C365   I382    2.151   .     S
C365   C817    1.397   .     S
C366   O389    1.383   .     S
C366   C814    1.397   .     S
C367   O390    1.383   .     S
C367   C815    1.397   1_554 S
C368   C69     1.338   1_565 S
C368   H73     1.088   1_565 S
C370   O394    1.289   .     A
C370   O396    1.301   .     A
C371   O397    1.301   .     A
C371   O395    1.289   .     A
C372   O398    1.384   .     S
H374   C69     1.088   1_565 S
H375   O398    0.990   .     S
H376   O388    0.990   .     S
H377   O389    0.991   .     S
H378   O390    0.991   .     S
I384   N436    2.067   .     S
N385   Zn400   2.035   .     S
N385   I433    2.067   .     S
N385   N436    1.278   .     S
N386   Zn399   2.035   .     S
O387   Zn399   1.948   .     S
O391   Zn400   1.948   .     S
O392   Zn400   1.973   .     S
O393   Zn399   1.973   .     S
O394   Zn399   2.018   .     S
O395   Zn400   2.018   .     S
O396   Zn400   2.012   .     S
O397   Zn399   2.012   .     S
C401   O442    1.295   .     A
C401   O437    1.282   .     A
C401   C418    1.401   .     S
C402   C404    1.403   .     A
C402   C413    1.400   .     A
C402   O438    1.384   .     S
C403   C421    1.430   .     S
C403   C422    1.403   .     A
C403   C405    1.400   .     A
C404   C406    1.400   .     A
C404   C420    1.430   .     S
C405   I429    2.164   .     S
C405   C407    1.398   .     A
C406   I430    2.164   .     S
C406   C408    1.398   .     A
C407   C409    1.421   .     A
C407   C414    1.409   .     A
C408   C415    1.409   .     A
C408   C410    1.421   .     A
C409   C411    1.420   .     A
C409   C860    1.403   1_554 S
C410   C413    1.420   .     A
C410   C859    1.403   .     S
C411   C422    1.400   .     A
C411   C417    1.414   .     A
C412   O441    1.282   .     A
C412   O443    1.295   .     A
C412   C419    1.401   .     S
C413   C416    1.414   .     A
C414   I431    2.151   .     S
C414   C866    1.397   1_554 S
C415   I432    2.151   .     S
C415   C867    1.397   .     S
C416   O439    1.383   .     S
C416   C864    1.397   .     S
C417   O440    1.383   .     S
C417   C865    1.397   1_554 S
C418   C119    1.338   1_565 S
C418   H123    1.088   1_565 S
C420   O444    1.289   .     A
C420   O446    1.301   .     A
C421   O447    1.301   .     A
C421   O445    1.289   .     A
C422   O448    1.384   .     S
H424   C119    1.088   1_565 S
H425   O448    0.990   .     S
H426   O438    0.990   .     S
H427   O439    0.991   .     S
H428   O440    0.991   .     S
I434   N336    2.067   1_655 S
N435   Zn450   2.035   .     S
N435   I333    2.067   1_655 S
N435   N336    1.278   1_655 S
N436   Zn449   2.035   .     S
O437   Zn449   1.948   .     S
O441   Zn450   1.948   .     S
O442   Zn450   1.973   .     S
O443   Zn449   1.973   .     S
O444   Zn449   2.018   .     S
O445   Zn450   2.018   .     S
O446   Zn450   2.012   .     S
O447   Zn449   2.012   .     S
C451   O492    1.295   .     A
C451   O487    1.282   .     A
C451   C468    1.401   .     S
C452   C454    1.403   .     A
C452   C463    1.400   .     A
C452   O488    1.384   .     S
C453   C471    1.430   .     S
C453   C472    1.403   .     A
C453   C455    1.400   .     A
C454   C456    1.400   .     A
C454   C470    1.430   .     S
C455   I479    2.164   .     S
C455   C457    1.398   .     A
C456   I480    2.164   .     S
C456   C458    1.398   .     A
C457   C459    1.421   .     A
C457   C464    1.409   .     A
C458   C465    1.409   .     A
C458   C460    1.421   .     A
C459   C461    1.420   .     A
C460   C463    1.420   .     A
C460   C9      1.403   1_556 S
C461   C472    1.400   .     A
C461   C467    1.414   .     A
C462   O491    1.282   .     A
C462   O493    1.295   .     A
C462   C469    1.401   .     S
C463   C466    1.414   .     A
C464   I481    2.151   .     S
C465   I482    2.151   .     S
C465   C17     1.397   1_556 S
C466   O489    1.383   .     S
C466   C14     1.397   1_556 S
C467   O490    1.383   .     S
C468   C619    1.338   .     S
C468   H623    1.088   .     S
C469   C768    1.338   1_545 S
C469   H774    1.088   1_545 S
C470   O494    1.289   .     A
C470   O496    1.301   .     A
C471   O497    1.301   .     A
C471   O495    1.289   .     A
C472   O498    1.384   .     S
H473   C768    1.088   1_545 S
H474   C619    1.088   .     S
H475   O498    0.990   .     S
H476   O488    0.990   .     S
H477   O489    0.991   .     S
H478   O490    0.991   .     S
I483   N585    2.067   1_455 S
I484   N536    2.067   .     S
N485   Zn500   2.035   .     S
N485   I533    2.067   .     S
N485   N536    1.278   .     S
N486   Zn499   2.035   .     S
N486   N585    1.278   1_455 S
N486   I584    2.067   1_455 S
O487   Zn499   1.948   .     S
O491   Zn500   1.948   .     S
O492   Zn500   1.973   .     S
O493   Zn499   1.973   .     S
O494   Zn499   2.018   .     S
O495   Zn500   2.018   .     S
O496   Zn500   2.012   .     S
O497   Zn499   2.012   .     S
C501   O542    1.295   .     A
C501   O537    1.282   .     A
C501   C518    1.401   .     S
C502   C504    1.403   .     A
C502   C513    1.400   .     A
C502   O538    1.384   .     S
C503   C521    1.430   .     S
C503   C522    1.403   .     A
C503   C505    1.400   .     A
C504   C506    1.400   .     A
C504   C520    1.430   .     S
C505   I529    2.164   .     S
C505   C507    1.398   .     A
C506   I530    2.164   .     S
C506   C508    1.398   .     A
C507   C509    1.421   .     A
C507   C514    1.409   .     A
C508   C515    1.409   .     A
C508   C510    1.421   .     A
C509   C511    1.420   .     A
C510   C513    1.420   .     A
C510   C59     1.403   1_556 S
C511   C522    1.400   .     A
C511   C517    1.414   .     A
C512   O541    1.282   .     A
C512   O543    1.295   .     A
C512   C519    1.401   .     S
C513   C516    1.414   .     A
C514   I531    2.151   .     S
C515   I532    2.151   .     S
C515   C67     1.397   1_556 S
C516   O539    1.383   .     S
C516   C64     1.397   1_556 S
C517   O540    1.383   .     S
C518   C669    1.338   .     S
C518   H673    1.088   .     S
C519   C818    1.338   1_545 S
C519   H824    1.088   1_545 S
C520   O544    1.289   .     A
C520   O546    1.301   .     A
C521   O547    1.301   .     A
C521   O545    1.289   .     A
C522   O548    1.384   .     S
H523   C818    1.088   1_545 S
H524   C669    1.088   .     S
H525   O548    0.990   .     S
H526   O538    0.990   .     S
H527   O539    0.991   .     S
H528   O540    0.991   .     S
I534   N586    2.067   .     S
N535   Zn550   2.035   .     S
N535   I583    2.067   .     S
N535   N586    1.278   .     S
N536   Zn549   2.035   .     S
O537   Zn549   1.948   .     S
O541   Zn550   1.948   .     S
O542   Zn550   1.973   .     S
O543   Zn549   1.973   .     S
O544   Zn549   2.018   .     S
O545   Zn550   2.018   .     S
O546   Zn550   2.012   .     S
O547   Zn549   2.012   .     S
C551   O592    1.295   .     A
C551   O587    1.282   .     A
C551   C568    1.401   .     S
C552   C554    1.403   .     A
C552   C563    1.400   .     A
C552   O588    1.384   .     S
C553   C571    1.430   .     S
C553   C572    1.403   .     A
C553   C555    1.400   .     A
C554   C556    1.400   .     A
C554   C570    1.430   .     S
C555   I579    2.164   .     S
C555   C557    1.398   .     A
C556   I580    2.164   .     S
C556   C558    1.398   .     A
C557   C559    1.421   .     A
C557   C564    1.409   .     A
C558   C565    1.409   .     A
C558   C560    1.421   .     A
C559   C561    1.420   .     A
C560   C563    1.420   .     A
C560   C109    1.403   1_556 S
C561   C572    1.400   .     A
C561   C567    1.414   .     A
C562   O591    1.282   .     A
C562   O593    1.295   .     A
C562   C569    1.401   .     S
C563   C566    1.414   .     A
C564   I581    2.151   .     S
C565   I582    2.151   .     S
C565   C117    1.397   1_556 S
C566   O589    1.383   .     S
C566   C114    1.397   1_556 S
C567   O590    1.383   .     S
C568   C719    1.338   .     S
C568   H723    1.088   .     S
C569   C868    1.338   1_545 S
C569   H874    1.088   1_545 S
C570   O594    1.289   .     A
C570   O596    1.301   .     A
C571   O597    1.301   .     A
C571   O595    1.289   .     A
C572   O598    1.384   .     S
H573   C868    1.088   1_545 S
H574   C719    1.088   .     S
H575   O598    0.990   .     S
H576   O588    0.990   .     S
H577   O589    0.991   .     S
H578   O590    0.991   .     S
I584   N486    2.067   1_655 S
N585   Zn600   2.035   .     S
N585   I483    2.067   1_655 S
N585   N486    1.278   1_655 S
N586   Zn599   2.035   .     S
O587   Zn599   1.948   .     S
O591   Zn600   1.948   .     S
O592   Zn600   1.973   .     S
O593   Zn599   1.973   .     S
O594   Zn599   2.018   .     S
O595   Zn600   2.018   .     S
O596   Zn600   2.012   .     S
O597   Zn599   2.012   .     S
C601   O642    1.295   .     A
C601   O637    1.282   .     A
C601   C618    1.401   .     S
C602   C604    1.403   .     A
C602   C613    1.400   .     A
C602   O638    1.384   .     S
C603   C621    1.430   .     S
C603   C622    1.403   .     A
C603   C605    1.400   .     A
C604   C606    1.400   .     A
C604   C620    1.430   .     S
C605   I629    2.164   .     S
C605   C607    1.398   .     A
C606   I630    2.164   .     S
C606   C608    1.398   .     A
C607   C609    1.421   .     A
C607   C614    1.409   .     A
C608   C615    1.409   .     A
C608   C610    1.421   .     A
C609   C611    1.420   .     A
C610   C613    1.420   .     A
C610   C159    1.403   1_556 S
C611   C622    1.400   .     A
C611   C617    1.414   .     A
C612   O641    1.282   .     A
C612   O643    1.295   .     A
C612   C619    1.401   .     S
C613   C616    1.414   .     A
C614   I631    2.151   .     S
C615   I632    2.151   .     S
C615   C167    1.397   1_556 S
C616   O639    1.383   .     S
C616   C164    1.397   1_556 S
C617   O640    1.383   .     S
C618   C769    1.338   .     S
C618   H773    1.088   .     S
C620   O644    1.289   .     A
C620   O646    1.301   .     A
C621   O647    1.301   .     A
C621   O645    1.289   .     A
C622   O648    1.384   .     S
H624   C769    1.088   .     S
H625   O648    0.990   .     S
H626   O638    0.990   .     S
H627   O639    0.991   .     S
H628   O640    0.991   .     S
I633   N735    2.067   1_455 S
I634   N686    2.067   .     S
N635   Zn650   2.035   .     S
N635   I683    2.067   .     S
N635   N686    1.278   .     S
N636   Zn649   2.035   .     S
N636   N735    1.278   1_455 S
N636   I734    2.067   1_455 S
O637   Zn649   1.948   .     S
O641   Zn650   1.948   .     S
O642   Zn650   1.973   .     S
O643   Zn649   1.973   .     S
O644   Zn649   2.018   .     S
O645   Zn650   2.018   .     S
O646   Zn650   2.012   .     S
O647   Zn649   2.012   .     S
C651   O692    1.295   .     A
C651   O687    1.282   .     A
C651   C668    1.401   .     S
C652   C654    1.403   .     A
C652   C663    1.400   .     A
C652   O688    1.384   .     S
C653   C671    1.430   .     S
C653   C672    1.403   .     A
C653   C655    1.400   .     A
C654   C656    1.400   .     A
C654   C670    1.430   .     S
C655   I679    2.164   .     S
C655   C657    1.398   .     A
C656   I680    2.164   .     S
C656   C658    1.398   .     A
C657   C659    1.421   .     A
C657   C664    1.409   .     A
C658   C665    1.409   .     A
C658   C660    1.421   .     A
C659   C661    1.420   .     A
C660   C663    1.420   .     A
C660   C209    1.403   1_556 S
C661   C672    1.400   .     A
C661   C667    1.414   .     A
C662   O691    1.282   .     A
C662   O693    1.295   .     A
C662   C669    1.401   .     S
C663   C666    1.414   .     A
C664   I681    2.151   .     S
C665   I682    2.151   .     S
C665   C217    1.397   1_556 S
C666   O689    1.383   .     S
C666   C214    1.397   1_556 S
C667   O690    1.383   .     S
C668   C819    1.338   .     S
C668   H823    1.088   .     S
C670   O694    1.289   .     A
C670   O696    1.301   .     A
C671   O697    1.301   .     A
C671   O695    1.289   .     A
C672   O698    1.384   .     S
H674   C819    1.088   .     S
H675   O698    0.990   .     S
H676   O688    0.990   .     S
H677   O689    0.991   .     S
H678   O690    0.991   .     S
I684   N736    2.067   .     S
N685   Zn700   2.035   .     S
N685   I733    2.067   .     S
N685   N736    1.278   .     S
N686   Zn699   2.035   .     S
O687   Zn699   1.948   .     S
O691   Zn700   1.948   .     S
O692   Zn700   1.973   .     S
O693   Zn699   1.973   .     S
O694   Zn699   2.018   .     S
O695   Zn700   2.018   .     S
O696   Zn700   2.012   .     S
O697   Zn699   2.012   .     S
C701   O742    1.295   .     A
C701   O737    1.282   .     A
C701   C718    1.401   .     S
C702   C704    1.403   .     A
C702   C713    1.400   .     A
C702   O738    1.384   .     S
C703   C721    1.430   .     S
C703   C722    1.403   .     A
C703   C705    1.400   .     A
C704   C706    1.400   .     A
C704   C720    1.430   .     S
C705   I729    2.164   .     S
C705   C707    1.398   .     A
C706   I730    2.164   .     S
C706   C708    1.398   .     A
C707   C709    1.421   .     A
C707   C714    1.409   .     A
C708   C715    1.409   .     A
C708   C710    1.421   .     A
C709   C711    1.420   .     A
C710   C713    1.420   .     A
C710   C259    1.403   1_556 S
C711   C722    1.400   .     A
C711   C717    1.414   .     A
C712   O741    1.282   .     A
C712   O743    1.295   .     A
C712   C719    1.401   .     S
C713   C716    1.414   .     A
C714   I731    2.151   .     S
C715   I732    2.151   .     S
C715   C267    1.397   1_556 S
C716   O739    1.383   .     S
C716   C264    1.397   1_556 S
C717   O740    1.383   .     S
C718   C869    1.338   .     S
C718   H873    1.088   .     S
C720   O744    1.289   .     A
C720   O746    1.301   .     A
C721   O747    1.301   .     A
C721   O745    1.289   .     A
C722   O748    1.384   .     S
H724   C869    1.088   .     S
H725   O748    0.990   .     S
H726   O738    0.990   .     S
H727   O739    0.991   .     S
H728   O740    0.991   .     S
I734   N636    2.067   1_655 S
N735   Zn750   2.035   .     S
N735   I633    2.067   1_655 S
N735   N636    1.278   1_655 S
N736   Zn749   2.035   .     S
O737   Zn749   1.948   .     S
O741   Zn750   1.948   .     S
O742   Zn750   1.973   .     S
O743   Zn749   1.973   .     S
O744   Zn749   2.018   .     S
O745   Zn750   2.018   .     S
O746   Zn750   2.012   .     S
O747   Zn749   2.012   .     S
C751   O792    1.295   .     A
C751   O787    1.282   .     A
C751   C768    1.401   .     S
C752   C754    1.403   .     A
C752   C763    1.400   .     A
C752   O788    1.384   .     S
C753   C771    1.430   .     S
C753   C772    1.403   .     A
C753   C755    1.400   .     A
C754   C756    1.400   .     A
C754   C770    1.430   .     S
C755   I779    2.164   .     S
C755   C757    1.398   .     A
C756   I780    2.164   .     S
C756   C758    1.398   .     A
C757   C759    1.421   .     A
C757   C764    1.409   .     A
C758   C765    1.409   .     A
C758   C760    1.421   .     A
C759   C761    1.420   .     A
C760   C763    1.420   .     A
C760   C309    1.403   1_556 S
C761   C772    1.400   .     A
C761   C767    1.414   .     A
C762   O791    1.282   .     A
C762   O793    1.295   .     A
C762   C769    1.401   .     S
C763   C766    1.414   .     A
C764   I781    2.151   .     S
C765   I782    2.151   .     S
C765   C317    1.397   1_556 S
C766   O789    1.383   .     S
C766   C314    1.397   1_556 S
C767   O790    1.383   .     S
C768   C469    1.338   1_565 S
C768   H473    1.088   1_565 S
C770   O794    1.289   .     A
C770   O796    1.301   .     A
C771   O797    1.301   .     A
C771   O795    1.289   .     A
C772   O798    1.384   .     S
H774   C469    1.088   1_565 S
H775   O798    0.990   .     S
H776   O788    0.990   .     S
H777   O789    0.991   .     S
H778   O790    0.991   .     S
I783   N885    2.067   1_455 S
I784   N836    2.067   .     S
N785   Zn800   2.035   .     S
N785   I833    2.067   .     S
N785   N836    1.278   .     S
N786   Zn799   2.035   .     S
N786   N885    1.278   1_455 S
N786   I884    2.067   1_455 S
O787   Zn799   1.948   .     S
O791   Zn800   1.948   .     S
O792   Zn800   1.973   .     S
O793   Zn799   1.973   .     S
O794   Zn799   2.018   .     S
O795   Zn800   2.018   .     S
O796   Zn800   2.012   .     S
O797   Zn799   2.012   .     S
C801   O842    1.295   .     A
C801   O837    1.282   .     A
C801   C818    1.401   .     S
C802   C804    1.403   .     A
C802   C813    1.400   .     A
C802   O838    1.384   .     S
C803   C821    1.430   .     S
C803   C822    1.403   .     A
C803   C805    1.400   .     A
C804   C806    1.400   .     A
C804   C820    1.430   .     S
C805   I829    2.164   .     S
C805   C807    1.398   .     A
C806   I830    2.164   .     S
C806   C808    1.398   .     A
C807   C809    1.421   .     A
C807   C814    1.409   .     A
C808   C815    1.409   .     A
C808   C810    1.421   .     A
C809   C811    1.420   .     A
C810   C813    1.420   .     A
C810   C359    1.403   1_556 S
C811   C822    1.400   .     A
C811   C817    1.414   .     A
C812   O841    1.282   .     A
C812   O843    1.295   .     A
C812   C819    1.401   .     S
C813   C816    1.414   .     A
C814   I831    2.151   .     S
C815   I832    2.151   .     S
C815   C367    1.397   1_556 S
C816   O839    1.383   .     S
C816   C364    1.397   1_556 S
C817   O840    1.383   .     S
C818   C519    1.338   1_565 S
C818   H523    1.088   1_565 S
C820   O844    1.289   .     A
C820   O846    1.301   .     A
C821   O847    1.301   .     A
C821   O845    1.289   .     A
C822   O848    1.384   .     S
H824   C519    1.088   1_565 S
H825   O848    0.990   .     S
H826   O838    0.990   .     S
H827   O839    0.991   .     S
H828   O840    0.991   .     S
I834   N886    2.067   .     S
N835   Zn850   2.035   .     S
N835   I883    2.067   .     S
N835   N886    1.278   .     S
N836   Zn849   2.035   .     S
O837   Zn849   1.948   .     S
O841   Zn850   1.948   .     S
O842   Zn850   1.973   .     S
O843   Zn849   1.973   .     S
O844   Zn849   2.018   .     S
O845   Zn850   2.018   .     S
O846   Zn850   2.012   .     S
O847   Zn849   2.012   .     S
C851   O892    1.295   .     A
C851   O887    1.282   .     A
C851   C868    1.401   .     S
C852   C854    1.403   .     A
C852   C863    1.400   .     A
C852   O888    1.384   .     S
C853   C871    1.430   .     S
C853   C872    1.403   .     A
C853   C855    1.400   .     A
C854   C856    1.400   .     A
C854   C870    1.430   .     S
C855   I879    2.164   .     S
C855   C857    1.398   .     A
C856   I880    2.164   .     S
C856   C858    1.398   .     A
C857   C859    1.421   .     A
C857   C864    1.409   .     A
C858   C865    1.409   .     A
C858   C860    1.421   .     A
C859   C861    1.420   .     A
C860   C863    1.420   .     A
C860   C409    1.403   1_556 S
C861   C872    1.400   .     A
C861   C867    1.414   .     A
C862   O891    1.282   .     A
C862   O893    1.295   .     A
C862   C869    1.401   .     S
C863   C866    1.414   .     A
C864   I881    2.151   .     S
C865   I882    2.151   .     S
C865   C417    1.397   1_556 S
C866   O889    1.383   .     S
C866   C414    1.397   1_556 S
C867   O890    1.383   .     S
C868   C569    1.338   1_565 S
C868   H573    1.088   1_565 S
C870   O894    1.289   .     A
C870   O896    1.301   .     A
C871   O897    1.301   .     A
C871   O895    1.289   .     A
C872   O898    1.384   .     S
H874   C569    1.088   1_565 S
H875   O898    0.990   .     S
H876   O888    0.990   .     S
H877   O889    0.991   .     S
H878   O890    0.991   .     S
I884   N786    2.067   1_655 S
N885   Zn900   2.035   .     S
N885   I783    2.067   1_655 S
N885   N786    1.278   1_655 S
N886   Zn899   2.035   .     S
O887   Zn899   1.948   .     S
O891   Zn900   1.948   .     S
O892   Zn900   1.973   .     S
O893   Zn899   1.973   .     S
O894   Zn899   2.018   .     S
O895   Zn900   2.018   .     S
O896   Zn900   2.012   .     S
O897   Zn899   2.012   .     S
