data_str_m3_o2_o10_pcu_sym.61
_audit_creation_date              2020-01-03
_audit_creation_method            'Materials Studio'
_symmetry_space_group_name_H-M    'P1'
_symmetry_Int_Tables_number       1
_symmetry_cell_setting            triclinic
loop_
_symmetry_equiv_pos_as_xyz
  x,y,z
_cell_length_a                    25.7846
_cell_length_b                    29.9758
_cell_length_c                    28.4904
_cell_angle_alpha                 91.1377
_cell_angle_beta                  99.3285
_cell_angle_gamma                 89.7079
loop_
_atom_site_label
_atom_site_type_symbol
_atom_site_fract_x
_atom_site_fract_y
_atom_site_fract_z
_atom_site_U_iso_or_equiv
_atom_site_adp_type
_atom_site_occupancy
O1     O     0.16667   0.18453   0.28974   0.00000  Uiso   1.00
O2     O     0.16666   0.31546   0.21026   0.00000  Uiso   1.00
O3     O     0.16667   0.18453   0.21026   0.00000  Uiso   1.00
O4     O     0.16666   0.31547   0.28974   0.00000  Uiso   1.00
C5     C     0.16803   0.16390   0.24987   0.00000  Uiso   1.00
C6     C     0.16601   0.33578   0.25028   0.00000  Uiso   1.00
O7     O     0.09058   0.25000   0.28045   0.00000  Uiso   1.00
O8     O     0.24275   0.25000   0.21956   0.00000  Uiso   1.00
O9     O     0.09058   0.24999   0.20097   0.00000  Uiso   1.00
O10    O     0.24275   0.25000   0.29904   0.00000  Uiso   1.00
C11    C     0.06699   0.24956   0.23742   0.00000  Uiso   1.00
C12    C     0.26634   0.25006   0.26258   0.00000  Uiso   1.00
Zn13   Zn    0.16667   0.25000   0.30307   0.00000  Uiso   1.00
Zn14   Zn    0.16667   0.24999   0.19693   0.00000  Uiso   1.00
C15    C     0.01178   0.24985   0.23083   0.00000  Uiso   1.00
C16    C     0.32154   0.24978   0.26925   0.00000  Uiso   1.00
H17    H     0.32402   0.25055   0.19459   0.00000  Uiso   1.00
H18    H     0.00926   0.24940   0.30556   0.00000  Uiso   1.00
C19    C     0.14817   0.04825   0.28649   0.00000  Uiso   1.00
C20    C     0.21419   0.45057   0.24613   0.00000  Uiso   1.00
H21    H     0.13063   0.03213   0.31377   0.00000  Uiso   1.00
H22    H     0.25050   0.46679   0.24175   0.00000  Uiso   1.00
C23    C     0.14716   0.09411   0.28450   0.00000  Uiso   1.00
C24    C     0.21168   0.40463   0.24397   0.00000  Uiso   1.00
H25    H     0.12771   0.11265   0.30972   0.00000  Uiso   1.00
H26    H     0.24594   0.38561   0.23790   0.00000  Uiso   1.00
C27    C     0.17072   0.11582   0.25031   0.00000  Uiso   1.00
C28    C     0.16567   0.38329   0.25092   0.00000  Uiso   1.00
C29    C     0.19644   0.09117   0.21811   0.00000  Uiso   1.00
C30    C     0.12119   0.40750   0.25971   0.00000  Uiso   1.00
C31    C     0.19493   0.04489   0.21905   0.00000  Uiso   1.00
C32    C     0.12395   0.45374   0.26099   0.00000  Uiso   1.00
H33    H     0.21304   0.02555   0.19353   0.00000  Uiso   1.00
H34    H     0.08945   0.47300   0.26576   0.00000  Uiso   1.00
C35    C     0.17134   0.02352   0.25335   0.00000  Uiso   1.00
C36    C     0.17010   0.47522   0.25401   0.00000  Uiso   1.00
C37    C     0.12902   0.22682   0.04608   0.00000  Uiso   1.00
C38    C     0.18932   0.28440   0.45207   0.00000  Uiso   1.00
H39    H     0.09831   0.20877   0.02306   0.00000  Uiso   1.00
H40    H     0.20628   0.31262   0.47337   0.00000  Uiso   1.00
C41    C     0.12945   0.22658   0.09550   0.00000  Uiso   1.00
C42    C     0.18956   0.28422   0.40273   0.00000  Uiso   1.00
N43    N     0.16667   0.24999   0.12624   0.00000  Uiso   1.00
N44    N     0.16667   0.25001   0.37377   0.00000  Uiso   1.00
C45    C     0.20466   0.27271   0.10849   0.00000  Uiso   1.00
C46    C     0.14456   0.21529   0.39361   0.00000  Uiso   1.00
H47    H     0.23442   0.29067   0.13263   0.00000  Uiso   1.00
H48    H     0.12684   0.18817   0.37109   0.00000  Uiso   1.00
C49    C     0.20635   0.27242   0.05924   0.00000  Uiso   1.00
C50    C     0.14505   0.21388   0.44316   0.00000  Uiso   1.00
H51    H     0.23825   0.28971   0.04707   0.00000  Uiso   1.00
H52    H     0.12841   0.18502   0.45730   0.00000  Uiso   1.00
C53    C     0.16783   0.24941   0.02680   0.00000  Uiso   1.00
C54    C     0.16753   0.24899   0.47353   0.00000  Uiso   1.00
N55    N     0.22640   0.11214   0.18640   0.00000  Uiso   1.00
O56    O     0.25841   0.14457   0.20186   0.00000  Uiso   1.00
O57    O     0.22896   0.09380   0.14504   0.00000  Uiso   1.00
N58    N     0.07299   0.38606   0.26586   0.00000  Uiso   1.00
O59    O     0.05673   0.35062   0.24083   0.00000  Uiso   1.00
O60    O     0.04152   0.40545   0.29136   0.00000  Uiso   1.00
C61    C     0.09208   0.19670   0.11279   0.00000  Uiso   1.00
C62    C     0.10701   0.15249   0.12293   0.00000  Uiso   1.00
C63    C     0.07116   0.12233   0.13604   0.00000  Uiso   1.00
C64    C     0.01952   0.13575   0.13726   0.00000  Uiso   1.00
C65    C     0.00351   0.17925   0.12506   0.00000  Uiso   1.00
C66    C     0.03962   0.20967   0.11241   0.00000  Uiso   1.00
H67    H     0.14639   0.14149   0.12032   0.00000  Uiso   1.00
H68    H     0.08325   0.08842   0.14464   0.00000  Uiso   1.00
H69    H     0.32530   0.11207   0.14702   0.00000  Uiso   1.00
H70    H     0.29650   0.18935   0.12520   0.00000  Uiso   1.00
H71    H     0.02686   0.24315   0.10248   0.00000  Uiso   1.00
C72    C     0.21652   0.32147   0.38415   0.00000  Uiso   1.00
C73    C     0.26826   0.31620   0.37553   0.00000  Uiso   1.00
C74    C     0.29538   0.35253   0.36137   0.00000  Uiso   1.00
C75    C     0.27153   0.39456   0.35708   0.00000  Uiso   1.00
C76    C     0.22053   0.40032   0.36695   0.00000  Uiso   1.00
C77    C     0.19313   0.36397   0.38074   0.00000  Uiso   1.00
H78    H     0.28780   0.28417   0.38039   0.00000  Uiso   1.00
H79    H     0.00179   0.34817   0.35433   0.00000  Uiso   1.00
H80    H     0.29260   0.42272   0.34630   0.00000  Uiso   1.00
H81    H     0.20220   0.43292   0.36383   0.00000  Uiso   1.00
H82    H     0.15377   0.36885   0.38866   0.00000  Uiso   1.00
O83    O     0.50000   0.18453   0.28974   0.00000  Uiso   1.00
O84    O     0.50000   0.31546   0.21026   0.00000  Uiso   1.00
O85    O     0.50000   0.18453   0.21026   0.00000  Uiso   1.00
O86    O     0.50000   0.31547   0.28974   0.00000  Uiso   1.00
C87    C     0.50137   0.16390   0.24987   0.00000  Uiso   1.00
C88    C     0.49934   0.33578   0.25028   0.00000  Uiso   1.00
O89    O     0.42392   0.25000   0.28045   0.00000  Uiso   1.00
O90    O     0.57608   0.25000   0.21956   0.00000  Uiso   1.00
O91    O     0.42392   0.24999   0.20097   0.00000  Uiso   1.00
O92    O     0.57608   0.25000   0.29904   0.00000  Uiso   1.00
C93    C     0.40032   0.24956   0.23742   0.00000  Uiso   1.00
C94    C     0.59968   0.25006   0.26258   0.00000  Uiso   1.00
Zn95   Zn    0.50000   0.25000   0.30307   0.00000  Uiso   1.00
Zn96   Zn    0.50000   0.24999   0.19693   0.00000  Uiso   1.00
C97    C     0.34511   0.24985   0.23083   0.00000  Uiso   1.00
C98    C     0.65488   0.24978   0.26925   0.00000  Uiso   1.00
H99    H     0.65735   0.25055   0.19459   0.00000  Uiso   1.00
H100   H     0.34259   0.24940   0.30556   0.00000  Uiso   1.00
C101   C     0.48151   0.04825   0.28649   0.00000  Uiso   1.00
C102   C     0.54753   0.45057   0.24613   0.00000  Uiso   1.00
H103   H     0.46396   0.03213   0.31377   0.00000  Uiso   1.00
H104   H     0.58383   0.46679   0.24175   0.00000  Uiso   1.00
C105   C     0.48050   0.09411   0.28450   0.00000  Uiso   1.00
C106   C     0.54501   0.40463   0.24397   0.00000  Uiso   1.00
H107   H     0.46105   0.11265   0.30972   0.00000  Uiso   1.00
H108   H     0.57928   0.38561   0.23790   0.00000  Uiso   1.00
C109   C     0.50405   0.11582   0.25031   0.00000  Uiso   1.00
C110   C     0.49900   0.38329   0.25092   0.00000  Uiso   1.00
C111   C     0.52978   0.09117   0.21811   0.00000  Uiso   1.00
C112   C     0.45452   0.40750   0.25971   0.00000  Uiso   1.00
C113   C     0.52826   0.04489   0.21905   0.00000  Uiso   1.00
C114   C     0.45728   0.45374   0.26099   0.00000  Uiso   1.00
H115   H     0.54638   0.02555   0.19353   0.00000  Uiso   1.00
H116   H     0.42278   0.47300   0.26576   0.00000  Uiso   1.00
C117   C     0.50468   0.02352   0.25335   0.00000  Uiso   1.00
C118   C     0.50343   0.47522   0.25401   0.00000  Uiso   1.00
C119   C     0.46235   0.22682   0.04608   0.00000  Uiso   1.00
C120   C     0.52265   0.28440   0.45207   0.00000  Uiso   1.00
H121   H     0.43164   0.20877   0.02306   0.00000  Uiso   1.00
H122   H     0.53961   0.31262   0.47337   0.00000  Uiso   1.00
C123   C     0.46278   0.22658   0.09550   0.00000  Uiso   1.00
C124   C     0.52289   0.28422   0.40273   0.00000  Uiso   1.00
N125   N     0.50000   0.24999   0.12624   0.00000  Uiso   1.00
N126   N     0.50000   0.25001   0.37377   0.00000  Uiso   1.00
C127   C     0.53799   0.27271   0.10849   0.00000  Uiso   1.00
C128   C     0.47790   0.21529   0.39361   0.00000  Uiso   1.00
H129   H     0.56776   0.29067   0.13263   0.00000  Uiso   1.00
H130   H     0.46018   0.18817   0.37109   0.00000  Uiso   1.00
C131   C     0.53968   0.27242   0.05924   0.00000  Uiso   1.00
C132   C     0.47839   0.21388   0.44316   0.00000  Uiso   1.00
H133   H     0.57158   0.28971   0.04707   0.00000  Uiso   1.00
H134   H     0.46175   0.18502   0.45730   0.00000  Uiso   1.00
C135   C     0.50116   0.24941   0.02680   0.00000  Uiso   1.00
C136   C     0.50086   0.24899   0.47353   0.00000  Uiso   1.00
N137   N     0.55973   0.11214   0.18640   0.00000  Uiso   1.00
O138   O     0.59175   0.14457   0.20186   0.00000  Uiso   1.00
O139   O     0.56230   0.09380   0.14504   0.00000  Uiso   1.00
N140   N     0.40632   0.38606   0.26586   0.00000  Uiso   1.00
O141   O     0.39006   0.35062   0.24083   0.00000  Uiso   1.00
O142   O     0.37485   0.40545   0.29136   0.00000  Uiso   1.00
C143   C     0.42541   0.19670   0.11279   0.00000  Uiso   1.00
C144   C     0.44035   0.15249   0.12293   0.00000  Uiso   1.00
C145   C     0.40450   0.12233   0.13604   0.00000  Uiso   1.00
C146   C     0.35285   0.13575   0.13726   0.00000  Uiso   1.00
C147   C     0.33685   0.17925   0.12506   0.00000  Uiso   1.00
C148   C     0.37296   0.20967   0.11241   0.00000  Uiso   1.00
H149   H     0.47973   0.14149   0.12032   0.00000  Uiso   1.00
H150   H     0.41658   0.08842   0.14464   0.00000  Uiso   1.00
H151   H     0.65863   0.11207   0.14702   0.00000  Uiso   1.00
H152   H     0.62983   0.18935   0.12520   0.00000  Uiso   1.00
H153   H     0.36019   0.24315   0.10248   0.00000  Uiso   1.00
C154   C     0.54985   0.32147   0.38415   0.00000  Uiso   1.00
C155   C     0.60159   0.31620   0.37553   0.00000  Uiso   1.00
C156   C     0.62872   0.35253   0.36137   0.00000  Uiso   1.00
C157   C     0.60487   0.39456   0.35708   0.00000  Uiso   1.00
C158   C     0.55386   0.40032   0.36695   0.00000  Uiso   1.00
C159   C     0.52646   0.36397   0.38074   0.00000  Uiso   1.00
H160   H     0.62113   0.28417   0.38039   0.00000  Uiso   1.00
H161   H     0.33512   0.34817   0.35433   0.00000  Uiso   1.00
H162   H     0.62594   0.42272   0.34630   0.00000  Uiso   1.00
H163   H     0.53553   0.43292   0.36383   0.00000  Uiso   1.00
H164   H     0.48711   0.36885   0.38866   0.00000  Uiso   1.00
O165   O     0.83334   0.18453   0.28974   0.00000  Uiso   1.00
O166   O     0.83333   0.31546   0.21026   0.00000  Uiso   1.00
O167   O     0.83334   0.18453   0.21026   0.00000  Uiso   1.00
O168   O     0.83333   0.31547   0.28974   0.00000  Uiso   1.00
C169   C     0.83470   0.16390   0.24987   0.00000  Uiso   1.00
C170   C     0.83267   0.33578   0.25028   0.00000  Uiso   1.00
O171   O     0.75725   0.25000   0.28045   0.00000  Uiso   1.00
O172   O     0.90942   0.25000   0.21956   0.00000  Uiso   1.00
O173   O     0.75725   0.24999   0.20097   0.00000  Uiso   1.00
O174   O     0.90942   0.25000   0.29904   0.00000  Uiso   1.00
C175   C     0.73366   0.24956   0.23742   0.00000  Uiso   1.00
C176   C     0.93301   0.25006   0.26258   0.00000  Uiso   1.00
Zn177  Zn    0.83333   0.25000   0.30307   0.00000  Uiso   1.00
Zn178  Zn    0.83333   0.24999   0.19693   0.00000  Uiso   1.00
C179   C     0.67845   0.24985   0.23083   0.00000  Uiso   1.00
C180   C     0.98821   0.24978   0.26925   0.00000  Uiso   1.00
H181   H     0.99068   0.25055   0.19459   0.00000  Uiso   1.00
H182   H     0.67593   0.24940   0.30556   0.00000  Uiso   1.00
C183   C     0.81484   0.04825   0.28649   0.00000  Uiso   1.00
C184   C     0.88086   0.45057   0.24613   0.00000  Uiso   1.00
H185   H     0.79730   0.03213   0.31377   0.00000  Uiso   1.00
H186   H     0.91717   0.46679   0.24175   0.00000  Uiso   1.00
C187   C     0.81383   0.09411   0.28450   0.00000  Uiso   1.00
C188   C     0.87834   0.40463   0.24397   0.00000  Uiso   1.00
H189   H     0.79438   0.11265   0.30972   0.00000  Uiso   1.00
H190   H     0.91261   0.38561   0.23790   0.00000  Uiso   1.00
C191   C     0.83739   0.11582   0.25031   0.00000  Uiso   1.00
C192   C     0.83233   0.38329   0.25092   0.00000  Uiso   1.00
C193   C     0.86311   0.09117   0.21811   0.00000  Uiso   1.00
C194   C     0.78785   0.40750   0.25971   0.00000  Uiso   1.00
C195   C     0.86160   0.04489   0.21905   0.00000  Uiso   1.00
C196   C     0.79061   0.45374   0.26099   0.00000  Uiso   1.00
H197   H     0.87971   0.02555   0.19353   0.00000  Uiso   1.00
H198   H     0.75611   0.47300   0.26576   0.00000  Uiso   1.00
C199   C     0.83801   0.02352   0.25335   0.00000  Uiso   1.00
C200   C     0.83677   0.47522   0.25401   0.00000  Uiso   1.00
C201   C     0.79569   0.22682   0.04608   0.00000  Uiso   1.00
C202   C     0.85598   0.28440   0.45207   0.00000  Uiso   1.00
H203   H     0.76497   0.20877   0.02306   0.00000  Uiso   1.00
H204   H     0.87294   0.31262   0.47337   0.00000  Uiso   1.00
C205   C     0.79611   0.22658   0.09550   0.00000  Uiso   1.00
C206   C     0.85623   0.28422   0.40273   0.00000  Uiso   1.00
N207   N     0.83333   0.24999   0.12624   0.00000  Uiso   1.00
N208   N     0.83333   0.25001   0.37377   0.00000  Uiso   1.00
C209   C     0.87133   0.27271   0.10849   0.00000  Uiso   1.00
C210   C     0.81123   0.21529   0.39361   0.00000  Uiso   1.00
H211   H     0.90109   0.29067   0.13263   0.00000  Uiso   1.00
H212   H     0.79351   0.18817   0.37109   0.00000  Uiso   1.00
C213   C     0.87302   0.27242   0.05924   0.00000  Uiso   1.00
C214   C     0.81172   0.21388   0.44316   0.00000  Uiso   1.00
H215   H     0.90491   0.28971   0.04707   0.00000  Uiso   1.00
H216   H     0.79508   0.18502   0.45730   0.00000  Uiso   1.00
C217   C     0.83449   0.24941   0.02680   0.00000  Uiso   1.00
C218   C     0.83419   0.24899   0.47353   0.00000  Uiso   1.00
N219   N     0.89307   0.11214   0.18640   0.00000  Uiso   1.00
O220   O     0.92508   0.14457   0.20186   0.00000  Uiso   1.00
O221   O     0.89563   0.09380   0.14504   0.00000  Uiso   1.00
N222   N     0.73966   0.38606   0.26586   0.00000  Uiso   1.00
O223   O     0.72340   0.35062   0.24083   0.00000  Uiso   1.00
O224   O     0.70819   0.40545   0.29136   0.00000  Uiso   1.00
C225   C     0.75874   0.19670   0.11279   0.00000  Uiso   1.00
C226   C     0.77368   0.15249   0.12293   0.00000  Uiso   1.00
C227   C     0.73783   0.12233   0.13604   0.00000  Uiso   1.00
C228   C     0.68618   0.13575   0.13726   0.00000  Uiso   1.00
C229   C     0.67018   0.17925   0.12506   0.00000  Uiso   1.00
C230   C     0.70629   0.20967   0.11241   0.00000  Uiso   1.00
H231   H     0.81306   0.14149   0.12032   0.00000  Uiso   1.00
H232   H     0.74991   0.08842   0.14464   0.00000  Uiso   1.00
H233   H     0.99196   0.11207   0.14702   0.00000  Uiso   1.00
H234   H     0.96316   0.18935   0.12520   0.00000  Uiso   1.00
H235   H     0.69353   0.24315   0.10248   0.00000  Uiso   1.00
C236   C     0.88318   0.32147   0.38415   0.00000  Uiso   1.00
C237   C     0.93492   0.31620   0.37553   0.00000  Uiso   1.00
C238   C     0.96205   0.35253   0.36137   0.00000  Uiso   1.00
C239   C     0.93820   0.39456   0.35708   0.00000  Uiso   1.00
C240   C     0.88720   0.40032   0.36695   0.00000  Uiso   1.00
C241   C     0.85980   0.36397   0.38074   0.00000  Uiso   1.00
H242   H     0.95447   0.28417   0.38039   0.00000  Uiso   1.00
H243   H     0.66845   0.34817   0.35433   0.00000  Uiso   1.00
H244   H     0.95927   0.42272   0.34630   0.00000  Uiso   1.00
H245   H     0.86886   0.43292   0.36383   0.00000  Uiso   1.00
H246   H     0.82044   0.36885   0.38866   0.00000  Uiso   1.00
O247   O     0.16667   0.68453   0.28974   0.00000  Uiso   1.00
O248   O     0.16666   0.81546   0.21026   0.00000  Uiso   1.00
O249   O     0.16667   0.68453   0.21026   0.00000  Uiso   1.00
O250   O     0.16666   0.81547   0.28974   0.00000  Uiso   1.00
C251   C     0.16803   0.66390   0.24987   0.00000  Uiso   1.00
C252   C     0.16601   0.83578   0.25028   0.00000  Uiso   1.00
O253   O     0.09058   0.75000   0.28045   0.00000  Uiso   1.00
O254   O     0.24275   0.75000   0.21956   0.00000  Uiso   1.00
O255   O     0.09058   0.74999   0.20097   0.00000  Uiso   1.00
O256   O     0.24275   0.75000   0.29904   0.00000  Uiso   1.00
C257   C     0.06699   0.74956   0.23742   0.00000  Uiso   1.00
C258   C     0.26634   0.75006   0.26258   0.00000  Uiso   1.00
Zn259  Zn    0.16667   0.75000   0.30307   0.00000  Uiso   1.00
Zn260  Zn    0.16667   0.74999   0.19693   0.00000  Uiso   1.00
C261   C     0.01178   0.74985   0.23083   0.00000  Uiso   1.00
C262   C     0.32154   0.74978   0.26925   0.00000  Uiso   1.00
H263   H     0.32402   0.75055   0.19459   0.00000  Uiso   1.00
H264   H     0.00926   0.74940   0.30556   0.00000  Uiso   1.00
C265   C     0.14817   0.54825   0.28649   0.00000  Uiso   1.00
C266   C     0.21419   0.95057   0.24613   0.00000  Uiso   1.00
H267   H     0.13063   0.53213   0.31377   0.00000  Uiso   1.00
H268   H     0.25050   0.96679   0.24175   0.00000  Uiso   1.00
C269   C     0.14716   0.59411   0.28450   0.00000  Uiso   1.00
C270   C     0.21168   0.90463   0.24397   0.00000  Uiso   1.00
H271   H     0.12771   0.61265   0.30972   0.00000  Uiso   1.00
H272   H     0.24594   0.88561   0.23790   0.00000  Uiso   1.00
C273   C     0.17072   0.61582   0.25031   0.00000  Uiso   1.00
C274   C     0.16567   0.88329   0.25092   0.00000  Uiso   1.00
C275   C     0.19644   0.59117   0.21811   0.00000  Uiso   1.00
C276   C     0.12119   0.90750   0.25971   0.00000  Uiso   1.00
C277   C     0.19493   0.54489   0.21905   0.00000  Uiso   1.00
C278   C     0.12395   0.95374   0.26099   0.00000  Uiso   1.00
H279   H     0.21304   0.52555   0.19353   0.00000  Uiso   1.00
H280   H     0.08945   0.97300   0.26576   0.00000  Uiso   1.00
C281   C     0.17134   0.52352   0.25335   0.00000  Uiso   1.00
C282   C     0.17010   0.97522   0.25401   0.00000  Uiso   1.00
C283   C     0.12902   0.72682   0.04608   0.00000  Uiso   1.00
C284   C     0.18932   0.78440   0.45207   0.00000  Uiso   1.00
H285   H     0.09831   0.70877   0.02306   0.00000  Uiso   1.00
H286   H     0.20628   0.81262   0.47337   0.00000  Uiso   1.00
C287   C     0.12945   0.72658   0.09550   0.00000  Uiso   1.00
C288   C     0.18956   0.78422   0.40273   0.00000  Uiso   1.00
N289   N     0.16667   0.74999   0.12624   0.00000  Uiso   1.00
N290   N     0.16667   0.75001   0.37377   0.00000  Uiso   1.00
C291   C     0.20466   0.77271   0.10849   0.00000  Uiso   1.00
C292   C     0.14456   0.71529   0.39361   0.00000  Uiso   1.00
H293   H     0.23442   0.79067   0.13263   0.00000  Uiso   1.00
H294   H     0.12684   0.68817   0.37109   0.00000  Uiso   1.00
C295   C     0.20635   0.77242   0.05924   0.00000  Uiso   1.00
C296   C     0.14505   0.71388   0.44316   0.00000  Uiso   1.00
H297   H     0.23825   0.78971   0.04707   0.00000  Uiso   1.00
H298   H     0.12841   0.68502   0.45730   0.00000  Uiso   1.00
C299   C     0.16783   0.74941   0.02680   0.00000  Uiso   1.00
C300   C     0.16753   0.74899   0.47353   0.00000  Uiso   1.00
N301   N     0.22640   0.61214   0.18640   0.00000  Uiso   1.00
O302   O     0.25841   0.64457   0.20186   0.00000  Uiso   1.00
O303   O     0.22896   0.59380   0.14504   0.00000  Uiso   1.00
N304   N     0.07299   0.88606   0.26586   0.00000  Uiso   1.00
O305   O     0.05673   0.85062   0.24083   0.00000  Uiso   1.00
O306   O     0.04152   0.90545   0.29136   0.00000  Uiso   1.00
C307   C     0.09208   0.69670   0.11279   0.00000  Uiso   1.00
C308   C     0.10701   0.65249   0.12293   0.00000  Uiso   1.00
C309   C     0.07116   0.62233   0.13604   0.00000  Uiso   1.00
C310   C     0.01952   0.63575   0.13726   0.00000  Uiso   1.00
C311   C     0.00351   0.67925   0.12506   0.00000  Uiso   1.00
C312   C     0.03962   0.70967   0.11241   0.00000  Uiso   1.00
H313   H     0.14639   0.64149   0.12032   0.00000  Uiso   1.00
H314   H     0.08325   0.58842   0.14464   0.00000  Uiso   1.00
H315   H     0.32530   0.61207   0.14702   0.00000  Uiso   1.00
H316   H     0.29650   0.68935   0.12520   0.00000  Uiso   1.00
H317   H     0.02686   0.74315   0.10248   0.00000  Uiso   1.00
C318   C     0.21652   0.82147   0.38415   0.00000  Uiso   1.00
C319   C     0.26826   0.81620   0.37553   0.00000  Uiso   1.00
C320   C     0.29538   0.85253   0.36137   0.00000  Uiso   1.00
C321   C     0.27153   0.89456   0.35708   0.00000  Uiso   1.00
C322   C     0.22053   0.90032   0.36695   0.00000  Uiso   1.00
C323   C     0.19313   0.86397   0.38074   0.00000  Uiso   1.00
H324   H     0.28780   0.78417   0.38039   0.00000  Uiso   1.00
H325   H     0.00179   0.84817   0.35433   0.00000  Uiso   1.00
H326   H     0.29260   0.92272   0.34630   0.00000  Uiso   1.00
H327   H     0.20220   0.93292   0.36383   0.00000  Uiso   1.00
H328   H     0.15377   0.86885   0.38866   0.00000  Uiso   1.00
O329   O     0.50000   0.68453   0.28974   0.00000  Uiso   1.00
O330   O     0.50000   0.81546   0.21026   0.00000  Uiso   1.00
O331   O     0.50000   0.68453   0.21026   0.00000  Uiso   1.00
O332   O     0.50000   0.81547   0.28974   0.00000  Uiso   1.00
C333   C     0.50137   0.66390   0.24987   0.00000  Uiso   1.00
C334   C     0.49934   0.83578   0.25028   0.00000  Uiso   1.00
O335   O     0.42392   0.75000   0.28045   0.00000  Uiso   1.00
O336   O     0.57608   0.75000   0.21956   0.00000  Uiso   1.00
O337   O     0.42392   0.74999   0.20097   0.00000  Uiso   1.00
O338   O     0.57608   0.75000   0.29904   0.00000  Uiso   1.00
C339   C     0.40032   0.74956   0.23742   0.00000  Uiso   1.00
C340   C     0.59968   0.75006   0.26258   0.00000  Uiso   1.00
Zn341  Zn    0.50000   0.75000   0.30307   0.00000  Uiso   1.00
Zn342  Zn    0.50000   0.74999   0.19693   0.00000  Uiso   1.00
C343   C     0.34511   0.74985   0.23083   0.00000  Uiso   1.00
C344   C     0.65488   0.74978   0.26925   0.00000  Uiso   1.00
H345   H     0.65735   0.75055   0.19459   0.00000  Uiso   1.00
H346   H     0.34259   0.74940   0.30556   0.00000  Uiso   1.00
C347   C     0.48151   0.54825   0.28649   0.00000  Uiso   1.00
C348   C     0.54753   0.95057   0.24613   0.00000  Uiso   1.00
H349   H     0.46396   0.53213   0.31377   0.00000  Uiso   1.00
H350   H     0.58383   0.96679   0.24175   0.00000  Uiso   1.00
C351   C     0.48050   0.59411   0.28450   0.00000  Uiso   1.00
C352   C     0.54501   0.90463   0.24397   0.00000  Uiso   1.00
H353   H     0.46105   0.61265   0.30972   0.00000  Uiso   1.00
H354   H     0.57928   0.88561   0.23790   0.00000  Uiso   1.00
C355   C     0.50405   0.61582   0.25031   0.00000  Uiso   1.00
C356   C     0.49900   0.88329   0.25092   0.00000  Uiso   1.00
C357   C     0.52978   0.59117   0.21811   0.00000  Uiso   1.00
C358   C     0.45452   0.90750   0.25971   0.00000  Uiso   1.00
C359   C     0.52826   0.54489   0.21905   0.00000  Uiso   1.00
C360   C     0.45728   0.95374   0.26099   0.00000  Uiso   1.00
H361   H     0.54638   0.52555   0.19353   0.00000  Uiso   1.00
H362   H     0.42278   0.97300   0.26576   0.00000  Uiso   1.00
C363   C     0.50468   0.52352   0.25335   0.00000  Uiso   1.00
C364   C     0.50343   0.97522   0.25401   0.00000  Uiso   1.00
C365   C     0.46235   0.72682   0.04608   0.00000  Uiso   1.00
C366   C     0.52265   0.78440   0.45207   0.00000  Uiso   1.00
H367   H     0.43164   0.70877   0.02306   0.00000  Uiso   1.00
H368   H     0.53961   0.81262   0.47337   0.00000  Uiso   1.00
C369   C     0.46278   0.72658   0.09550   0.00000  Uiso   1.00
C370   C     0.52289   0.78422   0.40273   0.00000  Uiso   1.00
N371   N     0.50000   0.74999   0.12624   0.00000  Uiso   1.00
N372   N     0.50000   0.75001   0.37377   0.00000  Uiso   1.00
C373   C     0.53799   0.77271   0.10849   0.00000  Uiso   1.00
C374   C     0.47790   0.71529   0.39361   0.00000  Uiso   1.00
H375   H     0.56776   0.79067   0.13263   0.00000  Uiso   1.00
H376   H     0.46018   0.68817   0.37109   0.00000  Uiso   1.00
C377   C     0.53968   0.77242   0.05924   0.00000  Uiso   1.00
C378   C     0.47839   0.71388   0.44316   0.00000  Uiso   1.00
H379   H     0.57158   0.78971   0.04707   0.00000  Uiso   1.00
H380   H     0.46175   0.68502   0.45730   0.00000  Uiso   1.00
C381   C     0.50116   0.74941   0.02680   0.00000  Uiso   1.00
C382   C     0.50086   0.74899   0.47353   0.00000  Uiso   1.00
N383   N     0.55973   0.61214   0.18640   0.00000  Uiso   1.00
O384   O     0.59175   0.64457   0.20186   0.00000  Uiso   1.00
O385   O     0.56230   0.59380   0.14504   0.00000  Uiso   1.00
N386   N     0.40632   0.88606   0.26586   0.00000  Uiso   1.00
O387   O     0.39006   0.85062   0.24083   0.00000  Uiso   1.00
O388   O     0.37485   0.90545   0.29136   0.00000  Uiso   1.00
C389   C     0.42541   0.69670   0.11279   0.00000  Uiso   1.00
C390   C     0.44035   0.65249   0.12293   0.00000  Uiso   1.00
C391   C     0.40450   0.62233   0.13604   0.00000  Uiso   1.00
C392   C     0.35285   0.63575   0.13726   0.00000  Uiso   1.00
C393   C     0.33685   0.67925   0.12506   0.00000  Uiso   1.00
C394   C     0.37296   0.70967   0.11241   0.00000  Uiso   1.00
H395   H     0.47973   0.64149   0.12032   0.00000  Uiso   1.00
H396   H     0.41658   0.58842   0.14464   0.00000  Uiso   1.00
H397   H     0.65863   0.61207   0.14702   0.00000  Uiso   1.00
H398   H     0.62983   0.68935   0.12520   0.00000  Uiso   1.00
H399   H     0.36019   0.74315   0.10248   0.00000  Uiso   1.00
C400   C     0.54985   0.82147   0.38415   0.00000  Uiso   1.00
C401   C     0.60159   0.81620   0.37553   0.00000  Uiso   1.00
C402   C     0.62872   0.85253   0.36137   0.00000  Uiso   1.00
C403   C     0.60487   0.89456   0.35708   0.00000  Uiso   1.00
C404   C     0.55386   0.90032   0.36695   0.00000  Uiso   1.00
C405   C     0.52646   0.86397   0.38074   0.00000  Uiso   1.00
H406   H     0.62113   0.78417   0.38039   0.00000  Uiso   1.00
H407   H     0.33512   0.84817   0.35433   0.00000  Uiso   1.00
H408   H     0.62594   0.92272   0.34630   0.00000  Uiso   1.00
H409   H     0.53553   0.93292   0.36383   0.00000  Uiso   1.00
H410   H     0.48711   0.86885   0.38866   0.00000  Uiso   1.00
O411   O     0.83334   0.68453   0.28974   0.00000  Uiso   1.00
O412   O     0.83333   0.81546   0.21026   0.00000  Uiso   1.00
O413   O     0.83334   0.68453   0.21026   0.00000  Uiso   1.00
O414   O     0.83333   0.81547   0.28974   0.00000  Uiso   1.00
C415   C     0.83470   0.66390   0.24987   0.00000  Uiso   1.00
C416   C     0.83267   0.83578   0.25028   0.00000  Uiso   1.00
O417   O     0.75725   0.75000   0.28045   0.00000  Uiso   1.00
O418   O     0.90942   0.75000   0.21956   0.00000  Uiso   1.00
O419   O     0.75725   0.74999   0.20097   0.00000  Uiso   1.00
O420   O     0.90942   0.75000   0.29904   0.00000  Uiso   1.00
C421   C     0.73366   0.74956   0.23742   0.00000  Uiso   1.00
C422   C     0.93301   0.75006   0.26258   0.00000  Uiso   1.00
Zn423  Zn    0.83333   0.75000   0.30307   0.00000  Uiso   1.00
Zn424  Zn    0.83333   0.74999   0.19693   0.00000  Uiso   1.00
C425   C     0.67845   0.74985   0.23083   0.00000  Uiso   1.00
C426   C     0.98821   0.74978   0.26925   0.00000  Uiso   1.00
H427   H     0.99068   0.75055   0.19459   0.00000  Uiso   1.00
H428   H     0.67593   0.74940   0.30556   0.00000  Uiso   1.00
C429   C     0.81484   0.54825   0.28649   0.00000  Uiso   1.00
C430   C     0.88086   0.95057   0.24613   0.00000  Uiso   1.00
H431   H     0.79730   0.53213   0.31377   0.00000  Uiso   1.00
H432   H     0.91717   0.96679   0.24175   0.00000  Uiso   1.00
C433   C     0.81383   0.59411   0.28450   0.00000  Uiso   1.00
C434   C     0.87834   0.90463   0.24397   0.00000  Uiso   1.00
H435   H     0.79438   0.61265   0.30972   0.00000  Uiso   1.00
H436   H     0.91261   0.88561   0.23790   0.00000  Uiso   1.00
C437   C     0.83739   0.61582   0.25031   0.00000  Uiso   1.00
C438   C     0.83233   0.88329   0.25092   0.00000  Uiso   1.00
C439   C     0.86311   0.59117   0.21811   0.00000  Uiso   1.00
C440   C     0.78785   0.90750   0.25971   0.00000  Uiso   1.00
C441   C     0.86160   0.54489   0.21905   0.00000  Uiso   1.00
C442   C     0.79061   0.95374   0.26099   0.00000  Uiso   1.00
H443   H     0.87971   0.52555   0.19353   0.00000  Uiso   1.00
H444   H     0.75611   0.97300   0.26576   0.00000  Uiso   1.00
C445   C     0.83801   0.52352   0.25335   0.00000  Uiso   1.00
C446   C     0.83677   0.97522   0.25401   0.00000  Uiso   1.00
C447   C     0.79569   0.72682   0.04608   0.00000  Uiso   1.00
C448   C     0.85598   0.78440   0.45207   0.00000  Uiso   1.00
H449   H     0.76497   0.70877   0.02306   0.00000  Uiso   1.00
H450   H     0.87294   0.81262   0.47337   0.00000  Uiso   1.00
C451   C     0.79611   0.72658   0.09550   0.00000  Uiso   1.00
C452   C     0.85623   0.78422   0.40273   0.00000  Uiso   1.00
N453   N     0.83333   0.74999   0.12624   0.00000  Uiso   1.00
N454   N     0.83333   0.75001   0.37377   0.00000  Uiso   1.00
C455   C     0.87133   0.77271   0.10849   0.00000  Uiso   1.00
C456   C     0.81123   0.71529   0.39361   0.00000  Uiso   1.00
H457   H     0.90109   0.79067   0.13263   0.00000  Uiso   1.00
H458   H     0.79351   0.68817   0.37109   0.00000  Uiso   1.00
C459   C     0.87302   0.77242   0.05924   0.00000  Uiso   1.00
C460   C     0.81172   0.71388   0.44316   0.00000  Uiso   1.00
H461   H     0.90491   0.78971   0.04707   0.00000  Uiso   1.00
H462   H     0.79508   0.68502   0.45730   0.00000  Uiso   1.00
C463   C     0.83449   0.74941   0.02680   0.00000  Uiso   1.00
C464   C     0.83419   0.74899   0.47353   0.00000  Uiso   1.00
N465   N     0.89307   0.61214   0.18640   0.00000  Uiso   1.00
O466   O     0.92508   0.64457   0.20186   0.00000  Uiso   1.00
O467   O     0.89563   0.59380   0.14504   0.00000  Uiso   1.00
N468   N     0.73966   0.88606   0.26586   0.00000  Uiso   1.00
O469   O     0.72340   0.85062   0.24083   0.00000  Uiso   1.00
O470   O     0.70819   0.90545   0.29136   0.00000  Uiso   1.00
C471   C     0.75874   0.69670   0.11279   0.00000  Uiso   1.00
C472   C     0.77368   0.65249   0.12293   0.00000  Uiso   1.00
C473   C     0.73783   0.62233   0.13604   0.00000  Uiso   1.00
C474   C     0.68618   0.63575   0.13726   0.00000  Uiso   1.00
C475   C     0.67018   0.67925   0.12506   0.00000  Uiso   1.00
C476   C     0.70629   0.70967   0.11241   0.00000  Uiso   1.00
H477   H     0.81306   0.64149   0.12032   0.00000  Uiso   1.00
H478   H     0.74991   0.58842   0.14464   0.00000  Uiso   1.00
H479   H     0.99196   0.61207   0.14702   0.00000  Uiso   1.00
H480   H     0.96316   0.68935   0.12520   0.00000  Uiso   1.00
H481   H     0.69353   0.74315   0.10248   0.00000  Uiso   1.00
C482   C     0.88318   0.82147   0.38415   0.00000  Uiso   1.00
C483   C     0.93492   0.81620   0.37553   0.00000  Uiso   1.00
C484   C     0.96205   0.85253   0.36137   0.00000  Uiso   1.00
C485   C     0.93820   0.89456   0.35708   0.00000  Uiso   1.00
C486   C     0.88720   0.90032   0.36695   0.00000  Uiso   1.00
C487   C     0.85980   0.86397   0.38074   0.00000  Uiso   1.00
H488   H     0.95447   0.78417   0.38039   0.00000  Uiso   1.00
H489   H     0.66845   0.84817   0.35433   0.00000  Uiso   1.00
H490   H     0.95927   0.92272   0.34630   0.00000  Uiso   1.00
H491   H     0.86886   0.93292   0.36383   0.00000  Uiso   1.00
H492   H     0.82044   0.86885   0.38866   0.00000  Uiso   1.00
O493   O     0.16667   0.18453   0.78974   0.00000  Uiso   1.00
O494   O     0.16666   0.31546   0.71026   0.00000  Uiso   1.00
O495   O     0.16667   0.18453   0.71026   0.00000  Uiso   1.00
O496   O     0.16666   0.31547   0.78974   0.00000  Uiso   1.00
C497   C     0.16803   0.16390   0.74987   0.00000  Uiso   1.00
C498   C     0.16601   0.33578   0.75028   0.00000  Uiso   1.00
O499   O     0.09058   0.25000   0.78045   0.00000  Uiso   1.00
O500   O     0.24275   0.25000   0.71956   0.00000  Uiso   1.00
O501   O     0.09058   0.24999   0.70097   0.00000  Uiso   1.00
O502   O     0.24275   0.25000   0.79904   0.00000  Uiso   1.00
C503   C     0.06699   0.24956   0.73742   0.00000  Uiso   1.00
C504   C     0.26634   0.25006   0.76258   0.00000  Uiso   1.00
Zn505  Zn    0.16667   0.25000   0.80307   0.00000  Uiso   1.00
Zn506  Zn    0.16667   0.24999   0.69693   0.00000  Uiso   1.00
C507   C     0.01178   0.24985   0.73083   0.00000  Uiso   1.00
C508   C     0.32154   0.24978   0.76925   0.00000  Uiso   1.00
H509   H     0.32402   0.25055   0.69459   0.00000  Uiso   1.00
H510   H     0.00926   0.24940   0.80556   0.00000  Uiso   1.00
C511   C     0.14817   0.04825   0.78649   0.00000  Uiso   1.00
C512   C     0.21419   0.45057   0.74613   0.00000  Uiso   1.00
H513   H     0.13063   0.03213   0.81377   0.00000  Uiso   1.00
H514   H     0.25050   0.46679   0.74175   0.00000  Uiso   1.00
C515   C     0.14716   0.09411   0.78450   0.00000  Uiso   1.00
C516   C     0.21168   0.40463   0.74397   0.00000  Uiso   1.00
H517   H     0.12771   0.11265   0.80972   0.00000  Uiso   1.00
H518   H     0.24594   0.38561   0.73790   0.00000  Uiso   1.00
C519   C     0.17072   0.11582   0.75031   0.00000  Uiso   1.00
C520   C     0.16567   0.38329   0.75092   0.00000  Uiso   1.00
C521   C     0.19644   0.09117   0.71811   0.00000  Uiso   1.00
C522   C     0.12119   0.40750   0.75971   0.00000  Uiso   1.00
C523   C     0.19493   0.04489   0.71905   0.00000  Uiso   1.00
C524   C     0.12395   0.45374   0.76099   0.00000  Uiso   1.00
H525   H     0.21304   0.02555   0.69353   0.00000  Uiso   1.00
H526   H     0.08945   0.47300   0.76576   0.00000  Uiso   1.00
C527   C     0.17134   0.02352   0.75335   0.00000  Uiso   1.00
C528   C     0.17010   0.47522   0.75401   0.00000  Uiso   1.00
C529   C     0.12902   0.22682   0.54608   0.00000  Uiso   1.00
C530   C     0.18932   0.28440   0.95207   0.00000  Uiso   1.00
H531   H     0.09831   0.20877   0.52306   0.00000  Uiso   1.00
H532   H     0.20628   0.31262   0.97337   0.00000  Uiso   1.00
C533   C     0.12945   0.22658   0.59550   0.00000  Uiso   1.00
C534   C     0.18956   0.28422   0.90273   0.00000  Uiso   1.00
N535   N     0.16667   0.24999   0.62624   0.00000  Uiso   1.00
N536   N     0.16667   0.25001   0.87377   0.00000  Uiso   1.00
C537   C     0.20466   0.27271   0.60849   0.00000  Uiso   1.00
C538   C     0.14456   0.21529   0.89361   0.00000  Uiso   1.00
H539   H     0.23442   0.29067   0.63263   0.00000  Uiso   1.00
H540   H     0.12684   0.18817   0.87109   0.00000  Uiso   1.00
C541   C     0.20635   0.27242   0.55924   0.00000  Uiso   1.00
C542   C     0.14505   0.21388   0.94316   0.00000  Uiso   1.00
H543   H     0.23825   0.28971   0.54707   0.00000  Uiso   1.00
H544   H     0.12841   0.18502   0.95730   0.00000  Uiso   1.00
C545   C     0.16783   0.24941   0.52680   0.00000  Uiso   1.00
C546   C     0.16753   0.24899   0.97353   0.00000  Uiso   1.00
N547   N     0.22640   0.11214   0.68640   0.00000  Uiso   1.00
O548   O     0.25841   0.14457   0.70186   0.00000  Uiso   1.00
O549   O     0.22896   0.09380   0.64504   0.00000  Uiso   1.00
N550   N     0.07299   0.38606   0.76586   0.00000  Uiso   1.00
O551   O     0.05673   0.35062   0.74083   0.00000  Uiso   1.00
O552   O     0.04152   0.40545   0.79136   0.00000  Uiso   1.00
C553   C     0.09208   0.19670   0.61279   0.00000  Uiso   1.00
C554   C     0.10701   0.15249   0.62293   0.00000  Uiso   1.00
C555   C     0.07116   0.12233   0.63604   0.00000  Uiso   1.00
C556   C     0.01952   0.13575   0.63726   0.00000  Uiso   1.00
C557   C     0.00351   0.17925   0.62506   0.00000  Uiso   1.00
C558   C     0.03962   0.20967   0.61241   0.00000  Uiso   1.00
H559   H     0.14639   0.14149   0.62032   0.00000  Uiso   1.00
H560   H     0.08325   0.08842   0.64464   0.00000  Uiso   1.00
H561   H     0.32530   0.11207   0.64702   0.00000  Uiso   1.00
H562   H     0.29650   0.18935   0.62520   0.00000  Uiso   1.00
H563   H     0.02686   0.24315   0.60248   0.00000  Uiso   1.00
C564   C     0.21652   0.32147   0.88415   0.00000  Uiso   1.00
C565   C     0.26826   0.31620   0.87553   0.00000  Uiso   1.00
C566   C     0.29538   0.35253   0.86137   0.00000  Uiso   1.00
C567   C     0.27153   0.39456   0.85708   0.00000  Uiso   1.00
C568   C     0.22053   0.40032   0.86695   0.00000  Uiso   1.00
C569   C     0.19313   0.36397   0.88074   0.00000  Uiso   1.00
H570   H     0.28780   0.28417   0.88039   0.00000  Uiso   1.00
H571   H     0.00179   0.34817   0.85433   0.00000  Uiso   1.00
H572   H     0.29260   0.42272   0.84630   0.00000  Uiso   1.00
H573   H     0.20220   0.43292   0.86383   0.00000  Uiso   1.00
H574   H     0.15377   0.36885   0.88866   0.00000  Uiso   1.00
O575   O     0.50000   0.18453   0.78974   0.00000  Uiso   1.00
O576   O     0.50000   0.31546   0.71026   0.00000  Uiso   1.00
O577   O     0.50000   0.18453   0.71026   0.00000  Uiso   1.00
O578   O     0.50000   0.31547   0.78974   0.00000  Uiso   1.00
C579   C     0.50137   0.16390   0.74987   0.00000  Uiso   1.00
C580   C     0.49934   0.33578   0.75028   0.00000  Uiso   1.00
O581   O     0.42392   0.25000   0.78045   0.00000  Uiso   1.00
O582   O     0.57608   0.25000   0.71956   0.00000  Uiso   1.00
O583   O     0.42392   0.24999   0.70097   0.00000  Uiso   1.00
O584   O     0.57608   0.25000   0.79904   0.00000  Uiso   1.00
C585   C     0.40032   0.24956   0.73742   0.00000  Uiso   1.00
C586   C     0.59968   0.25006   0.76258   0.00000  Uiso   1.00
Zn587  Zn    0.50000   0.25000   0.80307   0.00000  Uiso   1.00
Zn588  Zn    0.50000   0.24999   0.69693   0.00000  Uiso   1.00
C589   C     0.34511   0.24985   0.73083   0.00000  Uiso   1.00
C590   C     0.65488   0.24978   0.76925   0.00000  Uiso   1.00
H591   H     0.65735   0.25055   0.69459   0.00000  Uiso   1.00
H592   H     0.34259   0.24940   0.80556   0.00000  Uiso   1.00
C593   C     0.48151   0.04825   0.78649   0.00000  Uiso   1.00
C594   C     0.54753   0.45057   0.74613   0.00000  Uiso   1.00
H595   H     0.46396   0.03213   0.81377   0.00000  Uiso   1.00
H596   H     0.58383   0.46679   0.74175   0.00000  Uiso   1.00
C597   C     0.48050   0.09411   0.78450   0.00000  Uiso   1.00
C598   C     0.54501   0.40463   0.74397   0.00000  Uiso   1.00
H599   H     0.46105   0.11265   0.80972   0.00000  Uiso   1.00
H600   H     0.57928   0.38561   0.73790   0.00000  Uiso   1.00
C601   C     0.50405   0.11582   0.75031   0.00000  Uiso   1.00
C602   C     0.49900   0.38329   0.75092   0.00000  Uiso   1.00
C603   C     0.52978   0.09117   0.71811   0.00000  Uiso   1.00
C604   C     0.45452   0.40750   0.75971   0.00000  Uiso   1.00
C605   C     0.52826   0.04489   0.71905   0.00000  Uiso   1.00
C606   C     0.45728   0.45374   0.76099   0.00000  Uiso   1.00
H607   H     0.54638   0.02555   0.69353   0.00000  Uiso   1.00
H608   H     0.42278   0.47300   0.76576   0.00000  Uiso   1.00
C609   C     0.50468   0.02352   0.75335   0.00000  Uiso   1.00
C610   C     0.50343   0.47522   0.75401   0.00000  Uiso   1.00
C611   C     0.46235   0.22682   0.54608   0.00000  Uiso   1.00
C612   C     0.52265   0.28440   0.95207   0.00000  Uiso   1.00
H613   H     0.43164   0.20877   0.52306   0.00000  Uiso   1.00
H614   H     0.53961   0.31262   0.97337   0.00000  Uiso   1.00
C615   C     0.46278   0.22658   0.59550   0.00000  Uiso   1.00
C616   C     0.52289   0.28422   0.90273   0.00000  Uiso   1.00
N617   N     0.50000   0.24999   0.62624   0.00000  Uiso   1.00
N618   N     0.50000   0.25001   0.87377   0.00000  Uiso   1.00
C619   C     0.53799   0.27271   0.60849   0.00000  Uiso   1.00
C620   C     0.47790   0.21529   0.89361   0.00000  Uiso   1.00
H621   H     0.56776   0.29067   0.63263   0.00000  Uiso   1.00
H622   H     0.46018   0.18817   0.87109   0.00000  Uiso   1.00
C623   C     0.53968   0.27242   0.55924   0.00000  Uiso   1.00
C624   C     0.47839   0.21388   0.94316   0.00000  Uiso   1.00
H625   H     0.57158   0.28971   0.54707   0.00000  Uiso   1.00
H626   H     0.46175   0.18502   0.95730   0.00000  Uiso   1.00
C627   C     0.50116   0.24941   0.52680   0.00000  Uiso   1.00
C628   C     0.50086   0.24899   0.97353   0.00000  Uiso   1.00
N629   N     0.55973   0.11214   0.68640   0.00000  Uiso   1.00
O630   O     0.59175   0.14457   0.70186   0.00000  Uiso   1.00
O631   O     0.56230   0.09380   0.64504   0.00000  Uiso   1.00
N632   N     0.40632   0.38606   0.76586   0.00000  Uiso   1.00
O633   O     0.39006   0.35062   0.74083   0.00000  Uiso   1.00
O634   O     0.37485   0.40545   0.79136   0.00000  Uiso   1.00
C635   C     0.42541   0.19670   0.61279   0.00000  Uiso   1.00
C636   C     0.44035   0.15249   0.62293   0.00000  Uiso   1.00
C637   C     0.40450   0.12233   0.63604   0.00000  Uiso   1.00
C638   C     0.35285   0.13575   0.63726   0.00000  Uiso   1.00
C639   C     0.33685   0.17925   0.62506   0.00000  Uiso   1.00
C640   C     0.37296   0.20967   0.61241   0.00000  Uiso   1.00
H641   H     0.47973   0.14149   0.62032   0.00000  Uiso   1.00
H642   H     0.41658   0.08842   0.64464   0.00000  Uiso   1.00
H643   H     0.65863   0.11207   0.64702   0.00000  Uiso   1.00
H644   H     0.62983   0.18935   0.62520   0.00000  Uiso   1.00
H645   H     0.36019   0.24315   0.60248   0.00000  Uiso   1.00
C646   C     0.54985   0.32147   0.88415   0.00000  Uiso   1.00
C647   C     0.60159   0.31620   0.87553   0.00000  Uiso   1.00
C648   C     0.62872   0.35253   0.86137   0.00000  Uiso   1.00
C649   C     0.60487   0.39456   0.85708   0.00000  Uiso   1.00
C650   C     0.55386   0.40032   0.86695   0.00000  Uiso   1.00
C651   C     0.52646   0.36397   0.88074   0.00000  Uiso   1.00
H652   H     0.62113   0.28417   0.88039   0.00000  Uiso   1.00
H653   H     0.33512   0.34817   0.85433   0.00000  Uiso   1.00
H654   H     0.62594   0.42272   0.84630   0.00000  Uiso   1.00
H655   H     0.53553   0.43292   0.86383   0.00000  Uiso   1.00
H656   H     0.48711   0.36885   0.88866   0.00000  Uiso   1.00
O657   O     0.83334   0.18453   0.78974   0.00000  Uiso   1.00
O658   O     0.83333   0.31546   0.71026   0.00000  Uiso   1.00
O659   O     0.83334   0.18453   0.71026   0.00000  Uiso   1.00
O660   O     0.83333   0.31547   0.78974   0.00000  Uiso   1.00
C661   C     0.83470   0.16390   0.74987   0.00000  Uiso   1.00
C662   C     0.83267   0.33578   0.75028   0.00000  Uiso   1.00
O663   O     0.75725   0.25000   0.78045   0.00000  Uiso   1.00
O664   O     0.90942   0.25000   0.71956   0.00000  Uiso   1.00
O665   O     0.75725   0.24999   0.70097   0.00000  Uiso   1.00
O666   O     0.90942   0.25000   0.79904   0.00000  Uiso   1.00
C667   C     0.73366   0.24956   0.73742   0.00000  Uiso   1.00
C668   C     0.93301   0.25006   0.76258   0.00000  Uiso   1.00
Zn669  Zn    0.83333   0.25000   0.80307   0.00000  Uiso   1.00
Zn670  Zn    0.83333   0.24999   0.69693   0.00000  Uiso   1.00
C671   C     0.67845   0.24985   0.73083   0.00000  Uiso   1.00
C672   C     0.98821   0.24978   0.76925   0.00000  Uiso   1.00
H673   H     0.99068   0.25055   0.69459   0.00000  Uiso   1.00
H674   H     0.67593   0.24940   0.80556   0.00000  Uiso   1.00
C675   C     0.81484   0.04825   0.78649   0.00000  Uiso   1.00
C676   C     0.88086   0.45057   0.74613   0.00000  Uiso   1.00
H677   H     0.79730   0.03213   0.81377   0.00000  Uiso   1.00
H678   H     0.91717   0.46679   0.74175   0.00000  Uiso   1.00
C679   C     0.81383   0.09411   0.78450   0.00000  Uiso   1.00
C680   C     0.87834   0.40463   0.74397   0.00000  Uiso   1.00
H681   H     0.79438   0.11265   0.80972   0.00000  Uiso   1.00
H682   H     0.91261   0.38561   0.73790   0.00000  Uiso   1.00
C683   C     0.83739   0.11582   0.75031   0.00000  Uiso   1.00
C684   C     0.83233   0.38329   0.75092   0.00000  Uiso   1.00
C685   C     0.86311   0.09117   0.71811   0.00000  Uiso   1.00
C686   C     0.78785   0.40750   0.75971   0.00000  Uiso   1.00
C687   C     0.86160   0.04489   0.71905   0.00000  Uiso   1.00
C688   C     0.79061   0.45374   0.76099   0.00000  Uiso   1.00
H689   H     0.87971   0.02555   0.69353   0.00000  Uiso   1.00
H690   H     0.75611   0.47300   0.76576   0.00000  Uiso   1.00
C691   C     0.83801   0.02352   0.75335   0.00000  Uiso   1.00
C692   C     0.83677   0.47522   0.75401   0.00000  Uiso   1.00
C693   C     0.79569   0.22682   0.54608   0.00000  Uiso   1.00
C694   C     0.85598   0.28440   0.95207   0.00000  Uiso   1.00
H695   H     0.76497   0.20877   0.52306   0.00000  Uiso   1.00
H696   H     0.87294   0.31262   0.97337   0.00000  Uiso   1.00
C697   C     0.79611   0.22658   0.59550   0.00000  Uiso   1.00
C698   C     0.85623   0.28422   0.90273   0.00000  Uiso   1.00
N699   N     0.83333   0.24999   0.62624   0.00000  Uiso   1.00
N700   N     0.83333   0.25001   0.87377   0.00000  Uiso   1.00
C701   C     0.87133   0.27271   0.60849   0.00000  Uiso   1.00
C702   C     0.81123   0.21529   0.89361   0.00000  Uiso   1.00
H703   H     0.90109   0.29067   0.63263   0.00000  Uiso   1.00
H704   H     0.79351   0.18817   0.87109   0.00000  Uiso   1.00
C705   C     0.87302   0.27242   0.55924   0.00000  Uiso   1.00
C706   C     0.81172   0.21388   0.94316   0.00000  Uiso   1.00
H707   H     0.90491   0.28971   0.54707   0.00000  Uiso   1.00
H708   H     0.79508   0.18502   0.95730   0.00000  Uiso   1.00
C709   C     0.83449   0.24941   0.52680   0.00000  Uiso   1.00
C710   C     0.83419   0.24899   0.97353   0.00000  Uiso   1.00
N711   N     0.89307   0.11214   0.68640   0.00000  Uiso   1.00
O712   O     0.92508   0.14457   0.70186   0.00000  Uiso   1.00
O713   O     0.89563   0.09380   0.64504   0.00000  Uiso   1.00
N714   N     0.73966   0.38606   0.76586   0.00000  Uiso   1.00
O715   O     0.72340   0.35062   0.74083   0.00000  Uiso   1.00
O716   O     0.70819   0.40545   0.79136   0.00000  Uiso   1.00
C717   C     0.75874   0.19670   0.61279   0.00000  Uiso   1.00
C718   C     0.77368   0.15249   0.62293   0.00000  Uiso   1.00
C719   C     0.73783   0.12233   0.63604   0.00000  Uiso   1.00
C720   C     0.68618   0.13575   0.63726   0.00000  Uiso   1.00
C721   C     0.67018   0.17925   0.62506   0.00000  Uiso   1.00
C722   C     0.70629   0.20967   0.61241   0.00000  Uiso   1.00
H723   H     0.81306   0.14149   0.62032   0.00000  Uiso   1.00
H724   H     0.74991   0.08842   0.64464   0.00000  Uiso   1.00
H725   H     0.99196   0.11207   0.64702   0.00000  Uiso   1.00
H726   H     0.96316   0.18935   0.62520   0.00000  Uiso   1.00
H727   H     0.69353   0.24315   0.60248   0.00000  Uiso   1.00
C728   C     0.88318   0.32147   0.88415   0.00000  Uiso   1.00
C729   C     0.93492   0.31620   0.87553   0.00000  Uiso   1.00
C730   C     0.96205   0.35253   0.86137   0.00000  Uiso   1.00
C731   C     0.93820   0.39456   0.85708   0.00000  Uiso   1.00
C732   C     0.88720   0.40032   0.86695   0.00000  Uiso   1.00
C733   C     0.85980   0.36397   0.88074   0.00000  Uiso   1.00
H734   H     0.95447   0.28417   0.88039   0.00000  Uiso   1.00
H735   H     0.66845   0.34817   0.85433   0.00000  Uiso   1.00
H736   H     0.95927   0.42272   0.84630   0.00000  Uiso   1.00
H737   H     0.86886   0.43292   0.86383   0.00000  Uiso   1.00
H738   H     0.82044   0.36885   0.88866   0.00000  Uiso   1.00
O739   O     0.16667   0.68453   0.78974   0.00000  Uiso   1.00
O740   O     0.16666   0.81546   0.71026   0.00000  Uiso   1.00
O741   O     0.16667   0.68453   0.71026   0.00000  Uiso   1.00
O742   O     0.16666   0.81547   0.78974   0.00000  Uiso   1.00
C743   C     0.16803   0.66390   0.74987   0.00000  Uiso   1.00
C744   C     0.16601   0.83578   0.75028   0.00000  Uiso   1.00
O745   O     0.09058   0.75000   0.78045   0.00000  Uiso   1.00
O746   O     0.24275   0.75000   0.71956   0.00000  Uiso   1.00
O747   O     0.09058   0.74999   0.70097   0.00000  Uiso   1.00
O748   O     0.24275   0.75000   0.79904   0.00000  Uiso   1.00
C749   C     0.06699   0.74956   0.73742   0.00000  Uiso   1.00
C750   C     0.26634   0.75006   0.76258   0.00000  Uiso   1.00
Zn751  Zn    0.16667   0.75000   0.80307   0.00000  Uiso   1.00
Zn752  Zn    0.16667   0.74999   0.69693   0.00000  Uiso   1.00
C753   C     0.01178   0.74985   0.73083   0.00000  Uiso   1.00
C754   C     0.32154   0.74978   0.76925   0.00000  Uiso   1.00
H755   H     0.32402   0.75055   0.69459   0.00000  Uiso   1.00
H756   H     0.00926   0.74940   0.80556   0.00000  Uiso   1.00
C757   C     0.14817   0.54825   0.78649   0.00000  Uiso   1.00
C758   C     0.21419   0.95057   0.74613   0.00000  Uiso   1.00
H759   H     0.13063   0.53213   0.81377   0.00000  Uiso   1.00
H760   H     0.25050   0.96679   0.74175   0.00000  Uiso   1.00
C761   C     0.14716   0.59411   0.78450   0.00000  Uiso   1.00
C762   C     0.21168   0.90463   0.74397   0.00000  Uiso   1.00
H763   H     0.12771   0.61265   0.80972   0.00000  Uiso   1.00
H764   H     0.24594   0.88561   0.73790   0.00000  Uiso   1.00
C765   C     0.17072   0.61582   0.75031   0.00000  Uiso   1.00
C766   C     0.16567   0.88329   0.75092   0.00000  Uiso   1.00
C767   C     0.19644   0.59117   0.71811   0.00000  Uiso   1.00
C768   C     0.12119   0.90750   0.75971   0.00000  Uiso   1.00
C769   C     0.19493   0.54489   0.71905   0.00000  Uiso   1.00
C770   C     0.12395   0.95374   0.76099   0.00000  Uiso   1.00
H771   H     0.21304   0.52555   0.69353   0.00000  Uiso   1.00
H772   H     0.08945   0.97300   0.76576   0.00000  Uiso   1.00
C773   C     0.17134   0.52352   0.75335   0.00000  Uiso   1.00
C774   C     0.17010   0.97522   0.75401   0.00000  Uiso   1.00
C775   C     0.12902   0.72682   0.54608   0.00000  Uiso   1.00
C776   C     0.18932   0.78440   0.95207   0.00000  Uiso   1.00
H777   H     0.09831   0.70877   0.52306   0.00000  Uiso   1.00
H778   H     0.20628   0.81262   0.97337   0.00000  Uiso   1.00
C779   C     0.12945   0.72658   0.59550   0.00000  Uiso   1.00
C780   C     0.18956   0.78422   0.90273   0.00000  Uiso   1.00
N781   N     0.16667   0.74999   0.62624   0.00000  Uiso   1.00
N782   N     0.16667   0.75001   0.87377   0.00000  Uiso   1.00
C783   C     0.20466   0.77271   0.60849   0.00000  Uiso   1.00
C784   C     0.14456   0.71529   0.89361   0.00000  Uiso   1.00
H785   H     0.23442   0.79067   0.63263   0.00000  Uiso   1.00
H786   H     0.12684   0.68817   0.87109   0.00000  Uiso   1.00
C787   C     0.20635   0.77242   0.55924   0.00000  Uiso   1.00
C788   C     0.14505   0.71388   0.94316   0.00000  Uiso   1.00
H789   H     0.23825   0.78971   0.54707   0.00000  Uiso   1.00
H790   H     0.12841   0.68502   0.95730   0.00000  Uiso   1.00
C791   C     0.16783   0.74941   0.52680   0.00000  Uiso   1.00
C792   C     0.16753   0.74899   0.97353   0.00000  Uiso   1.00
N793   N     0.22640   0.61214   0.68640   0.00000  Uiso   1.00
O794   O     0.25841   0.64457   0.70186   0.00000  Uiso   1.00
O795   O     0.22896   0.59380   0.64504   0.00000  Uiso   1.00
N796   N     0.07299   0.88606   0.76586   0.00000  Uiso   1.00
O797   O     0.05673   0.85062   0.74083   0.00000  Uiso   1.00
O798   O     0.04152   0.90545   0.79136   0.00000  Uiso   1.00
C799   C     0.09208   0.69670   0.61279   0.00000  Uiso   1.00
C800   C     0.10701   0.65249   0.62293   0.00000  Uiso   1.00
C801   C     0.07116   0.62233   0.63604   0.00000  Uiso   1.00
C802   C     0.01952   0.63575   0.63726   0.00000  Uiso   1.00
C803   C     0.00351   0.67925   0.62506   0.00000  Uiso   1.00
C804   C     0.03962   0.70967   0.61241   0.00000  Uiso   1.00
H805   H     0.14639   0.64149   0.62032   0.00000  Uiso   1.00
H806   H     0.08325   0.58842   0.64464   0.00000  Uiso   1.00
H807   H     0.32530   0.61207   0.64702   0.00000  Uiso   1.00
H808   H     0.29650   0.68935   0.62520   0.00000  Uiso   1.00
H809   H     0.02686   0.74315   0.60248   0.00000  Uiso   1.00
C810   C     0.21652   0.82147   0.88415   0.00000  Uiso   1.00
C811   C     0.26826   0.81620   0.87553   0.00000  Uiso   1.00
C812   C     0.29538   0.85253   0.86137   0.00000  Uiso   1.00
C813   C     0.27153   0.89456   0.85708   0.00000  Uiso   1.00
C814   C     0.22053   0.90032   0.86695   0.00000  Uiso   1.00
C815   C     0.19313   0.86397   0.88074   0.00000  Uiso   1.00
H816   H     0.28780   0.78417   0.88039   0.00000  Uiso   1.00
H817   H     0.00179   0.84817   0.85433   0.00000  Uiso   1.00
H818   H     0.29260   0.92272   0.84630   0.00000  Uiso   1.00
H819   H     0.20220   0.93292   0.86383   0.00000  Uiso   1.00
H820   H     0.15377   0.86885   0.88866   0.00000  Uiso   1.00
O821   O     0.50000   0.68453   0.78974   0.00000  Uiso   1.00
O822   O     0.50000   0.81546   0.71026   0.00000  Uiso   1.00
O823   O     0.50000   0.68453   0.71026   0.00000  Uiso   1.00
O824   O     0.50000   0.81547   0.78974   0.00000  Uiso   1.00
C825   C     0.50137   0.66390   0.74987   0.00000  Uiso   1.00
C826   C     0.49934   0.83578   0.75028   0.00000  Uiso   1.00
O827   O     0.42392   0.75000   0.78045   0.00000  Uiso   1.00
O828   O     0.57608   0.75000   0.71956   0.00000  Uiso   1.00
O829   O     0.42392   0.74999   0.70097   0.00000  Uiso   1.00
O830   O     0.57608   0.75000   0.79904   0.00000  Uiso   1.00
C831   C     0.40032   0.74956   0.73742   0.00000  Uiso   1.00
C832   C     0.59968   0.75006   0.76258   0.00000  Uiso   1.00
Zn833  Zn    0.50000   0.75000   0.80307   0.00000  Uiso   1.00
Zn834  Zn    0.50000   0.74999   0.69693   0.00000  Uiso   1.00
C835   C     0.34511   0.74985   0.73083   0.00000  Uiso   1.00
C836   C     0.65488   0.74978   0.76925   0.00000  Uiso   1.00
H837   H     0.65735   0.75055   0.69459   0.00000  Uiso   1.00
H838   H     0.34259   0.74940   0.80556   0.00000  Uiso   1.00
C839   C     0.48151   0.54825   0.78649   0.00000  Uiso   1.00
C840   C     0.54753   0.95057   0.74613   0.00000  Uiso   1.00
H841   H     0.46396   0.53213   0.81377   0.00000  Uiso   1.00
H842   H     0.58383   0.96679   0.74175   0.00000  Uiso   1.00
C843   C     0.48050   0.59411   0.78450   0.00000  Uiso   1.00
C844   C     0.54501   0.90463   0.74397   0.00000  Uiso   1.00
H845   H     0.46105   0.61265   0.80972   0.00000  Uiso   1.00
H846   H     0.57928   0.88561   0.73790   0.00000  Uiso   1.00
C847   C     0.50405   0.61582   0.75031   0.00000  Uiso   1.00
C848   C     0.49900   0.88329   0.75092   0.00000  Uiso   1.00
C849   C     0.52978   0.59117   0.71811   0.00000  Uiso   1.00
C850   C     0.45452   0.90750   0.75971   0.00000  Uiso   1.00
C851   C     0.52826   0.54489   0.71905   0.00000  Uiso   1.00
C852   C     0.45728   0.95374   0.76099   0.00000  Uiso   1.00
H853   H     0.54638   0.52555   0.69353   0.00000  Uiso   1.00
H854   H     0.42278   0.97300   0.76576   0.00000  Uiso   1.00
C855   C     0.50468   0.52352   0.75335   0.00000  Uiso   1.00
C856   C     0.50343   0.97522   0.75401   0.00000  Uiso   1.00
C857   C     0.46235   0.72682   0.54608   0.00000  Uiso   1.00
C858   C     0.52265   0.78440   0.95207   0.00000  Uiso   1.00
H859   H     0.43164   0.70877   0.52306   0.00000  Uiso   1.00
H860   H     0.53961   0.81262   0.97337   0.00000  Uiso   1.00
C861   C     0.46278   0.72658   0.59550   0.00000  Uiso   1.00
C862   C     0.52289   0.78422   0.90273   0.00000  Uiso   1.00
N863   N     0.50000   0.74999   0.62624   0.00000  Uiso   1.00
N864   N     0.50000   0.75001   0.87377   0.00000  Uiso   1.00
C865   C     0.53799   0.77271   0.60849   0.00000  Uiso   1.00
C866   C     0.47790   0.71529   0.89361   0.00000  Uiso   1.00
H867   H     0.56776   0.79067   0.63263   0.00000  Uiso   1.00
H868   H     0.46018   0.68817   0.87109   0.00000  Uiso   1.00
C869   C     0.53968   0.77242   0.55924   0.00000  Uiso   1.00
C870   C     0.47839   0.71388   0.94316   0.00000  Uiso   1.00
H871   H     0.57158   0.78971   0.54707   0.00000  Uiso   1.00
H872   H     0.46175   0.68502   0.95730   0.00000  Uiso   1.00
C873   C     0.50116   0.74941   0.52680   0.00000  Uiso   1.00
C874   C     0.50086   0.74899   0.97353   0.00000  Uiso   1.00
N875   N     0.55973   0.61214   0.68640   0.00000  Uiso   1.00
O876   O     0.59175   0.64457   0.70186   0.00000  Uiso   1.00
O877   O     0.56230   0.59380   0.64504   0.00000  Uiso   1.00
N878   N     0.40632   0.88606   0.76586   0.00000  Uiso   1.00
O879   O     0.39006   0.85062   0.74083   0.00000  Uiso   1.00
O880   O     0.37485   0.90545   0.79136   0.00000  Uiso   1.00
C881   C     0.42541   0.69670   0.61279   0.00000  Uiso   1.00
C882   C     0.44035   0.65249   0.62293   0.00000  Uiso   1.00
C883   C     0.40450   0.62233   0.63604   0.00000  Uiso   1.00
C884   C     0.35285   0.63575   0.63726   0.00000  Uiso   1.00
C885   C     0.33685   0.67925   0.62506   0.00000  Uiso   1.00
C886   C     0.37296   0.70967   0.61241   0.00000  Uiso   1.00
H887   H     0.47973   0.64149   0.62032   0.00000  Uiso   1.00
H888   H     0.41658   0.58842   0.64464   0.00000  Uiso   1.00
H889   H     0.65863   0.61207   0.64702   0.00000  Uiso   1.00
H890   H     0.62983   0.68935   0.62520   0.00000  Uiso   1.00
H891   H     0.36019   0.74315   0.60248   0.00000  Uiso   1.00
C892   C     0.54985   0.82147   0.88415   0.00000  Uiso   1.00
C893   C     0.60159   0.81620   0.87553   0.00000  Uiso   1.00
C894   C     0.62872   0.85253   0.86137   0.00000  Uiso   1.00
C895   C     0.60487   0.89456   0.85708   0.00000  Uiso   1.00
C896   C     0.55386   0.90032   0.86695   0.00000  Uiso   1.00
C897   C     0.52646   0.86397   0.88074   0.00000  Uiso   1.00
H898   H     0.62113   0.78417   0.88039   0.00000  Uiso   1.00
H899   H     0.33512   0.84817   0.85433   0.00000  Uiso   1.00
H900   H     0.62594   0.92272   0.84630   0.00000  Uiso   1.00
H901   H     0.53553   0.93292   0.86383   0.00000  Uiso   1.00
H902   H     0.48711   0.86885   0.88866   0.00000  Uiso   1.00
O903   O     0.83334   0.68453   0.78974   0.00000  Uiso   1.00
O904   O     0.83333   0.81546   0.71026   0.00000  Uiso   1.00
O905   O     0.83334   0.68453   0.71026   0.00000  Uiso   1.00
O906   O     0.83333   0.81547   0.78974   0.00000  Uiso   1.00
C907   C     0.83470   0.66390   0.74987   0.00000  Uiso   1.00
C908   C     0.83267   0.83578   0.75028   0.00000  Uiso   1.00
O909   O     0.75725   0.75000   0.78045   0.00000  Uiso   1.00
O910   O     0.90942   0.75000   0.71956   0.00000  Uiso   1.00
O911   O     0.75725   0.74999   0.70097   0.00000  Uiso   1.00
O912   O     0.90942   0.75000   0.79904   0.00000  Uiso   1.00
C913   C     0.73366   0.74956   0.73742   0.00000  Uiso   1.00
C914   C     0.93301   0.75006   0.76258   0.00000  Uiso   1.00
Zn915  Zn    0.83333   0.75000   0.80307   0.00000  Uiso   1.00
Zn916  Zn    0.83333   0.74999   0.69693   0.00000  Uiso   1.00
C917   C     0.67845   0.74985   0.73083   0.00000  Uiso   1.00
C918   C     0.98821   0.74978   0.76925   0.00000  Uiso   1.00
H919   H     0.99068   0.75055   0.69459   0.00000  Uiso   1.00
H920   H     0.67593   0.74940   0.80556   0.00000  Uiso   1.00
C921   C     0.81484   0.54825   0.78649   0.00000  Uiso   1.00
C922   C     0.88086   0.95057   0.74613   0.00000  Uiso   1.00
H923   H     0.79730   0.53213   0.81377   0.00000  Uiso   1.00
H924   H     0.91717   0.96679   0.74175   0.00000  Uiso   1.00
C925   C     0.81383   0.59411   0.78450   0.00000  Uiso   1.00
C926   C     0.87834   0.90463   0.74397   0.00000  Uiso   1.00
H927   H     0.79438   0.61265   0.80972   0.00000  Uiso   1.00
H928   H     0.91261   0.88561   0.73790   0.00000  Uiso   1.00
C929   C     0.83739   0.61582   0.75031   0.00000  Uiso   1.00
C930   C     0.83233   0.88329   0.75092   0.00000  Uiso   1.00
C931   C     0.86311   0.59117   0.71811   0.00000  Uiso   1.00
C932   C     0.78785   0.90750   0.75971   0.00000  Uiso   1.00
C933   C     0.86160   0.54489   0.71905   0.00000  Uiso   1.00
C934   C     0.79061   0.95374   0.76099   0.00000  Uiso   1.00
H935   H     0.87971   0.52555   0.69353   0.00000  Uiso   1.00
H936   H     0.75611   0.97300   0.76576   0.00000  Uiso   1.00
C937   C     0.83801   0.52352   0.75335   0.00000  Uiso   1.00
C938   C     0.83677   0.97522   0.75401   0.00000  Uiso   1.00
C939   C     0.79569   0.72682   0.54608   0.00000  Uiso   1.00
C940   C     0.85598   0.78440   0.95207   0.00000  Uiso   1.00
H941   H     0.76497   0.70877   0.52306   0.00000  Uiso   1.00
H942   H     0.87294   0.81262   0.97337   0.00000  Uiso   1.00
C943   C     0.79611   0.72658   0.59550   0.00000  Uiso   1.00
C944   C     0.85623   0.78422   0.90273   0.00000  Uiso   1.00
N945   N     0.83333   0.74999   0.62624   0.00000  Uiso   1.00
N946   N     0.83333   0.75001   0.87377   0.00000  Uiso   1.00
C947   C     0.87133   0.77271   0.60849   0.00000  Uiso   1.00
C948   C     0.81123   0.71529   0.89361   0.00000  Uiso   1.00
H949   H     0.90109   0.79067   0.63263   0.00000  Uiso   1.00
H950   H     0.79351   0.68817   0.87109   0.00000  Uiso   1.00
C951   C     0.87302   0.77242   0.55924   0.00000  Uiso   1.00
C952   C     0.81172   0.71388   0.94316   0.00000  Uiso   1.00
H953   H     0.90491   0.78971   0.54707   0.00000  Uiso   1.00
H954   H     0.79508   0.68502   0.95730   0.00000  Uiso   1.00
C955   C     0.83449   0.74941   0.52680   0.00000  Uiso   1.00
C956   C     0.83419   0.74899   0.97353   0.00000  Uiso   1.00
N957   N     0.89307   0.61214   0.68640   0.00000  Uiso   1.00
O958   O     0.92508   0.64457   0.70186   0.00000  Uiso   1.00
O959   O     0.89563   0.59380   0.64504   0.00000  Uiso   1.00
N960   N     0.73966   0.88606   0.76586   0.00000  Uiso   1.00
O961   O     0.72340   0.85062   0.74083   0.00000  Uiso   1.00
O962   O     0.70819   0.90545   0.79136   0.00000  Uiso   1.00
C963   C     0.75874   0.69670   0.61279   0.00000  Uiso   1.00
C964   C     0.77368   0.65249   0.62293   0.00000  Uiso   1.00
C965   C     0.73783   0.62233   0.63604   0.00000  Uiso   1.00
C966   C     0.68618   0.63575   0.63726   0.00000  Uiso   1.00
C967   C     0.67018   0.67925   0.62506   0.00000  Uiso   1.00
C968   C     0.70629   0.70967   0.61241   0.00000  Uiso   1.00
H969   H     0.81306   0.64149   0.62032   0.00000  Uiso   1.00
H970   H     0.74991   0.58842   0.64464   0.00000  Uiso   1.00
H971   H     0.99196   0.61207   0.64702   0.00000  Uiso   1.00
H972   H     0.96316   0.68935   0.62520   0.00000  Uiso   1.00
H973   H     0.69353   0.74315   0.60248   0.00000  Uiso   1.00
C974   C     0.88318   0.82147   0.88415   0.00000  Uiso   1.00
C975   C     0.93492   0.81620   0.87553   0.00000  Uiso   1.00
C976   C     0.96205   0.85253   0.86137   0.00000  Uiso   1.00
C977   C     0.93820   0.89456   0.85708   0.00000  Uiso   1.00
C978   C     0.88720   0.90032   0.86695   0.00000  Uiso   1.00
C979   C     0.85980   0.86397   0.88074   0.00000  Uiso   1.00
H980   H     0.95447   0.78417   0.88039   0.00000  Uiso   1.00
H981   H     0.66845   0.84817   0.85433   0.00000  Uiso   1.00
H982   H     0.95927   0.92272   0.84630   0.00000  Uiso   1.00
H983   H     0.86886   0.93292   0.86383   0.00000  Uiso   1.00
H984   H     0.82044   0.86885   0.88866   0.00000  Uiso   1.00
loop_
_geom_bond_atom_site_label_1
_geom_bond_atom_site_label_2
_geom_bond_distance
_geom_bond_site_symmetry_2
_ccdc_geom_bond_type
O1     C5      1.288   .     A
O1     Zn13    1.992   .     S
O2     C6      1.284   .     A
O2     Zn14    1.992   .     S
O3     Zn14    2.006   .     S
O3     C5      1.293   .     A
O4     Zn13    2.006   .     S
O4     C6      1.287   .     A
C5     C27     1.443   .     S
C6     C28     1.424   .     S
O7     C11     1.277   .     A
O7     Zn13    1.963   .     S
O8     C12     1.277   .     A
O8     Zn14    1.963   .     S
O9     Zn14    1.984   .     S
O9     C11     1.286   .     A
O10    C12     1.286   .     A
O10    Zn13    1.984   .     S
C11    C15     1.405   .     S
C12    C16     1.405   .     S
Zn13   N44     2.014   .     S
Zn14   N43     2.014   .     S
C15    C180    1.335   1_455 S
C15    H181    1.087   1_455 S
C16    C97     1.335   .     S
C16    H100    1.088   .     S
H17    C97     1.087   .     S
H18    C180    1.088   1_455 S
C19    H21     1.083   .     S
C19    C23     1.377   .     A
C19    C35     1.396   .     A
C20    C24     1.379   .     A
C20    H22     1.083   .     S
C20    C36     1.399   .     A
C23    C27     1.401   .     A
C23    H25     1.084   .     S
C24    H26     1.085   .     S
C24    C28     1.394   .     A
C27    C29     1.412   .     A
C28    C30     1.408   .     A
C29    N55     1.436   .     S
C29    C31     1.389   .     A
C30    C32     1.388   .     A
C30    N58     1.439   .     S
C31    H33     1.083   .     S
C31    C35     1.399   .     A
C32    C36     1.400   .     A
C32    H34     1.083   .     S
C35    C282    1.449   1_545 S
C36    C281    1.449   .     S
C37    C53     1.401   .     A
C37    C41     1.406   .     A
C37    H39     1.083   .     S
C38    C42     1.407   .     A
C38    C54     1.400   .     A
C38    H40     1.083   .     S
C41    C61     1.467   .     S
C41    N43     1.375   .     A
C42    N44     1.377   .     A
C42    C72     1.470   .     S
N43    C45     1.364   .     A
N44    C46     1.364   .     A
C45    H47     1.082   .     S
C45    C49     1.411   .     A
C46    H48     1.081   .     S
C46    C50     1.411   .     A
C49    H51     1.081   .     S
C49    C53     1.414   .     A
C50    H52     1.081   .     S
C50    C54     1.414   .     A
C53    C546    1.516   1_554 S
C54    C545    1.516   .     S
N55    O56     1.301   .     A
N55    O57     1.302   .     A
N58    O60     1.301   .     A
N58    O59     1.300   .     A
C61    C66     1.404   .     A
C61    C62     1.401   .     A
C62    C63     1.395   .     A
C62    H67     1.080   .     S
C63    H68     1.083   .     S
C63    C64     1.395   .     A
C64    C65     1.399   .     A
C64    H233    1.078   1_455 S
C65    C66     1.399   .     A
C65    H234    1.083   1_455 S
C66    H71     1.083   .     S
H69    C146    1.078   .     S
H70    C147    1.083   .     S
C72    C77     1.405   .     A
C72    C73     1.403   .     A
C73    C74     1.398   .     A
C73    H78     1.083   .     S
C74    C75     1.398   .     A
C74    H161    1.082   .     S
C75    H80     1.082   .     S
C75    C76     1.398   .     A
C76    C77     1.398   .     A
C76    H81     1.082   .     S
C77    H82     1.083   .     S
H79    C238    1.082   1_455 S
O83    C87     1.288   .     A
O83    Zn95    1.992   .     S
O84    C88     1.284   .     A
O84    Zn96    1.992   .     S
O85    Zn96    2.006   .     S
O85    C87     1.293   .     A
O86    Zn95    2.006   .     S
O86    C88     1.287   .     A
C87    C109    1.443   .     S
C88    C110    1.424   .     S
O89    C93     1.277   .     A
O89    Zn95    1.963   .     S
O90    C94     1.277   .     A
O90    Zn96    1.963   .     S
O91    Zn96    1.984   .     S
O91    C93     1.286   .     A
O92    C94     1.286   .     A
O92    Zn95    1.984   .     S
C93    C97     1.405   .     S
C94    C98     1.405   .     S
Zn95   N126    2.014   .     S
Zn96   N125    2.014   .     S
C98    C179    1.335   .     S
C98    H182    1.088   .     S
H99    C179    1.087   .     S
C101   H103    1.083   .     S
C101   C105    1.377   .     A
C101   C117    1.396   .     A
C102   C106    1.379   .     A
C102   H104    1.083   .     S
C102   C118    1.399   .     A
C105   C109    1.401   .     A
C105   H107    1.084   .     S
C106   H108    1.085   .     S
C106   C110    1.394   .     A
C109   C111    1.412   .     A
C110   C112    1.408   .     A
C111   N137    1.436   .     S
C111   C113    1.389   .     A
C112   C114    1.388   .     A
C112   N140    1.439   .     S
C113   H115    1.083   .     S
C113   C117    1.399   .     A
C114   C118    1.400   .     A
C114   H116    1.083   .     S
C117   C364    1.449   1_545 S
C118   C363    1.449   .     S
C119   C135    1.401   .     A
C119   C123    1.406   .     A
C119   H121    1.083   .     S
C120   C124    1.407   .     A
C120   C136    1.400   .     A
C120   H122    1.083   .     S
C123   C143    1.467   .     S
C123   N125    1.375   .     A
C124   N126    1.377   .     A
C124   C154    1.470   .     S
N125   C127    1.364   .     A
N126   C128    1.364   .     A
C127   H129    1.082   .     S
C127   C131    1.411   .     A
C128   H130    1.081   .     S
C128   C132    1.411   .     A
C131   H133    1.081   .     S
C131   C135    1.414   .     A
C132   H134    1.081   .     S
C132   C136    1.414   .     A
C135   C628    1.516   1_554 S
C136   C627    1.516   .     S
N137   O138    1.301   .     A
N137   O139    1.302   .     A
N140   O142    1.301   .     A
N140   O141    1.300   .     A
C143   C148    1.404   .     A
C143   C144    1.401   .     A
C144   C145    1.395   .     A
C144   H149    1.080   .     S
C145   H150    1.083   .     S
C145   C146    1.395   .     A
C146   C147    1.399   .     A
C147   C148    1.399   .     A
C148   H153    1.083   .     S
H151   C228    1.078   .     S
H152   C229    1.083   .     S
C154   C159    1.405   .     A
C154   C155    1.403   .     A
C155   C156    1.398   .     A
C155   H160    1.083   .     S
C156   C157    1.398   .     A
C156   H243    1.082   .     S
C157   H162    1.082   .     S
C157   C158    1.398   .     A
C158   C159    1.398   .     A
C158   H163    1.082   .     S
C159   H164    1.083   .     S
O165   C169    1.288   .     A
O165   Zn177   1.992   .     S
O166   C170    1.284   .     A
O166   Zn178   1.992   .     S
O167   Zn178   2.006   .     S
O167   C169    1.293   .     A
O168   Zn177   2.006   .     S
O168   C170    1.287   .     A
C169   C191    1.443   .     S
C170   C192    1.424   .     S
O171   C175    1.277   .     A
O171   Zn177   1.963   .     S
O172   C176    1.277   .     A
O172   Zn178   1.963   .     S
O173   Zn178   1.984   .     S
O173   C175    1.286   .     A
O174   C176    1.286   .     A
O174   Zn177   1.984   .     S
C175   C179    1.405   .     S
C176   C180    1.405   .     S
Zn177  N208    2.014   .     S
Zn178  N207    2.014   .     S
C180   C15     1.335   1_655 S
C180   H18     1.088   1_655 S
H181   C15     1.087   1_655 S
C183   H185    1.083   .     S
C183   C187    1.377   .     A
C183   C199    1.396   .     A
C184   C188    1.379   .     A
C184   H186    1.083   .     S
C184   C200    1.399   .     A
C187   C191    1.401   .     A
C187   H189    1.084   .     S
C188   H190    1.085   .     S
C188   C192    1.394   .     A
C191   C193    1.412   .     A
C192   C194    1.408   .     A
C193   N219    1.436   .     S
C193   C195    1.389   .     A
C194   C196    1.388   .     A
C194   N222    1.439   .     S
C195   H197    1.083   .     S
C195   C199    1.399   .     A
C196   C200    1.400   .     A
C196   H198    1.083   .     S
C199   C446    1.449   1_545 S
C200   C445    1.449   .     S
C201   C217    1.401   .     A
C201   C205    1.406   .     A
C201   H203    1.083   .     S
C202   C206    1.407   .     A
C202   C218    1.400   .     A
C202   H204    1.083   .     S
C205   C225    1.467   .     S
C205   N207    1.375   .     A
C206   N208    1.377   .     A
C206   C236    1.470   .     S
N207   C209    1.364   .     A
N208   C210    1.364   .     A
C209   H211    1.082   .     S
C209   C213    1.411   .     A
C210   H212    1.081   .     S
C210   C214    1.411   .     A
C213   H215    1.081   .     S
C213   C217    1.414   .     A
C214   H216    1.081   .     S
C214   C218    1.414   .     A
C217   C710    1.516   1_554 S
C218   C709    1.516   .     S
N219   O220    1.301   .     A
N219   O221    1.302   .     A
N222   O224    1.301   .     A
N222   O223    1.300   .     A
C225   C230    1.404   .     A
C225   C226    1.401   .     A
C226   C227    1.395   .     A
C226   H231    1.080   .     S
C227   H232    1.083   .     S
C227   C228    1.395   .     A
C228   C229    1.399   .     A
C229   C230    1.399   .     A
C230   H235    1.083   .     S
H233   C64     1.078   1_655 S
H234   C65     1.083   1_655 S
C236   C241    1.405   .     A
C236   C237    1.403   .     A
C237   C238    1.398   .     A
C237   H242    1.083   .     S
C238   C239    1.398   .     A
C238   H79     1.082   1_655 S
C239   H244    1.082   .     S
C239   C240    1.398   .     A
C240   C241    1.398   .     A
C240   H245    1.082   .     S
C241   H246    1.083   .     S
O247   C251    1.288   .     A
O247   Zn259   1.992   .     S
O248   C252    1.284   .     A
O248   Zn260   1.992   .     S
O249   Zn260   2.006   .     S
O249   C251    1.293   .     A
O250   Zn259   2.006   .     S
O250   C252    1.287   .     A
C251   C273    1.443   .     S
C252   C274    1.424   .     S
O253   C257    1.277   .     A
O253   Zn259   1.963   .     S
O254   C258    1.277   .     A
O254   Zn260   1.963   .     S
O255   Zn260   1.984   .     S
O255   C257    1.286   .     A
O256   C258    1.286   .     A
O256   Zn259   1.984   .     S
C257   C261    1.405   .     S
C258   C262    1.405   .     S
Zn259  N290    2.014   .     S
Zn260  N289    2.014   .     S
C261   C426    1.335   1_455 S
C261   H427    1.087   1_455 S
C262   C343    1.335   .     S
C262   H346    1.088   .     S
H263   C343    1.087   .     S
H264   C426    1.088   1_455 S
C265   H267    1.083   .     S
C265   C269    1.377   .     A
C265   C281    1.396   .     A
C266   C270    1.379   .     A
C266   H268    1.083   .     S
C266   C282    1.399   .     A
C269   C273    1.401   .     A
C269   H271    1.084   .     S
C270   H272    1.085   .     S
C270   C274    1.394   .     A
C273   C275    1.412   .     A
C274   C276    1.408   .     A
C275   N301    1.436   .     S
C275   C277    1.389   .     A
C276   C278    1.388   .     A
C276   N304    1.439   .     S
C277   H279    1.083   .     S
C277   C281    1.399   .     A
C278   C282    1.400   .     A
C278   H280    1.083   .     S
C282   C35     1.449   1_565 S
C283   C299    1.401   .     A
C283   C287    1.406   .     A
C283   H285    1.083   .     S
C284   C288    1.407   .     A
C284   C300    1.400   .     A
C284   H286    1.083   .     S
C287   C307    1.467   .     S
C287   N289    1.375   .     A
C288   N290    1.377   .     A
C288   C318    1.470   .     S
N289   C291    1.364   .     A
N290   C292    1.364   .     A
C291   H293    1.082   .     S
C291   C295    1.411   .     A
C292   H294    1.081   .     S
C292   C296    1.411   .     A
C295   H297    1.081   .     S
C295   C299    1.414   .     A
C296   H298    1.081   .     S
C296   C300    1.414   .     A
C299   C792    1.516   1_554 S
C300   C791    1.516   .     S
N301   O302    1.301   .     A
N301   O303    1.302   .     A
N304   O306    1.301   .     A
N304   O305    1.300   .     A
C307   C312    1.404   .     A
C307   C308    1.401   .     A
C308   C309    1.395   .     A
C308   H313    1.080   .     S
C309   H314    1.083   .     S
C309   C310    1.395   .     A
C310   C311    1.399   .     A
C310   H479    1.078   1_455 S
C311   C312    1.399   .     A
C311   H480    1.083   1_455 S
C312   H317    1.083   .     S
H315   C392    1.078   .     S
H316   C393    1.083   .     S
C318   C323    1.405   .     A
C318   C319    1.403   .     A
C319   C320    1.398   .     A
C319   H324    1.083   .     S
C320   C321    1.398   .     A
C320   H407    1.082   .     S
C321   H326    1.082   .     S
C321   C322    1.398   .     A
C322   C323    1.398   .     A
C322   H327    1.082   .     S
C323   H328    1.083   .     S
H325   C484    1.082   1_455 S
O329   C333    1.288   .     A
O329   Zn341   1.992   .     S
O330   C334    1.284   .     A
O330   Zn342   1.992   .     S
O331   Zn342   2.006   .     S
O331   C333    1.293   .     A
O332   Zn341   2.006   .     S
O332   C334    1.287   .     A
C333   C355    1.443   .     S
C334   C356    1.424   .     S
O335   C339    1.277   .     A
O335   Zn341   1.963   .     S
O336   C340    1.277   .     A
O336   Zn342   1.963   .     S
O337   Zn342   1.984   .     S
O337   C339    1.286   .     A
O338   C340    1.286   .     A
O338   Zn341   1.984   .     S
C339   C343    1.405   .     S
C340   C344    1.405   .     S
Zn341  N372    2.014   .     S
Zn342  N371    2.014   .     S
C344   C425    1.335   .     S
C344   H428    1.088   .     S
H345   C425    1.087   .     S
C347   H349    1.083   .     S
C347   C351    1.377   .     A
C347   C363    1.396   .     A
C348   C352    1.379   .     A
C348   H350    1.083   .     S
C348   C364    1.399   .     A
C351   C355    1.401   .     A
C351   H353    1.084   .     S
C352   H354    1.085   .     S
C352   C356    1.394   .     A
C355   C357    1.412   .     A
C356   C358    1.408   .     A
C357   N383    1.436   .     S
C357   C359    1.389   .     A
C358   C360    1.388   .     A
C358   N386    1.439   .     S
C359   H361    1.083   .     S
C359   C363    1.399   .     A
C360   C364    1.400   .     A
C360   H362    1.083   .     S
C364   C117    1.449   1_565 S
C365   C381    1.401   .     A
C365   C369    1.406   .     A
C365   H367    1.083   .     S
C366   C370    1.407   .     A
C366   C382    1.400   .     A
C366   H368    1.083   .     S
C369   C389    1.467   .     S
C369   N371    1.375   .     A
C370   N372    1.377   .     A
C370   C400    1.470   .     S
N371   C373    1.364   .     A
N372   C374    1.364   .     A
C373   H375    1.082   .     S
C373   C377    1.411   .     A
C374   H376    1.081   .     S
C374   C378    1.411   .     A
C377   H379    1.081   .     S
C377   C381    1.414   .     A
C378   H380    1.081   .     S
C378   C382    1.414   .     A
C381   C874    1.516   1_554 S
C382   C873    1.516   .     S
N383   O384    1.301   .     A
N383   O385    1.302   .     A
N386   O388    1.301   .     A
N386   O387    1.300   .     A
C389   C394    1.404   .     A
C389   C390    1.401   .     A
C390   C391    1.395   .     A
C390   H395    1.080   .     S
C391   H396    1.083   .     S
C391   C392    1.395   .     A
C392   C393    1.399   .     A
C393   C394    1.399   .     A
C394   H399    1.083   .     S
H397   C474    1.078   .     S
H398   C475    1.083   .     S
C400   C405    1.405   .     A
C400   C401    1.403   .     A
C401   C402    1.398   .     A
C401   H406    1.083   .     S
C402   C403    1.398   .     A
C402   H489    1.082   .     S
C403   H408    1.082   .     S
C403   C404    1.398   .     A
C404   C405    1.398   .     A
C404   H409    1.082   .     S
C405   H410    1.083   .     S
O411   C415    1.288   .     A
O411   Zn423   1.992   .     S
O412   C416    1.284   .     A
O412   Zn424   1.992   .     S
O413   Zn424   2.006   .     S
O413   C415    1.293   .     A
O414   Zn423   2.006   .     S
O414   C416    1.287   .     A
C415   C437    1.443   .     S
C416   C438    1.424   .     S
O417   C421    1.277   .     A
O417   Zn423   1.963   .     S
O418   C422    1.277   .     A
O418   Zn424   1.963   .     S
O419   Zn424   1.984   .     S
O419   C421    1.286   .     A
O420   C422    1.286   .     A
O420   Zn423   1.984   .     S
C421   C425    1.405   .     S
C422   C426    1.405   .     S
Zn423  N454    2.014   .     S
Zn424  N453    2.014   .     S
C426   C261    1.335   1_655 S
C426   H264    1.088   1_655 S
H427   C261    1.087   1_655 S
C429   H431    1.083   .     S
C429   C433    1.377   .     A
C429   C445    1.396   .     A
C430   C434    1.379   .     A
C430   H432    1.083   .     S
C430   C446    1.399   .     A
C433   C437    1.401   .     A
C433   H435    1.084   .     S
C434   H436    1.085   .     S
C434   C438    1.394   .     A
C437   C439    1.412   .     A
C438   C440    1.408   .     A
C439   N465    1.436   .     S
C439   C441    1.389   .     A
C440   C442    1.388   .     A
C440   N468    1.439   .     S
C441   H443    1.083   .     S
C441   C445    1.399   .     A
C442   C446    1.400   .     A
C442   H444    1.083   .     S
C446   C199    1.449   1_565 S
C447   C463    1.401   .     A
C447   C451    1.406   .     A
C447   H449    1.083   .     S
C448   C452    1.407   .     A
C448   C464    1.400   .     A
C448   H450    1.083   .     S
C451   C471    1.467   .     S
C451   N453    1.375   .     A
C452   N454    1.377   .     A
C452   C482    1.470   .     S
N453   C455    1.364   .     A
N454   C456    1.364   .     A
C455   H457    1.082   .     S
C455   C459    1.411   .     A
C456   H458    1.081   .     S
C456   C460    1.411   .     A
C459   H461    1.081   .     S
C459   C463    1.414   .     A
C460   H462    1.081   .     S
C460   C464    1.414   .     A
C463   C956    1.516   1_554 S
C464   C955    1.516   .     S
N465   O466    1.301   .     A
N465   O467    1.302   .     A
N468   O470    1.301   .     A
N468   O469    1.300   .     A
C471   C476    1.404   .     A
C471   C472    1.401   .     A
C472   C473    1.395   .     A
C472   H477    1.080   .     S
C473   H478    1.083   .     S
C473   C474    1.395   .     A
C474   C475    1.399   .     A
C475   C476    1.399   .     A
C476   H481    1.083   .     S
H479   C310    1.078   1_655 S
H480   C311    1.083   1_655 S
C482   C487    1.405   .     A
C482   C483    1.403   .     A
C483   C484    1.398   .     A
C483   H488    1.083   .     S
C484   C485    1.398   .     A
C484   H325    1.082   1_655 S
C485   H490    1.082   .     S
C485   C486    1.398   .     A
C486   C487    1.398   .     A
C486   H491    1.082   .     S
C487   H492    1.083   .     S
O493   C497    1.288   .     A
O493   Zn505   1.992   .     S
O494   C498    1.284   .     A
O494   Zn506   1.992   .     S
O495   Zn506   2.006   .     S
O495   C497    1.293   .     A
O496   Zn505   2.006   .     S
O496   C498    1.287   .     A
C497   C519    1.443   .     S
C498   C520    1.424   .     S
O499   C503    1.277   .     A
O499   Zn505   1.963   .     S
O500   C504    1.277   .     A
O500   Zn506   1.963   .     S
O501   Zn506   1.984   .     S
O501   C503    1.286   .     A
O502   C504    1.286   .     A
O502   Zn505   1.984   .     S
C503   C507    1.405   .     S
C504   C508    1.405   .     S
Zn505  N536    2.014   .     S
Zn506  N535    2.014   .     S
C507   C672    1.335   1_455 S
C507   H673    1.087   1_455 S
C508   C589    1.335   .     S
C508   H592    1.088   .     S
H509   C589    1.087   .     S
H510   C672    1.088   1_455 S
C511   H513    1.083   .     S
C511   C515    1.377   .     A
C511   C527    1.396   .     A
C512   C516    1.379   .     A
C512   H514    1.083   .     S
C512   C528    1.399   .     A
C515   C519    1.401   .     A
C515   H517    1.084   .     S
C516   H518    1.085   .     S
C516   C520    1.394   .     A
C519   C521    1.412   .     A
C520   C522    1.408   .     A
C521   N547    1.436   .     S
C521   C523    1.389   .     A
C522   C524    1.388   .     A
C522   N550    1.439   .     S
C523   H525    1.083   .     S
C523   C527    1.399   .     A
C524   C528    1.400   .     A
C524   H526    1.083   .     S
C527   C774    1.449   1_545 S
C528   C773    1.449   .     S
C529   C545    1.401   .     A
C529   C533    1.406   .     A
C529   H531    1.083   .     S
C530   C534    1.407   .     A
C530   C546    1.400   .     A
C530   H532    1.083   .     S
C533   C553    1.467   .     S
C533   N535    1.375   .     A
C534   N536    1.377   .     A
C534   C564    1.470   .     S
N535   C537    1.364   .     A
N536   C538    1.364   .     A
C537   H539    1.082   .     S
C537   C541    1.411   .     A
C538   H540    1.081   .     S
C538   C542    1.411   .     A
C541   H543    1.081   .     S
C541   C545    1.414   .     A
C542   H544    1.081   .     S
C542   C546    1.414   .     A
C546   C53     1.516   1_556 S
N547   O548    1.301   .     A
N547   O549    1.302   .     A
N550   O552    1.301   .     A
N550   O551    1.300   .     A
C553   C558    1.404   .     A
C553   C554    1.401   .     A
C554   C555    1.395   .     A
C554   H559    1.080   .     S
C555   H560    1.083   .     S
C555   C556    1.395   .     A
C556   C557    1.399   .     A
C556   H725    1.078   1_455 S
C557   C558    1.399   .     A
C557   H726    1.083   1_455 S
C558   H563    1.083   .     S
H561   C638    1.078   .     S
H562   C639    1.083   .     S
C564   C569    1.405   .     A
C564   C565    1.403   .     A
C565   C566    1.398   .     A
C565   H570    1.083   .     S
C566   C567    1.398   .     A
C566   H653    1.082   .     S
C567   H572    1.082   .     S
C567   C568    1.398   .     A
C568   C569    1.398   .     A
C568   H573    1.082   .     S
C569   H574    1.083   .     S
H571   C730    1.082   1_455 S
O575   C579    1.288   .     A
O575   Zn587   1.992   .     S
O576   C580    1.284   .     A
O576   Zn588   1.992   .     S
O577   Zn588   2.006   .     S
O577   C579    1.293   .     A
O578   Zn587   2.006   .     S
O578   C580    1.287   .     A
C579   C601    1.443   .     S
C580   C602    1.424   .     S
O581   C585    1.277   .     A
O581   Zn587   1.963   .     S
O582   C586    1.277   .     A
O582   Zn588   1.963   .     S
O583   Zn588   1.984   .     S
O583   C585    1.286   .     A
O584   C586    1.286   .     A
O584   Zn587   1.984   .     S
C585   C589    1.405   .     S
C586   C590    1.405   .     S
Zn587  N618    2.014   .     S
Zn588  N617    2.014   .     S
C590   C671    1.335   .     S
C590   H674    1.088   .     S
H591   C671    1.087   .     S
C593   H595    1.083   .     S
C593   C597    1.377   .     A
C593   C609    1.396   .     A
C594   C598    1.379   .     A
C594   H596    1.083   .     S
C594   C610    1.399   .     A
C597   C601    1.401   .     A
C597   H599    1.084   .     S
C598   H600    1.085   .     S
C598   C602    1.394   .     A
C601   C603    1.412   .     A
C602   C604    1.408   .     A
C603   N629    1.436   .     S
C603   C605    1.389   .     A
C604   C606    1.388   .     A
C604   N632    1.439   .     S
C605   H607    1.083   .     S
C605   C609    1.399   .     A
C606   C610    1.400   .     A
C606   H608    1.083   .     S
C609   C856    1.449   1_545 S
C610   C855    1.449   .     S
C611   C627    1.401   .     A
C611   C615    1.406   .     A
C611   H613    1.083   .     S
C612   C616    1.407   .     A
C612   C628    1.400   .     A
C612   H614    1.083   .     S
C615   C635    1.467   .     S
C615   N617    1.375   .     A
C616   N618    1.377   .     A
C616   C646    1.470   .     S
N617   C619    1.364   .     A
N618   C620    1.364   .     A
C619   H621    1.082   .     S
C619   C623    1.411   .     A
C620   H622    1.081   .     S
C620   C624    1.411   .     A
C623   H625    1.081   .     S
C623   C627    1.414   .     A
C624   H626    1.081   .     S
C624   C628    1.414   .     A
C628   C135    1.516   1_556 S
N629   O630    1.301   .     A
N629   O631    1.302   .     A
N632   O634    1.301   .     A
N632   O633    1.300   .     A
C635   C640    1.404   .     A
C635   C636    1.401   .     A
C636   C637    1.395   .     A
C636   H641    1.080   .     S
C637   H642    1.083   .     S
C637   C638    1.395   .     A
C638   C639    1.399   .     A
C639   C640    1.399   .     A
C640   H645    1.083   .     S
H643   C720    1.078   .     S
H644   C721    1.083   .     S
C646   C651    1.405   .     A
C646   C647    1.403   .     A
C647   C648    1.398   .     A
C647   H652    1.083   .     S
C648   C649    1.398   .     A
C648   H735    1.082   .     S
C649   H654    1.082   .     S
C649   C650    1.398   .     A
C650   C651    1.398   .     A
C650   H655    1.082   .     S
C651   H656    1.083   .     S
O657   C661    1.288   .     A
O657   Zn669   1.992   .     S
O658   C662    1.284   .     A
O658   Zn670   1.992   .     S
O659   Zn670   2.006   .     S
O659   C661    1.293   .     A
O660   Zn669   2.006   .     S
O660   C662    1.287   .     A
C661   C683    1.443   .     S
C662   C684    1.424   .     S
O663   C667    1.277   .     A
O663   Zn669   1.963   .     S
O664   C668    1.277   .     A
O664   Zn670   1.963   .     S
O665   Zn670   1.984   .     S
O665   C667    1.286   .     A
O666   C668    1.286   .     A
O666   Zn669   1.984   .     S
C667   C671    1.405   .     S
C668   C672    1.405   .     S
Zn669  N700    2.014   .     S
Zn670  N699    2.014   .     S
C672   C507    1.335   1_655 S
C672   H510    1.088   1_655 S
H673   C507    1.087   1_655 S
C675   H677    1.083   .     S
C675   C679    1.377   .     A
C675   C691    1.396   .     A
C676   C680    1.379   .     A
C676   H678    1.083   .     S
C676   C692    1.399   .     A
C679   C683    1.401   .     A
C679   H681    1.084   .     S
C680   H682    1.085   .     S
C680   C684    1.394   .     A
C683   C685    1.412   .     A
C684   C686    1.408   .     A
C685   N711    1.436   .     S
C685   C687    1.389   .     A
C686   C688    1.388   .     A
C686   N714    1.439   .     S
C687   H689    1.083   .     S
C687   C691    1.399   .     A
C688   C692    1.400   .     A
C688   H690    1.083   .     S
C691   C938    1.449   1_545 S
C692   C937    1.449   .     S
C693   C709    1.401   .     A
C693   C697    1.406   .     A
C693   H695    1.083   .     S
C694   C698    1.407   .     A
C694   C710    1.400   .     A
C694   H696    1.083   .     S
C697   C717    1.467   .     S
C697   N699    1.375   .     A
C698   N700    1.377   .     A
C698   C728    1.470   .     S
N699   C701    1.364   .     A
N700   C702    1.364   .     A
C701   H703    1.082   .     S
C701   C705    1.411   .     A
C702   H704    1.081   .     S
C702   C706    1.411   .     A
C705   H707    1.081   .     S
C705   C709    1.414   .     A
C706   H708    1.081   .     S
C706   C710    1.414   .     A
C710   C217    1.516   1_556 S
N711   O712    1.301   .     A
N711   O713    1.302   .     A
N714   O716    1.301   .     A
N714   O715    1.300   .     A
C717   C722    1.404   .     A
C717   C718    1.401   .     A
C718   C719    1.395   .     A
C718   H723    1.080   .     S
C719   H724    1.083   .     S
C719   C720    1.395   .     A
C720   C721    1.399   .     A
C721   C722    1.399   .     A
C722   H727    1.083   .     S
H725   C556    1.078   1_655 S
H726   C557    1.083   1_655 S
C728   C733    1.405   .     A
C728   C729    1.403   .     A
C729   C730    1.398   .     A
C729   H734    1.083   .     S
C730   C731    1.398   .     A
C730   H571    1.082   1_655 S
C731   H736    1.082   .     S
C731   C732    1.398   .     A
C732   C733    1.398   .     A
C732   H737    1.082   .     S
C733   H738    1.083   .     S
O739   C743    1.288   .     A
O739   Zn751   1.992   .     S
O740   C744    1.284   .     A
O740   Zn752   1.992   .     S
O741   Zn752   2.006   .     S
O741   C743    1.293   .     A
O742   Zn751   2.006   .     S
O742   C744    1.287   .     A
C743   C765    1.443   .     S
C744   C766    1.424   .     S
O745   C749    1.277   .     A
O745   Zn751   1.963   .     S
O746   C750    1.277   .     A
O746   Zn752   1.963   .     S
O747   Zn752   1.984   .     S
O747   C749    1.286   .     A
O748   C750    1.286   .     A
O748   Zn751   1.984   .     S
C749   C753    1.405   .     S
C750   C754    1.405   .     S
Zn751  N782    2.014   .     S
Zn752  N781    2.014   .     S
C753   C918    1.335   1_455 S
C753   H919    1.087   1_455 S
C754   C835    1.335   .     S
C754   H838    1.088   .     S
H755   C835    1.087   .     S
H756   C918    1.088   1_455 S
C757   H759    1.083   .     S
C757   C761    1.377   .     A
C757   C773    1.396   .     A
C758   C762    1.379   .     A
C758   H760    1.083   .     S
C758   C774    1.399   .     A
C761   C765    1.401   .     A
C761   H763    1.084   .     S
C762   H764    1.085   .     S
C762   C766    1.394   .     A
C765   C767    1.412   .     A
C766   C768    1.408   .     A
C767   N793    1.436   .     S
C767   C769    1.389   .     A
C768   C770    1.388   .     A
C768   N796    1.439   .     S
C769   H771    1.083   .     S
C769   C773    1.399   .     A
C770   C774    1.400   .     A
C770   H772    1.083   .     S
C774   C527    1.449   1_565 S
C775   C791    1.401   .     A
C775   C779    1.406   .     A
C775   H777    1.083   .     S
C776   C780    1.407   .     A
C776   C792    1.400   .     A
C776   H778    1.083   .     S
C779   C799    1.467   .     S
C779   N781    1.375   .     A
C780   N782    1.377   .     A
C780   C810    1.470   .     S
N781   C783    1.364   .     A
N782   C784    1.364   .     A
C783   H785    1.082   .     S
C783   C787    1.411   .     A
C784   H786    1.081   .     S
C784   C788    1.411   .     A
C787   H789    1.081   .     S
C787   C791    1.414   .     A
C788   H790    1.081   .     S
C788   C792    1.414   .     A
C792   C299    1.516   1_556 S
N793   O794    1.301   .     A
N793   O795    1.302   .     A
N796   O798    1.301   .     A
N796   O797    1.300   .     A
C799   C804    1.404   .     A
C799   C800    1.401   .     A
C800   C801    1.395   .     A
C800   H805    1.080   .     S
C801   H806    1.083   .     S
C801   C802    1.395   .     A
C802   C803    1.399   .     A
C802   H971    1.078   1_455 S
C803   C804    1.399   .     A
C803   H972    1.083   1_455 S
C804   H809    1.083   .     S
H807   C884    1.078   .     S
H808   C885    1.083   .     S
C810   C815    1.405   .     A
C810   C811    1.403   .     A
C811   C812    1.398   .     A
C811   H816    1.083   .     S
C812   C813    1.398   .     A
C812   H899    1.082   .     S
C813   H818    1.082   .     S
C813   C814    1.398   .     A
C814   C815    1.398   .     A
C814   H819    1.082   .     S
C815   H820    1.083   .     S
H817   C976    1.082   1_455 S
O821   C825    1.288   .     A
O821   Zn833   1.992   .     S
O822   C826    1.284   .     A
O822   Zn834   1.992   .     S
O823   Zn834   2.006   .     S
O823   C825    1.293   .     A
O824   Zn833   2.006   .     S
O824   C826    1.287   .     A
C825   C847    1.443   .     S
C826   C848    1.424   .     S
O827   C831    1.277   .     A
O827   Zn833   1.963   .     S
O828   C832    1.277   .     A
O828   Zn834   1.963   .     S
O829   Zn834   1.984   .     S
O829   C831    1.286   .     A
O830   C832    1.286   .     A
O830   Zn833   1.984   .     S
C831   C835    1.405   .     S
C832   C836    1.405   .     S
Zn833  N864    2.014   .     S
Zn834  N863    2.014   .     S
C836   C917    1.335   .     S
C836   H920    1.088   .     S
H837   C917    1.087   .     S
C839   H841    1.083   .     S
C839   C843    1.377   .     A
C839   C855    1.396   .     A
C840   C844    1.379   .     A
C840   H842    1.083   .     S
C840   C856    1.399   .     A
C843   C847    1.401   .     A
C843   H845    1.084   .     S
C844   H846    1.085   .     S
C844   C848    1.394   .     A
C847   C849    1.412   .     A
C848   C850    1.408   .     A
C849   N875    1.436   .     S
C849   C851    1.389   .     A
C850   C852    1.388   .     A
C850   N878    1.439   .     S
C851   H853    1.083   .     S
C851   C855    1.399   .     A
C852   C856    1.400   .     A
C852   H854    1.083   .     S
C856   C609    1.449   1_565 S
C857   C873    1.401   .     A
C857   C861    1.406   .     A
C857   H859    1.083   .     S
C858   C862    1.407   .     A
C858   C874    1.400   .     A
C858   H860    1.083   .     S
C861   C881    1.467   .     S
C861   N863    1.375   .     A
C862   N864    1.377   .     A
C862   C892    1.470   .     S
N863   C865    1.364   .     A
N864   C866    1.364   .     A
C865   H867    1.082   .     S
C865   C869    1.411   .     A
C866   H868    1.081   .     S
C866   C870    1.411   .     A
C869   H871    1.081   .     S
C869   C873    1.414   .     A
C870   H872    1.081   .     S
C870   C874    1.414   .     A
C874   C381    1.516   1_556 S
N875   O876    1.301   .     A
N875   O877    1.302   .     A
N878   O880    1.301   .     A
N878   O879    1.300   .     A
C881   C886    1.404   .     A
C881   C882    1.401   .     A
C882   C883    1.395   .     A
C882   H887    1.080   .     S
C883   H888    1.083   .     S
C883   C884    1.395   .     A
C884   C885    1.399   .     A
C885   C886    1.399   .     A
C886   H891    1.083   .     S
H889   C966    1.078   .     S
H890   C967    1.083   .     S
C892   C897    1.405   .     A
C892   C893    1.403   .     A
C893   C894    1.398   .     A
C893   H898    1.083   .     S
C894   C895    1.398   .     A
C894   H981    1.082   .     S
C895   H900    1.082   .     S
C895   C896    1.398   .     A
C896   C897    1.398   .     A
C896   H901    1.082   .     S
C897   H902    1.083   .     S
O903   C907    1.288   .     A
O903   Zn915   1.992   .     S
O904   C908    1.284   .     A
O904   Zn916   1.992   .     S
O905   Zn916   2.006   .     S
O905   C907    1.293   .     A
O906   Zn915   2.006   .     S
O906   C908    1.287   .     A
C907   C929    1.443   .     S
C908   C930    1.424   .     S
O909   C913    1.277   .     A
O909   Zn915   1.963   .     S
O910   C914    1.277   .     A
O910   Zn916   1.963   .     S
O911   Zn916   1.984   .     S
O911   C913    1.286   .     A
O912   C914    1.286   .     A
O912   Zn915   1.984   .     S
C913   C917    1.405   .     S
C914   C918    1.405   .     S
Zn915  N946    2.014   .     S
Zn916  N945    2.014   .     S
C918   C753    1.335   1_655 S
C918   H756    1.088   1_655 S
H919   C753    1.087   1_655 S
C921   H923    1.083   .     S
C921   C925    1.377   .     A
C921   C937    1.396   .     A
C922   C926    1.379   .     A
C922   H924    1.083   .     S
C922   C938    1.399   .     A
C925   C929    1.401   .     A
C925   H927    1.084   .     S
C926   H928    1.085   .     S
C926   C930    1.394   .     A
C929   C931    1.412   .     A
C930   C932    1.408   .     A
C931   N957    1.436   .     S
C931   C933    1.389   .     A
C932   C934    1.388   .     A
C932   N960    1.439   .     S
C933   H935    1.083   .     S
C933   C937    1.399   .     A
C934   C938    1.400   .     A
C934   H936    1.083   .     S
C938   C691    1.449   1_565 S
C939   C955    1.401   .     A
C939   C943    1.406   .     A
C939   H941    1.083   .     S
C940   C944    1.407   .     A
C940   C956    1.400   .     A
C940   H942    1.083   .     S
C943   C963    1.467   .     S
C943   N945    1.375   .     A
C944   N946    1.377   .     A
C944   C974    1.470   .     S
N945   C947    1.364   .     A
N946   C948    1.364   .     A
C947   H949    1.082   .     S
C947   C951    1.411   .     A
C948   H950    1.081   .     S
C948   C952    1.411   .     A
C951   H953    1.081   .     S
C951   C955    1.414   .     A
C952   H954    1.081   .     S
C952   C956    1.414   .     A
C956   C463    1.516   1_556 S
N957   O958    1.301   .     A
N957   O959    1.302   .     A
N960   O962    1.301   .     A
N960   O961    1.300   .     A
C963   C968    1.404   .     A
C963   C964    1.401   .     A
C964   C965    1.395   .     A
C964   H969    1.080   .     S
C965   H970    1.083   .     S
C965   C966    1.395   .     A
C966   C967    1.399   .     A
C967   C968    1.399   .     A
C968   H973    1.083   .     S
H971   C802    1.078   1_655 S
H972   C803    1.083   1_655 S
C974   C979    1.405   .     A
C974   C975    1.403   .     A
C975   C976    1.398   .     A
C975   H980    1.083   .     S
C976   C977    1.398   .     A
C976   H817    1.082   1_655 S
C977   H982    1.082   .     S
C977   C978    1.398   .     A
C978   C979    1.398   .     A
C978   H983    1.082   .     S
C979   H984    1.083   .     S
