data_str_m3_o10_o17_pcu_sym.2
_audit_creation_date              2020-01-03
_audit_creation_method            'Materials Studio'
_symmetry_space_group_name_H-M    'P1'
_symmetry_Int_Tables_number       1
_symmetry_cell_setting            triclinic
loop_
_symmetry_equiv_pos_as_xyz
  x,y,z
_cell_length_a                    23.2297
_cell_length_b                    25.7948
_cell_length_c                    30.0251
_cell_angle_alpha                 91.0172
_cell_angle_beta                  85.8666
_cell_angle_gamma                 93.7764
loop_
_atom_site_label
_atom_site_type_symbol
_atom_site_fract_x
_atom_site_fract_y
_atom_site_fract_z
_atom_site_U_iso_or_equiv
_atom_site_adp_type
_atom_site_occupancy
C1     C     0.18184   0.26481   0.24894   0.00000  Uiso   1.00
C2     C     0.20078   0.20607   0.40571   0.00000  Uiso   1.00
C3     C     0.16468   0.16698   0.11595   0.00000  Uiso   1.00
C4     C     0.16865   0.16635   0.38405   0.00000  Uiso   1.00
C5     C     0.19737   0.20649   0.09223   0.00000  Uiso   1.00
C6     C     0.13597   0.12684   0.40777   0.00000  Uiso   1.00
C7     C     0.19507   0.20802   0.04591   0.00000  Uiso   1.00
C8     C     0.13826   0.12531   0.45409   0.00000  Uiso   1.00
C9     C     0.16690   0.16615   0.02336   0.00000  Uiso   1.00
C10    C     0.16643   0.16718   0.47664   0.00000  Uiso   1.00
C11    C     0.13930   0.12331   0.04743   0.00000  Uiso   1.00
C12    C     0.15150   0.06853   0.25106   0.00000  Uiso   1.00
C13    C     0.19403   0.21002   0.45258   0.00000  Uiso   1.00
C14    C     0.21767   0.25197   0.02217   0.00000  Uiso   1.00
C15    C     0.11566   0.08136   0.47783   0.00000  Uiso   1.00
C16    C     0.08816   0.09372   0.12040   0.00000  Uiso   1.00
C17    C     0.24517   0.23962   0.37960   0.00000  Uiso   1.00
C18    C     0.23077   0.24799   0.11624   0.00000  Uiso   1.00
C19    C     0.10256   0.08535   0.38376   0.00000  Uiso   1.00
C20    C     0.22582   0.30710   0.45641   0.00000  Uiso   1.00
C21    C     0.10752   0.02623   0.04359   0.00000  Uiso   1.00
C22    C     0.21450   0.25477   0.47638   0.00000  Uiso   1.00
C23    C     0.11883   0.07856   0.02362   0.00000  Uiso   1.00
C24    C     0.18996   0.31900   0.24947   0.00000  Uiso   1.00
C25    C     0.14338   0.01433   0.25053   0.00000  Uiso   1.00
C26    C     0.16745   0.16678   0.33636   0.00000  Uiso   1.00
C27    C     0.16588   0.16655   0.16364   0.00000  Uiso   1.00
C28    C     0.13256   0.12726   0.09429   0.00000  Uiso   1.00
F29    F     0.24575   0.00597   0.24934   0.00000  Uiso   1.00
F30    F     0.08759   0.32736   0.25066   0.00000  Uiso   1.00
H31    H     0.23455   0.28616   0.03960   0.00000  Uiso   1.00
H32    H     0.05964   0.29136   0.04485   0.00000  Uiso   1.00
H33    H     0.09878   0.04718   0.46040   0.00000  Uiso   1.00
H34    H     0.00480   0.12776   0.21623   0.00000  Uiso   1.00
H35    H     0.32854   0.20557   0.28377   0.00000  Uiso   1.00
H36    H     0.06984   0.04300   0.17048   0.00000  Uiso   1.00
H37    H     0.26349   0.29033   0.32952   0.00000  Uiso   1.00
H38    H     0.22884   0.30991   0.15785   0.00000  Uiso   1.00
H39    H     0.10449   0.02342   0.34216   0.00000  Uiso   1.00
H40    H     0.27369   0.04197   0.45515   0.00000  Uiso   1.00
N41    N     0.31678   0.15265   0.23783   0.00000  Uiso   1.00
N42    N     0.01656   0.18068   0.26217   0.00000  Uiso   1.00
O43    O     0.12975   0.24619   0.25299   0.00000  Uiso   1.00
O44    O     0.10386   0.06456   0.15584   0.00000  Uiso   1.00
O45    O     0.29538   0.24204   0.38967   0.00000  Uiso   1.00
O46    O     0.22947   0.26878   0.34416   0.00000  Uiso   1.00
O47    O     0.28338   0.25310   0.10953   0.00000  Uiso   1.00
O48    O     0.20169   0.28184   0.14535   0.00000  Uiso   1.00
O49    O     0.04995   0.08024   0.39047   0.00000  Uiso   1.00
O50    O     0.13164   0.05149   0.35465   0.00000  Uiso   1.00
O51    O     0.19392   0.32198   0.42927   0.00000  Uiso   1.00
O52    O     0.27116   0.00707   0.47043   0.00000  Uiso   1.00
O53    O     0.13941   0.01135   0.07073   0.00000  Uiso   1.00
O54    O     0.20358   0.08714   0.24702   0.00000  Uiso   1.00
O55    O     0.06218   0.32626   0.02957   0.00000  Uiso   1.00
O56    O     0.22613   0.23721   0.24519   0.00000  Uiso   1.00
O57    O     0.10720   0.09613   0.25482   0.00000  Uiso   1.00
O58    O     0.11847   0.17117   0.31998   0.00000  Uiso   1.00
O59    O     0.21486   0.16216   0.18003   0.00000  Uiso   1.00
O60    O     0.21485   0.16219   0.31218   0.00000  Uiso   1.00
O61    O     0.11848   0.17115   0.18783   0.00000  Uiso   1.00
O62    O     0.03795   0.09129   0.11033   0.00000  Uiso   1.00
Zn63   Zn    0.10231   0.17266   0.25521   0.00000  Uiso   1.00
Zn64   Zn    0.23102   0.16067   0.24479   0.00000  Uiso   1.00
C65    C     0.51517   0.26481   0.24894   0.00000  Uiso   1.00
C66    C     0.53411   0.20607   0.40571   0.00000  Uiso   1.00
C67    C     0.49801   0.16698   0.11595   0.00000  Uiso   1.00
C68    C     0.50199   0.16635   0.38405   0.00000  Uiso   1.00
C69    C     0.53070   0.20649   0.09223   0.00000  Uiso   1.00
C70    C     0.46930   0.12684   0.40777   0.00000  Uiso   1.00
C71    C     0.52841   0.20802   0.04591   0.00000  Uiso   1.00
C72    C     0.47159   0.12531   0.45409   0.00000  Uiso   1.00
C73    C     0.50024   0.16615   0.02336   0.00000  Uiso   1.00
C74    C     0.49976   0.16718   0.47664   0.00000  Uiso   1.00
C75    C     0.47263   0.12331   0.04743   0.00000  Uiso   1.00
C76    C     0.48483   0.06853   0.25106   0.00000  Uiso   1.00
C77    C     0.52737   0.21002   0.45258   0.00000  Uiso   1.00
C78    C     0.55100   0.25197   0.02217   0.00000  Uiso   1.00
C79    C     0.44900   0.08136   0.47783   0.00000  Uiso   1.00
C80    C     0.42150   0.09372   0.12040   0.00000  Uiso   1.00
C81    C     0.57850   0.23962   0.37960   0.00000  Uiso   1.00
C82    C     0.56411   0.24799   0.11624   0.00000  Uiso   1.00
C83    C     0.43589   0.08535   0.38376   0.00000  Uiso   1.00
C84    C     0.55915   0.30710   0.45641   0.00000  Uiso   1.00
C85    C     0.44085   0.02623   0.04359   0.00000  Uiso   1.00
C86    C     0.54784   0.25477   0.47638   0.00000  Uiso   1.00
C87    C     0.45216   0.07856   0.02362   0.00000  Uiso   1.00
C88    C     0.52329   0.31900   0.24947   0.00000  Uiso   1.00
C89    C     0.47671   0.01433   0.25053   0.00000  Uiso   1.00
C90    C     0.50078   0.16678   0.33636   0.00000  Uiso   1.00
C91    C     0.49922   0.16655   0.16364   0.00000  Uiso   1.00
C92    C     0.46589   0.12726   0.09429   0.00000  Uiso   1.00
F93    F     0.57908   0.00597   0.24934   0.00000  Uiso   1.00
F94    F     0.42092   0.32736   0.25066   0.00000  Uiso   1.00
H95    H     0.56789   0.28616   0.03960   0.00000  Uiso   1.00
H96    H     0.39298   0.29136   0.04485   0.00000  Uiso   1.00
H97    H     0.43212   0.04718   0.46040   0.00000  Uiso   1.00
H98    H     0.33813   0.12776   0.21623   0.00000  Uiso   1.00
H99    H     0.66187   0.20557   0.28377   0.00000  Uiso   1.00
H100   H     0.40318   0.04300   0.17048   0.00000  Uiso   1.00
H101   H     0.59682   0.29033   0.32952   0.00000  Uiso   1.00
H102   H     0.56218   0.30991   0.15785   0.00000  Uiso   1.00
H103   H     0.43782   0.02342   0.34216   0.00000  Uiso   1.00
H104   H     0.60702   0.04197   0.45515   0.00000  Uiso   1.00
N105   N     0.65011   0.15265   0.23783   0.00000  Uiso   1.00
N106   N     0.34989   0.18068   0.26217   0.00000  Uiso   1.00
O107   O     0.46308   0.24619   0.25299   0.00000  Uiso   1.00
O108   O     0.43720   0.06456   0.15584   0.00000  Uiso   1.00
O109   O     0.62871   0.24204   0.38967   0.00000  Uiso   1.00
O110   O     0.56280   0.26878   0.34416   0.00000  Uiso   1.00
O111   O     0.61671   0.25310   0.10953   0.00000  Uiso   1.00
O112   O     0.53502   0.28184   0.14535   0.00000  Uiso   1.00
O113   O     0.38329   0.08024   0.39047   0.00000  Uiso   1.00
O114   O     0.46498   0.05149   0.35465   0.00000  Uiso   1.00
O115   O     0.52726   0.32198   0.42927   0.00000  Uiso   1.00
O116   O     0.60449   0.00707   0.47043   0.00000  Uiso   1.00
O117   O     0.47274   0.01135   0.07073   0.00000  Uiso   1.00
O118   O     0.53692   0.08714   0.24702   0.00000  Uiso   1.00
O119   O     0.39551   0.32626   0.02957   0.00000  Uiso   1.00
O120   O     0.55946   0.23721   0.24519   0.00000  Uiso   1.00
O121   O     0.44054   0.09613   0.25482   0.00000  Uiso   1.00
O122   O     0.45181   0.17117   0.31998   0.00000  Uiso   1.00
O123   O     0.54819   0.16216   0.18003   0.00000  Uiso   1.00
O124   O     0.54819   0.16219   0.31218   0.00000  Uiso   1.00
O125   O     0.45181   0.17115   0.18783   0.00000  Uiso   1.00
O126   O     0.37129   0.09129   0.11033   0.00000  Uiso   1.00
Zn127  Zn    0.43565   0.17266   0.25521   0.00000  Uiso   1.00
Zn128  Zn    0.56435   0.16067   0.24479   0.00000  Uiso   1.00
C129   C     0.84851   0.26481   0.24894   0.00000  Uiso   1.00
C130   C     0.86744   0.20607   0.40571   0.00000  Uiso   1.00
C131   C     0.83135   0.16698   0.11595   0.00000  Uiso   1.00
C132   C     0.83532   0.16635   0.38405   0.00000  Uiso   1.00
C133   C     0.86404   0.20649   0.09223   0.00000  Uiso   1.00
C134   C     0.80263   0.12684   0.40777   0.00000  Uiso   1.00
C135   C     0.86174   0.20802   0.04591   0.00000  Uiso   1.00
C136   C     0.80493   0.12531   0.45409   0.00000  Uiso   1.00
C137   C     0.83357   0.16615   0.02336   0.00000  Uiso   1.00
C138   C     0.83310   0.16718   0.47664   0.00000  Uiso   1.00
C139   C     0.80597   0.12331   0.04743   0.00000  Uiso   1.00
C140   C     0.81816   0.06853   0.25106   0.00000  Uiso   1.00
C141   C     0.86070   0.21002   0.45258   0.00000  Uiso   1.00
C142   C     0.88434   0.25197   0.02217   0.00000  Uiso   1.00
C143   C     0.78233   0.08136   0.47783   0.00000  Uiso   1.00
C144   C     0.75483   0.09372   0.12040   0.00000  Uiso   1.00
C145   C     0.91184   0.23962   0.37960   0.00000  Uiso   1.00
C146   C     0.89744   0.24799   0.11624   0.00000  Uiso   1.00
C147   C     0.76923   0.08535   0.38376   0.00000  Uiso   1.00
C148   C     0.89248   0.30710   0.45641   0.00000  Uiso   1.00
C149   C     0.77419   0.02623   0.04359   0.00000  Uiso   1.00
C150   C     0.88117   0.25477   0.47638   0.00000  Uiso   1.00
C151   C     0.78550   0.07856   0.02362   0.00000  Uiso   1.00
C152   C     0.85662   0.31900   0.24947   0.00000  Uiso   1.00
C153   C     0.81004   0.01433   0.25053   0.00000  Uiso   1.00
C154   C     0.83412   0.16678   0.33636   0.00000  Uiso   1.00
C155   C     0.83255   0.16655   0.16364   0.00000  Uiso   1.00
C156   C     0.79922   0.12726   0.09429   0.00000  Uiso   1.00
F157   F     0.91241   0.00597   0.24934   0.00000  Uiso   1.00
F158   F     0.75425   0.32736   0.25066   0.00000  Uiso   1.00
H159   H     0.90122   0.28616   0.03960   0.00000  Uiso   1.00
H160   H     0.72631   0.29136   0.04485   0.00000  Uiso   1.00
H161   H     0.76545   0.04718   0.46040   0.00000  Uiso   1.00
H162   H     0.67146   0.12776   0.21623   0.00000  Uiso   1.00
H163   H     0.99520   0.20557   0.28377   0.00000  Uiso   1.00
H164   H     0.73651   0.04300   0.17048   0.00000  Uiso   1.00
H165   H     0.93016   0.29033   0.32952   0.00000  Uiso   1.00
H166   H     0.89551   0.30991   0.15785   0.00000  Uiso   1.00
H167   H     0.77115   0.02342   0.34216   0.00000  Uiso   1.00
H168   H     0.94036   0.04197   0.45515   0.00000  Uiso   1.00
N169   N     0.98344   0.15265   0.23783   0.00000  Uiso   1.00
N170   N     0.68322   0.18068   0.26217   0.00000  Uiso   1.00
O171   O     0.79642   0.24619   0.25299   0.00000  Uiso   1.00
O172   O     0.77053   0.06456   0.15584   0.00000  Uiso   1.00
O173   O     0.96205   0.24204   0.38967   0.00000  Uiso   1.00
O174   O     0.89614   0.26878   0.34416   0.00000  Uiso   1.00
O175   O     0.95004   0.25310   0.10953   0.00000  Uiso   1.00
O176   O     0.86835   0.28184   0.14535   0.00000  Uiso   1.00
O177   O     0.71662   0.08024   0.39047   0.00000  Uiso   1.00
O178   O     0.79831   0.05149   0.35465   0.00000  Uiso   1.00
O179   O     0.86059   0.32198   0.42927   0.00000  Uiso   1.00
O180   O     0.93783   0.00707   0.47043   0.00000  Uiso   1.00
O181   O     0.80608   0.01135   0.07073   0.00000  Uiso   1.00
O182   O     0.87025   0.08714   0.24702   0.00000  Uiso   1.00
O183   O     0.72884   0.32626   0.02957   0.00000  Uiso   1.00
O184   O     0.89280   0.23721   0.24519   0.00000  Uiso   1.00
O185   O     0.77387   0.09613   0.25482   0.00000  Uiso   1.00
O186   O     0.78514   0.17117   0.31998   0.00000  Uiso   1.00
O187   O     0.88153   0.16216   0.18003   0.00000  Uiso   1.00
O188   O     0.88152   0.16219   0.31218   0.00000  Uiso   1.00
O189   O     0.78515   0.17115   0.18783   0.00000  Uiso   1.00
O190   O     0.70462   0.09129   0.11033   0.00000  Uiso   1.00
Zn191  Zn    0.76898   0.17266   0.25521   0.00000  Uiso   1.00
Zn192  Zn    0.89769   0.16067   0.24479   0.00000  Uiso   1.00
C193   C     0.18184   0.59814   0.24894   0.00000  Uiso   1.00
C194   C     0.20078   0.53940   0.40571   0.00000  Uiso   1.00
C195   C     0.16468   0.50032   0.11595   0.00000  Uiso   1.00
C196   C     0.16865   0.49968   0.38405   0.00000  Uiso   1.00
C197   C     0.19737   0.53983   0.09223   0.00000  Uiso   1.00
C198   C     0.13597   0.46017   0.40777   0.00000  Uiso   1.00
C199   C     0.19507   0.54135   0.04591   0.00000  Uiso   1.00
C200   C     0.13826   0.45865   0.45409   0.00000  Uiso   1.00
C201   C     0.16690   0.49948   0.02336   0.00000  Uiso   1.00
C202   C     0.16643   0.50052   0.47664   0.00000  Uiso   1.00
C203   C     0.13930   0.45664   0.04743   0.00000  Uiso   1.00
C204   C     0.15150   0.40186   0.25106   0.00000  Uiso   1.00
C205   C     0.19403   0.54336   0.45258   0.00000  Uiso   1.00
C206   C     0.21767   0.58530   0.02217   0.00000  Uiso   1.00
C207   C     0.11566   0.41470   0.47783   0.00000  Uiso   1.00
C208   C     0.08816   0.42705   0.12040   0.00000  Uiso   1.00
C209   C     0.24517   0.57295   0.37960   0.00000  Uiso   1.00
C210   C     0.23077   0.58132   0.11624   0.00000  Uiso   1.00
C211   C     0.10256   0.41868   0.38376   0.00000  Uiso   1.00
C212   C     0.22582   0.64044   0.45641   0.00000  Uiso   1.00
C213   C     0.10752   0.35956   0.04359   0.00000  Uiso   1.00
C214   C     0.21450   0.58810   0.47638   0.00000  Uiso   1.00
C215   C     0.11883   0.41190   0.02362   0.00000  Uiso   1.00
C216   C     0.18996   0.65234   0.24947   0.00000  Uiso   1.00
C217   C     0.14338   0.34766   0.25053   0.00000  Uiso   1.00
C218   C     0.16745   0.50012   0.33636   0.00000  Uiso   1.00
C219   C     0.16588   0.49988   0.16364   0.00000  Uiso   1.00
C220   C     0.13256   0.46060   0.09429   0.00000  Uiso   1.00
F221   F     0.24575   0.33931   0.24934   0.00000  Uiso   1.00
F222   F     0.08759   0.66069   0.25066   0.00000  Uiso   1.00
H223   H     0.23455   0.61949   0.03960   0.00000  Uiso   1.00
H224   H     0.05964   0.62469   0.04485   0.00000  Uiso   1.00
H225   H     0.09878   0.38051   0.46040   0.00000  Uiso   1.00
H226   H     0.00480   0.46110   0.21623   0.00000  Uiso   1.00
H227   H     0.32854   0.53890   0.28377   0.00000  Uiso   1.00
H228   H     0.06984   0.37634   0.17048   0.00000  Uiso   1.00
H229   H     0.26349   0.62367   0.32952   0.00000  Uiso   1.00
H230   H     0.22884   0.64325   0.15785   0.00000  Uiso   1.00
H231   H     0.10449   0.35675   0.34216   0.00000  Uiso   1.00
H232   H     0.27369   0.37530   0.45515   0.00000  Uiso   1.00
N233   N     0.31678   0.48598   0.23783   0.00000  Uiso   1.00
N234   N     0.01656   0.51402   0.26217   0.00000  Uiso   1.00
O235   O     0.12975   0.57952   0.25299   0.00000  Uiso   1.00
O236   O     0.10386   0.39789   0.15584   0.00000  Uiso   1.00
O237   O     0.29538   0.57538   0.38967   0.00000  Uiso   1.00
O238   O     0.22947   0.60211   0.34416   0.00000  Uiso   1.00
O239   O     0.28338   0.58643   0.10953   0.00000  Uiso   1.00
O240   O     0.20169   0.61518   0.14535   0.00000  Uiso   1.00
O241   O     0.04995   0.41357   0.39047   0.00000  Uiso   1.00
O242   O     0.13164   0.38482   0.35465   0.00000  Uiso   1.00
O243   O     0.19392   0.65531   0.42927   0.00000  Uiso   1.00
O244   O     0.27116   0.34040   0.47043   0.00000  Uiso   1.00
O245   O     0.13941   0.34469   0.07073   0.00000  Uiso   1.00
O246   O     0.20358   0.42048   0.24702   0.00000  Uiso   1.00
O247   O     0.06218   0.65960   0.02957   0.00000  Uiso   1.00
O248   O     0.22613   0.57054   0.24519   0.00000  Uiso   1.00
O249   O     0.10720   0.42946   0.25482   0.00000  Uiso   1.00
O250   O     0.11847   0.50450   0.31998   0.00000  Uiso   1.00
O251   O     0.21486   0.49550   0.18003   0.00000  Uiso   1.00
O252   O     0.21485   0.49552   0.31218   0.00000  Uiso   1.00
O253   O     0.11848   0.50448   0.18783   0.00000  Uiso   1.00
O254   O     0.03795   0.42462   0.11033   0.00000  Uiso   1.00
Zn255  Zn    0.10231   0.50600   0.25521   0.00000  Uiso   1.00
Zn256  Zn    0.23102   0.49400   0.24479   0.00000  Uiso   1.00
C257   C     0.51517   0.59814   0.24894   0.00000  Uiso   1.00
C258   C     0.53411   0.53940   0.40571   0.00000  Uiso   1.00
C259   C     0.49801   0.50032   0.11595   0.00000  Uiso   1.00
C260   C     0.50199   0.49968   0.38405   0.00000  Uiso   1.00
C261   C     0.53070   0.53983   0.09223   0.00000  Uiso   1.00
C262   C     0.46930   0.46017   0.40777   0.00000  Uiso   1.00
C263   C     0.52841   0.54135   0.04591   0.00000  Uiso   1.00
C264   C     0.47159   0.45865   0.45409   0.00000  Uiso   1.00
C265   C     0.50024   0.49948   0.02336   0.00000  Uiso   1.00
C266   C     0.49976   0.50052   0.47664   0.00000  Uiso   1.00
C267   C     0.47263   0.45664   0.04743   0.00000  Uiso   1.00
C268   C     0.48483   0.40186   0.25106   0.00000  Uiso   1.00
C269   C     0.52737   0.54336   0.45258   0.00000  Uiso   1.00
C270   C     0.55100   0.58530   0.02217   0.00000  Uiso   1.00
C271   C     0.44900   0.41470   0.47783   0.00000  Uiso   1.00
C272   C     0.42150   0.42705   0.12040   0.00000  Uiso   1.00
C273   C     0.57850   0.57295   0.37960   0.00000  Uiso   1.00
C274   C     0.56411   0.58132   0.11624   0.00000  Uiso   1.00
C275   C     0.43589   0.41868   0.38376   0.00000  Uiso   1.00
C276   C     0.55915   0.64044   0.45641   0.00000  Uiso   1.00
C277   C     0.44085   0.35956   0.04359   0.00000  Uiso   1.00
C278   C     0.54784   0.58810   0.47638   0.00000  Uiso   1.00
C279   C     0.45216   0.41190   0.02362   0.00000  Uiso   1.00
C280   C     0.52329   0.65234   0.24947   0.00000  Uiso   1.00
C281   C     0.47671   0.34766   0.25053   0.00000  Uiso   1.00
C282   C     0.50078   0.50012   0.33636   0.00000  Uiso   1.00
C283   C     0.49922   0.49988   0.16364   0.00000  Uiso   1.00
C284   C     0.46589   0.46060   0.09429   0.00000  Uiso   1.00
F285   F     0.57908   0.33931   0.24934   0.00000  Uiso   1.00
F286   F     0.42092   0.66069   0.25066   0.00000  Uiso   1.00
H287   H     0.56789   0.61949   0.03960   0.00000  Uiso   1.00
H288   H     0.39298   0.62469   0.04485   0.00000  Uiso   1.00
H289   H     0.43212   0.38051   0.46040   0.00000  Uiso   1.00
H290   H     0.33813   0.46110   0.21623   0.00000  Uiso   1.00
H291   H     0.66187   0.53890   0.28377   0.00000  Uiso   1.00
H292   H     0.40318   0.37634   0.17048   0.00000  Uiso   1.00
H293   H     0.59682   0.62367   0.32952   0.00000  Uiso   1.00
H294   H     0.56218   0.64325   0.15785   0.00000  Uiso   1.00
H295   H     0.43782   0.35675   0.34216   0.00000  Uiso   1.00
H296   H     0.60702   0.37530   0.45515   0.00000  Uiso   1.00
N297   N     0.65011   0.48598   0.23783   0.00000  Uiso   1.00
N298   N     0.34989   0.51402   0.26217   0.00000  Uiso   1.00
O299   O     0.46308   0.57952   0.25299   0.00000  Uiso   1.00
O300   O     0.43720   0.39789   0.15584   0.00000  Uiso   1.00
O301   O     0.62871   0.57538   0.38967   0.00000  Uiso   1.00
O302   O     0.56280   0.60211   0.34416   0.00000  Uiso   1.00
O303   O     0.61671   0.58643   0.10953   0.00000  Uiso   1.00
O304   O     0.53502   0.61518   0.14535   0.00000  Uiso   1.00
O305   O     0.38329   0.41357   0.39047   0.00000  Uiso   1.00
O306   O     0.46498   0.38482   0.35465   0.00000  Uiso   1.00
O307   O     0.52726   0.65531   0.42927   0.00000  Uiso   1.00
O308   O     0.60449   0.34040   0.47043   0.00000  Uiso   1.00
O309   O     0.47274   0.34469   0.07073   0.00000  Uiso   1.00
O310   O     0.53692   0.42048   0.24702   0.00000  Uiso   1.00
O311   O     0.39551   0.65960   0.02957   0.00000  Uiso   1.00
O312   O     0.55946   0.57054   0.24519   0.00000  Uiso   1.00
O313   O     0.44054   0.42946   0.25482   0.00000  Uiso   1.00
O314   O     0.45181   0.50450   0.31998   0.00000  Uiso   1.00
O315   O     0.54819   0.49550   0.18003   0.00000  Uiso   1.00
O316   O     0.54819   0.49552   0.31218   0.00000  Uiso   1.00
O317   O     0.45181   0.50448   0.18783   0.00000  Uiso   1.00
O318   O     0.37129   0.42462   0.11033   0.00000  Uiso   1.00
Zn319  Zn    0.43565   0.50600   0.25521   0.00000  Uiso   1.00
Zn320  Zn    0.56435   0.49400   0.24479   0.00000  Uiso   1.00
C321   C     0.84851   0.59814   0.24894   0.00000  Uiso   1.00
C322   C     0.86744   0.53940   0.40571   0.00000  Uiso   1.00
C323   C     0.83135   0.50032   0.11595   0.00000  Uiso   1.00
C324   C     0.83532   0.49968   0.38405   0.00000  Uiso   1.00
C325   C     0.86404   0.53983   0.09223   0.00000  Uiso   1.00
C326   C     0.80263   0.46017   0.40777   0.00000  Uiso   1.00
C327   C     0.86174   0.54135   0.04591   0.00000  Uiso   1.00
C328   C     0.80493   0.45865   0.45409   0.00000  Uiso   1.00
C329   C     0.83357   0.49948   0.02336   0.00000  Uiso   1.00
C330   C     0.83310   0.50052   0.47664   0.00000  Uiso   1.00
C331   C     0.80597   0.45664   0.04743   0.00000  Uiso   1.00
C332   C     0.81816   0.40186   0.25106   0.00000  Uiso   1.00
C333   C     0.86070   0.54336   0.45258   0.00000  Uiso   1.00
C334   C     0.88434   0.58530   0.02217   0.00000  Uiso   1.00
C335   C     0.78233   0.41470   0.47783   0.00000  Uiso   1.00
C336   C     0.75483   0.42705   0.12040   0.00000  Uiso   1.00
C337   C     0.91184   0.57295   0.37960   0.00000  Uiso   1.00
C338   C     0.89744   0.58132   0.11624   0.00000  Uiso   1.00
C339   C     0.76923   0.41868   0.38376   0.00000  Uiso   1.00
C340   C     0.89248   0.64044   0.45641   0.00000  Uiso   1.00
C341   C     0.77419   0.35956   0.04359   0.00000  Uiso   1.00
C342   C     0.88117   0.58810   0.47638   0.00000  Uiso   1.00
C343   C     0.78550   0.41190   0.02362   0.00000  Uiso   1.00
C344   C     0.85662   0.65234   0.24947   0.00000  Uiso   1.00
C345   C     0.81004   0.34766   0.25053   0.00000  Uiso   1.00
C346   C     0.83412   0.50012   0.33636   0.00000  Uiso   1.00
C347   C     0.83255   0.49988   0.16364   0.00000  Uiso   1.00
C348   C     0.79922   0.46060   0.09429   0.00000  Uiso   1.00
F349   F     0.91241   0.33931   0.24934   0.00000  Uiso   1.00
F350   F     0.75425   0.66069   0.25066   0.00000  Uiso   1.00
H351   H     0.90122   0.61949   0.03960   0.00000  Uiso   1.00
H352   H     0.72631   0.62469   0.04485   0.00000  Uiso   1.00
H353   H     0.76545   0.38051   0.46040   0.00000  Uiso   1.00
H354   H     0.67146   0.46110   0.21623   0.00000  Uiso   1.00
H355   H     0.99520   0.53890   0.28377   0.00000  Uiso   1.00
H356   H     0.73651   0.37634   0.17048   0.00000  Uiso   1.00
H357   H     0.93016   0.62367   0.32952   0.00000  Uiso   1.00
H358   H     0.89551   0.64325   0.15785   0.00000  Uiso   1.00
H359   H     0.77115   0.35675   0.34216   0.00000  Uiso   1.00
H360   H     0.94036   0.37530   0.45515   0.00000  Uiso   1.00
N361   N     0.98344   0.48598   0.23783   0.00000  Uiso   1.00
N362   N     0.68322   0.51402   0.26217   0.00000  Uiso   1.00
O363   O     0.79642   0.57952   0.25299   0.00000  Uiso   1.00
O364   O     0.77053   0.39789   0.15584   0.00000  Uiso   1.00
O365   O     0.96205   0.57538   0.38967   0.00000  Uiso   1.00
O366   O     0.89614   0.60211   0.34416   0.00000  Uiso   1.00
O367   O     0.95004   0.58643   0.10953   0.00000  Uiso   1.00
O368   O     0.86835   0.61518   0.14535   0.00000  Uiso   1.00
O369   O     0.71662   0.41357   0.39047   0.00000  Uiso   1.00
O370   O     0.79831   0.38482   0.35465   0.00000  Uiso   1.00
O371   O     0.86059   0.65531   0.42927   0.00000  Uiso   1.00
O372   O     0.93783   0.34040   0.47043   0.00000  Uiso   1.00
O373   O     0.80608   0.34469   0.07073   0.00000  Uiso   1.00
O374   O     0.87025   0.42048   0.24702   0.00000  Uiso   1.00
O375   O     0.72884   0.65960   0.02957   0.00000  Uiso   1.00
O376   O     0.89280   0.57054   0.24519   0.00000  Uiso   1.00
O377   O     0.77387   0.42946   0.25482   0.00000  Uiso   1.00
O378   O     0.78514   0.50450   0.31998   0.00000  Uiso   1.00
O379   O     0.88153   0.49550   0.18003   0.00000  Uiso   1.00
O380   O     0.88152   0.49552   0.31218   0.00000  Uiso   1.00
O381   O     0.78515   0.50448   0.18783   0.00000  Uiso   1.00
O382   O     0.70462   0.42462   0.11033   0.00000  Uiso   1.00
Zn383  Zn    0.76898   0.50600   0.25521   0.00000  Uiso   1.00
Zn384  Zn    0.89769   0.49400   0.24479   0.00000  Uiso   1.00
C385   C     0.18184   0.93147   0.24894   0.00000  Uiso   1.00
C386   C     0.20078   0.87274   0.40571   0.00000  Uiso   1.00
C387   C     0.16468   0.83365   0.11595   0.00000  Uiso   1.00
C388   C     0.16865   0.83302   0.38405   0.00000  Uiso   1.00
C389   C     0.19737   0.87316   0.09223   0.00000  Uiso   1.00
C390   C     0.13597   0.79351   0.40777   0.00000  Uiso   1.00
C391   C     0.19507   0.87469   0.04591   0.00000  Uiso   1.00
C392   C     0.13826   0.79198   0.45409   0.00000  Uiso   1.00
C393   C     0.16690   0.83282   0.02336   0.00000  Uiso   1.00
C394   C     0.16643   0.83385   0.47664   0.00000  Uiso   1.00
C395   C     0.13930   0.78998   0.04743   0.00000  Uiso   1.00
C396   C     0.15150   0.73519   0.25106   0.00000  Uiso   1.00
C397   C     0.19403   0.87669   0.45258   0.00000  Uiso   1.00
C398   C     0.21767   0.91864   0.02217   0.00000  Uiso   1.00
C399   C     0.11566   0.74803   0.47783   0.00000  Uiso   1.00
C400   C     0.08816   0.76038   0.12040   0.00000  Uiso   1.00
C401   C     0.24517   0.90628   0.37960   0.00000  Uiso   1.00
C402   C     0.23077   0.91465   0.11624   0.00000  Uiso   1.00
C403   C     0.10256   0.75201   0.38376   0.00000  Uiso   1.00
C404   C     0.22582   0.97377   0.45641   0.00000  Uiso   1.00
C405   C     0.10752   0.69290   0.04359   0.00000  Uiso   1.00
C406   C     0.21450   0.92144   0.47638   0.00000  Uiso   1.00
C407   C     0.11883   0.74523   0.02362   0.00000  Uiso   1.00
C408   C     0.18996   0.98567   0.24947   0.00000  Uiso   1.00
C409   C     0.14338   0.68100   0.25053   0.00000  Uiso   1.00
C410   C     0.16745   0.83345   0.33636   0.00000  Uiso   1.00
C411   C     0.16588   0.83322   0.16364   0.00000  Uiso   1.00
C412   C     0.13256   0.79393   0.09429   0.00000  Uiso   1.00
F413   F     0.24575   0.67264   0.24934   0.00000  Uiso   1.00
F414   F     0.08759   0.99403   0.25066   0.00000  Uiso   1.00
H415   H     0.23455   0.95282   0.03960   0.00000  Uiso   1.00
H416   H     0.05964   0.95803   0.04485   0.00000  Uiso   1.00
H417   H     0.09878   0.71384   0.46040   0.00000  Uiso   1.00
H418   H     0.00480   0.79443   0.21623   0.00000  Uiso   1.00
H419   H     0.32854   0.87224   0.28377   0.00000  Uiso   1.00
H420   H     0.06984   0.70967   0.17048   0.00000  Uiso   1.00
H421   H     0.26349   0.95700   0.32952   0.00000  Uiso   1.00
H422   H     0.22884   0.97658   0.15785   0.00000  Uiso   1.00
H423   H     0.10449   0.69009   0.34216   0.00000  Uiso   1.00
H424   H     0.27369   0.70864   0.45515   0.00000  Uiso   1.00
N425   N     0.31678   0.81932   0.23783   0.00000  Uiso   1.00
N426   N     0.01656   0.84735   0.26217   0.00000  Uiso   1.00
O427   O     0.12975   0.91286   0.25299   0.00000  Uiso   1.00
O428   O     0.10386   0.73122   0.15584   0.00000  Uiso   1.00
O429   O     0.29538   0.90871   0.38967   0.00000  Uiso   1.00
O430   O     0.22947   0.93545   0.34416   0.00000  Uiso   1.00
O431   O     0.28338   0.91976   0.10953   0.00000  Uiso   1.00
O432   O     0.20169   0.94851   0.14535   0.00000  Uiso   1.00
O433   O     0.04995   0.74690   0.39047   0.00000  Uiso   1.00
O434   O     0.13164   0.71815   0.35465   0.00000  Uiso   1.00
O435   O     0.19392   0.98865   0.42927   0.00000  Uiso   1.00
O436   O     0.27116   0.67374   0.47043   0.00000  Uiso   1.00
O437   O     0.13941   0.67802   0.07073   0.00000  Uiso   1.00
O438   O     0.20358   0.75381   0.24702   0.00000  Uiso   1.00
O439   O     0.06218   0.99293   0.02957   0.00000  Uiso   1.00
O440   O     0.22613   0.90387   0.24519   0.00000  Uiso   1.00
O441   O     0.10720   0.76279   0.25482   0.00000  Uiso   1.00
O442   O     0.11847   0.83784   0.31998   0.00000  Uiso   1.00
O443   O     0.21486   0.82883   0.18003   0.00000  Uiso   1.00
O444   O     0.21485   0.82885   0.31218   0.00000  Uiso   1.00
O445   O     0.11848   0.83781   0.18783   0.00000  Uiso   1.00
O446   O     0.03795   0.75796   0.11033   0.00000  Uiso   1.00
Zn447  Zn    0.10231   0.83933   0.25521   0.00000  Uiso   1.00
Zn448  Zn    0.23102   0.82734   0.24479   0.00000  Uiso   1.00
C449   C     0.51517   0.93147   0.24894   0.00000  Uiso   1.00
C450   C     0.53411   0.87274   0.40571   0.00000  Uiso   1.00
C451   C     0.49801   0.83365   0.11595   0.00000  Uiso   1.00
C452   C     0.50199   0.83302   0.38405   0.00000  Uiso   1.00
C453   C     0.53070   0.87316   0.09223   0.00000  Uiso   1.00
C454   C     0.46930   0.79351   0.40777   0.00000  Uiso   1.00
C455   C     0.52841   0.87469   0.04591   0.00000  Uiso   1.00
C456   C     0.47159   0.79198   0.45409   0.00000  Uiso   1.00
C457   C     0.50024   0.83282   0.02336   0.00000  Uiso   1.00
C458   C     0.49976   0.83385   0.47664   0.00000  Uiso   1.00
C459   C     0.47263   0.78998   0.04743   0.00000  Uiso   1.00
C460   C     0.48483   0.73519   0.25106   0.00000  Uiso   1.00
C461   C     0.52737   0.87669   0.45258   0.00000  Uiso   1.00
C462   C     0.55100   0.91864   0.02217   0.00000  Uiso   1.00
C463   C     0.44900   0.74803   0.47783   0.00000  Uiso   1.00
C464   C     0.42150   0.76038   0.12040   0.00000  Uiso   1.00
C465   C     0.57850   0.90628   0.37960   0.00000  Uiso   1.00
C466   C     0.56411   0.91465   0.11624   0.00000  Uiso   1.00
C467   C     0.43589   0.75201   0.38376   0.00000  Uiso   1.00
C468   C     0.55915   0.97377   0.45641   0.00000  Uiso   1.00
C469   C     0.44085   0.69290   0.04359   0.00000  Uiso   1.00
C470   C     0.54784   0.92144   0.47638   0.00000  Uiso   1.00
C471   C     0.45216   0.74523   0.02362   0.00000  Uiso   1.00
C472   C     0.52329   0.98567   0.24947   0.00000  Uiso   1.00
C473   C     0.47671   0.68100   0.25053   0.00000  Uiso   1.00
C474   C     0.50078   0.83345   0.33636   0.00000  Uiso   1.00
C475   C     0.49922   0.83322   0.16364   0.00000  Uiso   1.00
C476   C     0.46589   0.79393   0.09429   0.00000  Uiso   1.00
F477   F     0.57908   0.67264   0.24934   0.00000  Uiso   1.00
F478   F     0.42092   0.99403   0.25066   0.00000  Uiso   1.00
H479   H     0.56789   0.95282   0.03960   0.00000  Uiso   1.00
H480   H     0.39298   0.95803   0.04485   0.00000  Uiso   1.00
H481   H     0.43212   0.71384   0.46040   0.00000  Uiso   1.00
H482   H     0.33813   0.79443   0.21623   0.00000  Uiso   1.00
H483   H     0.66187   0.87224   0.28377   0.00000  Uiso   1.00
H484   H     0.40318   0.70967   0.17048   0.00000  Uiso   1.00
H485   H     0.59682   0.95700   0.32952   0.00000  Uiso   1.00
H486   H     0.56218   0.97658   0.15785   0.00000  Uiso   1.00
H487   H     0.43782   0.69009   0.34216   0.00000  Uiso   1.00
H488   H     0.60702   0.70864   0.45515   0.00000  Uiso   1.00
N489   N     0.65011   0.81932   0.23783   0.00000  Uiso   1.00
N490   N     0.34989   0.84735   0.26217   0.00000  Uiso   1.00
O491   O     0.46308   0.91286   0.25299   0.00000  Uiso   1.00
O492   O     0.43720   0.73122   0.15584   0.00000  Uiso   1.00
O493   O     0.62871   0.90871   0.38967   0.00000  Uiso   1.00
O494   O     0.56280   0.93545   0.34416   0.00000  Uiso   1.00
O495   O     0.61671   0.91976   0.10953   0.00000  Uiso   1.00
O496   O     0.53502   0.94851   0.14535   0.00000  Uiso   1.00
O497   O     0.38329   0.74690   0.39047   0.00000  Uiso   1.00
O498   O     0.46498   0.71815   0.35465   0.00000  Uiso   1.00
O499   O     0.52726   0.98865   0.42927   0.00000  Uiso   1.00
O500   O     0.60449   0.67374   0.47043   0.00000  Uiso   1.00
O501   O     0.47274   0.67802   0.07073   0.00000  Uiso   1.00
O502   O     0.53692   0.75381   0.24702   0.00000  Uiso   1.00
O503   O     0.39551   0.99293   0.02957   0.00000  Uiso   1.00
O504   O     0.55946   0.90387   0.24519   0.00000  Uiso   1.00
O505   O     0.44054   0.76279   0.25482   0.00000  Uiso   1.00
O506   O     0.45181   0.83784   0.31998   0.00000  Uiso   1.00
O507   O     0.54819   0.82883   0.18003   0.00000  Uiso   1.00
O508   O     0.54819   0.82885   0.31218   0.00000  Uiso   1.00
O509   O     0.45181   0.83781   0.18783   0.00000  Uiso   1.00
O510   O     0.37129   0.75796   0.11033   0.00000  Uiso   1.00
Zn511  Zn    0.43565   0.83933   0.25521   0.00000  Uiso   1.00
Zn512  Zn    0.56435   0.82734   0.24479   0.00000  Uiso   1.00
C513   C     0.84851   0.93147   0.24894   0.00000  Uiso   1.00
C514   C     0.86744   0.87274   0.40571   0.00000  Uiso   1.00
C515   C     0.83135   0.83365   0.11595   0.00000  Uiso   1.00
C516   C     0.83532   0.83302   0.38405   0.00000  Uiso   1.00
C517   C     0.86404   0.87316   0.09223   0.00000  Uiso   1.00
C518   C     0.80263   0.79351   0.40777   0.00000  Uiso   1.00
C519   C     0.86174   0.87469   0.04591   0.00000  Uiso   1.00
C520   C     0.80493   0.79198   0.45409   0.00000  Uiso   1.00
C521   C     0.83357   0.83282   0.02336   0.00000  Uiso   1.00
C522   C     0.83310   0.83385   0.47664   0.00000  Uiso   1.00
C523   C     0.80597   0.78998   0.04743   0.00000  Uiso   1.00
C524   C     0.81816   0.73519   0.25106   0.00000  Uiso   1.00
C525   C     0.86070   0.87669   0.45258   0.00000  Uiso   1.00
C526   C     0.88434   0.91864   0.02217   0.00000  Uiso   1.00
C527   C     0.78233   0.74803   0.47783   0.00000  Uiso   1.00
C528   C     0.75483   0.76038   0.12040   0.00000  Uiso   1.00
C529   C     0.91184   0.90628   0.37960   0.00000  Uiso   1.00
C530   C     0.89744   0.91465   0.11624   0.00000  Uiso   1.00
C531   C     0.76923   0.75201   0.38376   0.00000  Uiso   1.00
C532   C     0.89248   0.97377   0.45641   0.00000  Uiso   1.00
C533   C     0.77419   0.69290   0.04359   0.00000  Uiso   1.00
C534   C     0.88117   0.92144   0.47638   0.00000  Uiso   1.00
C535   C     0.78550   0.74523   0.02362   0.00000  Uiso   1.00
C536   C     0.85662   0.98567   0.24947   0.00000  Uiso   1.00
C537   C     0.81004   0.68100   0.25053   0.00000  Uiso   1.00
C538   C     0.83412   0.83345   0.33636   0.00000  Uiso   1.00
C539   C     0.83255   0.83322   0.16364   0.00000  Uiso   1.00
C540   C     0.79922   0.79393   0.09429   0.00000  Uiso   1.00
F541   F     0.91241   0.67264   0.24934   0.00000  Uiso   1.00
F542   F     0.75425   0.99403   0.25066   0.00000  Uiso   1.00
H543   H     0.90122   0.95282   0.03960   0.00000  Uiso   1.00
H544   H     0.72631   0.95803   0.04485   0.00000  Uiso   1.00
H545   H     0.76545   0.71384   0.46040   0.00000  Uiso   1.00
H546   H     0.67146   0.79443   0.21623   0.00000  Uiso   1.00
H547   H     0.99520   0.87224   0.28377   0.00000  Uiso   1.00
H548   H     0.73651   0.70967   0.17048   0.00000  Uiso   1.00
H549   H     0.93016   0.95700   0.32952   0.00000  Uiso   1.00
H550   H     0.89551   0.97658   0.15785   0.00000  Uiso   1.00
H551   H     0.77115   0.69009   0.34216   0.00000  Uiso   1.00
H552   H     0.94036   0.70864   0.45515   0.00000  Uiso   1.00
N553   N     0.98344   0.81932   0.23783   0.00000  Uiso   1.00
N554   N     0.68322   0.84735   0.26217   0.00000  Uiso   1.00
O555   O     0.79642   0.91286   0.25299   0.00000  Uiso   1.00
O556   O     0.77053   0.73122   0.15584   0.00000  Uiso   1.00
O557   O     0.96205   0.90871   0.38967   0.00000  Uiso   1.00
O558   O     0.89614   0.93545   0.34416   0.00000  Uiso   1.00
O559   O     0.95004   0.91976   0.10953   0.00000  Uiso   1.00
O560   O     0.86835   0.94851   0.14535   0.00000  Uiso   1.00
O561   O     0.71662   0.74690   0.39047   0.00000  Uiso   1.00
O562   O     0.79831   0.71815   0.35465   0.00000  Uiso   1.00
O563   O     0.86059   0.98865   0.42927   0.00000  Uiso   1.00
O564   O     0.93783   0.67374   0.47043   0.00000  Uiso   1.00
O565   O     0.80608   0.67802   0.07073   0.00000  Uiso   1.00
O566   O     0.87025   0.75381   0.24702   0.00000  Uiso   1.00
O567   O     0.72884   0.99293   0.02957   0.00000  Uiso   1.00
O568   O     0.89280   0.90387   0.24519   0.00000  Uiso   1.00
O569   O     0.77387   0.76279   0.25482   0.00000  Uiso   1.00
O570   O     0.78514   0.83784   0.31998   0.00000  Uiso   1.00
O571   O     0.88153   0.82883   0.18003   0.00000  Uiso   1.00
O572   O     0.88152   0.82885   0.31218   0.00000  Uiso   1.00
O573   O     0.78515   0.83781   0.18783   0.00000  Uiso   1.00
O574   O     0.70462   0.75796   0.11033   0.00000  Uiso   1.00
Zn575  Zn    0.76898   0.83933   0.25521   0.00000  Uiso   1.00
Zn576  Zn    0.89769   0.82734   0.24479   0.00000  Uiso   1.00
C577   C     0.18184   0.26481   0.74894   0.00000  Uiso   1.00
C578   C     0.20078   0.20607   0.90571   0.00000  Uiso   1.00
C579   C     0.16468   0.16698   0.61595   0.00000  Uiso   1.00
C580   C     0.16865   0.16635   0.88405   0.00000  Uiso   1.00
C581   C     0.19737   0.20649   0.59223   0.00000  Uiso   1.00
C582   C     0.13597   0.12684   0.90777   0.00000  Uiso   1.00
C583   C     0.19507   0.20802   0.54591   0.00000  Uiso   1.00
C584   C     0.13826   0.12531   0.95409   0.00000  Uiso   1.00
C585   C     0.16690   0.16615   0.52336   0.00000  Uiso   1.00
C586   C     0.16643   0.16718   0.97664   0.00000  Uiso   1.00
C587   C     0.13930   0.12331   0.54743   0.00000  Uiso   1.00
C588   C     0.15150   0.06853   0.75106   0.00000  Uiso   1.00
C589   C     0.19403   0.21002   0.95258   0.00000  Uiso   1.00
C590   C     0.21767   0.25197   0.52217   0.00000  Uiso   1.00
C591   C     0.11566   0.08136   0.97783   0.00000  Uiso   1.00
C592   C     0.08816   0.09372   0.62040   0.00000  Uiso   1.00
C593   C     0.24517   0.23962   0.87960   0.00000  Uiso   1.00
C594   C     0.23077   0.24799   0.61624   0.00000  Uiso   1.00
C595   C     0.10256   0.08535   0.88376   0.00000  Uiso   1.00
C596   C     0.22582   0.30710   0.95641   0.00000  Uiso   1.00
C597   C     0.10752   0.02623   0.54359   0.00000  Uiso   1.00
C598   C     0.21450   0.25477   0.97638   0.00000  Uiso   1.00
C599   C     0.11883   0.07856   0.52362   0.00000  Uiso   1.00
C600   C     0.18996   0.31900   0.74947   0.00000  Uiso   1.00
C601   C     0.14338   0.01433   0.75053   0.00000  Uiso   1.00
C602   C     0.16745   0.16678   0.83636   0.00000  Uiso   1.00
C603   C     0.16588   0.16655   0.66364   0.00000  Uiso   1.00
C604   C     0.13256   0.12726   0.59429   0.00000  Uiso   1.00
F605   F     0.24575   0.00597   0.74934   0.00000  Uiso   1.00
F606   F     0.08759   0.32736   0.75066   0.00000  Uiso   1.00
H607   H     0.23455   0.28616   0.53960   0.00000  Uiso   1.00
H608   H     0.05964   0.29136   0.54485   0.00000  Uiso   1.00
H609   H     0.09878   0.04718   0.96040   0.00000  Uiso   1.00
H610   H     0.00480   0.12776   0.71623   0.00000  Uiso   1.00
H611   H     0.32854   0.20557   0.78377   0.00000  Uiso   1.00
H612   H     0.06984   0.04300   0.67048   0.00000  Uiso   1.00
H613   H     0.26349   0.29033   0.82952   0.00000  Uiso   1.00
H614   H     0.22884   0.30991   0.65785   0.00000  Uiso   1.00
H615   H     0.10449   0.02342   0.84216   0.00000  Uiso   1.00
H616   H     0.27369   0.04197   0.95515   0.00000  Uiso   1.00
N617   N     0.31678   0.15265   0.73783   0.00000  Uiso   1.00
N618   N     0.01656   0.18068   0.76217   0.00000  Uiso   1.00
O619   O     0.12975   0.24619   0.75299   0.00000  Uiso   1.00
O620   O     0.10386   0.06456   0.65584   0.00000  Uiso   1.00
O621   O     0.29538   0.24204   0.88967   0.00000  Uiso   1.00
O622   O     0.22947   0.26878   0.84416   0.00000  Uiso   1.00
O623   O     0.28338   0.25310   0.60953   0.00000  Uiso   1.00
O624   O     0.20169   0.28184   0.64535   0.00000  Uiso   1.00
O625   O     0.04995   0.08024   0.89047   0.00000  Uiso   1.00
O626   O     0.13164   0.05149   0.85465   0.00000  Uiso   1.00
O627   O     0.19392   0.32198   0.92927   0.00000  Uiso   1.00
O628   O     0.27116   0.00707   0.97043   0.00000  Uiso   1.00
O629   O     0.13941   0.01135   0.57073   0.00000  Uiso   1.00
O630   O     0.20358   0.08714   0.74702   0.00000  Uiso   1.00
O631   O     0.06218   0.32626   0.52957   0.00000  Uiso   1.00
O632   O     0.22613   0.23721   0.74519   0.00000  Uiso   1.00
O633   O     0.10720   0.09613   0.75482   0.00000  Uiso   1.00
O634   O     0.11847   0.17117   0.81998   0.00000  Uiso   1.00
O635   O     0.21486   0.16216   0.68003   0.00000  Uiso   1.00
O636   O     0.21485   0.16219   0.81218   0.00000  Uiso   1.00
O637   O     0.11848   0.17115   0.68783   0.00000  Uiso   1.00
O638   O     0.03795   0.09129   0.61033   0.00000  Uiso   1.00
Zn639  Zn    0.10231   0.17266   0.75521   0.00000  Uiso   1.00
Zn640  Zn    0.23102   0.16067   0.74479   0.00000  Uiso   1.00
C641   C     0.51517   0.26481   0.74894   0.00000  Uiso   1.00
C642   C     0.53411   0.20607   0.90571   0.00000  Uiso   1.00
C643   C     0.49801   0.16698   0.61595   0.00000  Uiso   1.00
C644   C     0.50199   0.16635   0.88405   0.00000  Uiso   1.00
C645   C     0.53070   0.20649   0.59223   0.00000  Uiso   1.00
C646   C     0.46930   0.12684   0.90777   0.00000  Uiso   1.00
C647   C     0.52841   0.20802   0.54591   0.00000  Uiso   1.00
C648   C     0.47159   0.12531   0.95409   0.00000  Uiso   1.00
C649   C     0.50024   0.16615   0.52336   0.00000  Uiso   1.00
C650   C     0.49976   0.16718   0.97664   0.00000  Uiso   1.00
C651   C     0.47263   0.12331   0.54743   0.00000  Uiso   1.00
C652   C     0.48483   0.06853   0.75106   0.00000  Uiso   1.00
C653   C     0.52737   0.21002   0.95258   0.00000  Uiso   1.00
C654   C     0.55100   0.25197   0.52217   0.00000  Uiso   1.00
C655   C     0.44900   0.08136   0.97783   0.00000  Uiso   1.00
C656   C     0.42150   0.09372   0.62040   0.00000  Uiso   1.00
C657   C     0.57850   0.23962   0.87960   0.00000  Uiso   1.00
C658   C     0.56411   0.24799   0.61624   0.00000  Uiso   1.00
C659   C     0.43589   0.08535   0.88376   0.00000  Uiso   1.00
C660   C     0.55915   0.30710   0.95641   0.00000  Uiso   1.00
C661   C     0.44085   0.02623   0.54359   0.00000  Uiso   1.00
C662   C     0.54784   0.25477   0.97638   0.00000  Uiso   1.00
C663   C     0.45216   0.07856   0.52362   0.00000  Uiso   1.00
C664   C     0.52329   0.31900   0.74947   0.00000  Uiso   1.00
C665   C     0.47671   0.01433   0.75053   0.00000  Uiso   1.00
C666   C     0.50078   0.16678   0.83636   0.00000  Uiso   1.00
C667   C     0.49922   0.16655   0.66364   0.00000  Uiso   1.00
C668   C     0.46589   0.12726   0.59429   0.00000  Uiso   1.00
F669   F     0.57908   0.00597   0.74934   0.00000  Uiso   1.00
F670   F     0.42092   0.32736   0.75066   0.00000  Uiso   1.00
H671   H     0.56789   0.28616   0.53960   0.00000  Uiso   1.00
H672   H     0.39298   0.29136   0.54485   0.00000  Uiso   1.00
H673   H     0.43212   0.04718   0.96040   0.00000  Uiso   1.00
H674   H     0.33813   0.12776   0.71623   0.00000  Uiso   1.00
H675   H     0.66187   0.20557   0.78377   0.00000  Uiso   1.00
H676   H     0.40318   0.04300   0.67048   0.00000  Uiso   1.00
H677   H     0.59682   0.29033   0.82952   0.00000  Uiso   1.00
H678   H     0.56218   0.30991   0.65785   0.00000  Uiso   1.00
H679   H     0.43782   0.02342   0.84216   0.00000  Uiso   1.00
H680   H     0.60702   0.04197   0.95515   0.00000  Uiso   1.00
N681   N     0.65011   0.15265   0.73783   0.00000  Uiso   1.00
N682   N     0.34989   0.18068   0.76217   0.00000  Uiso   1.00
O683   O     0.46308   0.24619   0.75299   0.00000  Uiso   1.00
O684   O     0.43720   0.06456   0.65584   0.00000  Uiso   1.00
O685   O     0.62871   0.24204   0.88967   0.00000  Uiso   1.00
O686   O     0.56280   0.26878   0.84416   0.00000  Uiso   1.00
O687   O     0.61671   0.25310   0.60953   0.00000  Uiso   1.00
O688   O     0.53502   0.28184   0.64535   0.00000  Uiso   1.00
O689   O     0.38329   0.08024   0.89047   0.00000  Uiso   1.00
O690   O     0.46498   0.05149   0.85465   0.00000  Uiso   1.00
O691   O     0.52726   0.32198   0.92927   0.00000  Uiso   1.00
O692   O     0.60449   0.00707   0.97043   0.00000  Uiso   1.00
O693   O     0.47274   0.01135   0.57073   0.00000  Uiso   1.00
O694   O     0.53692   0.08714   0.74702   0.00000  Uiso   1.00
O695   O     0.39551   0.32626   0.52957   0.00000  Uiso   1.00
O696   O     0.55946   0.23721   0.74519   0.00000  Uiso   1.00
O697   O     0.44054   0.09613   0.75482   0.00000  Uiso   1.00
O698   O     0.45181   0.17117   0.81998   0.00000  Uiso   1.00
O699   O     0.54819   0.16216   0.68003   0.00000  Uiso   1.00
O700   O     0.54819   0.16219   0.81218   0.00000  Uiso   1.00
O701   O     0.45181   0.17115   0.68783   0.00000  Uiso   1.00
O702   O     0.37129   0.09129   0.61033   0.00000  Uiso   1.00
Zn703  Zn    0.43565   0.17266   0.75521   0.00000  Uiso   1.00
Zn704  Zn    0.56435   0.16067   0.74479   0.00000  Uiso   1.00
C705   C     0.84851   0.26481   0.74894   0.00000  Uiso   1.00
C706   C     0.86744   0.20607   0.90571   0.00000  Uiso   1.00
C707   C     0.83135   0.16698   0.61595   0.00000  Uiso   1.00
C708   C     0.83532   0.16635   0.88405   0.00000  Uiso   1.00
C709   C     0.86404   0.20649   0.59223   0.00000  Uiso   1.00
C710   C     0.80263   0.12684   0.90777   0.00000  Uiso   1.00
C711   C     0.86174   0.20802   0.54591   0.00000  Uiso   1.00
C712   C     0.80493   0.12531   0.95409   0.00000  Uiso   1.00
C713   C     0.83357   0.16615   0.52336   0.00000  Uiso   1.00
C714   C     0.83310   0.16718   0.97664   0.00000  Uiso   1.00
C715   C     0.80597   0.12331   0.54743   0.00000  Uiso   1.00
C716   C     0.81816   0.06853   0.75106   0.00000  Uiso   1.00
C717   C     0.86070   0.21002   0.95258   0.00000  Uiso   1.00
C718   C     0.88434   0.25197   0.52217   0.00000  Uiso   1.00
C719   C     0.78233   0.08136   0.97783   0.00000  Uiso   1.00
C720   C     0.75483   0.09372   0.62040   0.00000  Uiso   1.00
C721   C     0.91184   0.23962   0.87960   0.00000  Uiso   1.00
C722   C     0.89744   0.24799   0.61624   0.00000  Uiso   1.00
C723   C     0.76923   0.08535   0.88376   0.00000  Uiso   1.00
C724   C     0.89248   0.30710   0.95641   0.00000  Uiso   1.00
C725   C     0.77419   0.02623   0.54359   0.00000  Uiso   1.00
C726   C     0.88117   0.25477   0.97638   0.00000  Uiso   1.00
C727   C     0.78550   0.07856   0.52362   0.00000  Uiso   1.00
C728   C     0.85662   0.31900   0.74947   0.00000  Uiso   1.00
C729   C     0.81004   0.01433   0.75053   0.00000  Uiso   1.00
C730   C     0.83412   0.16678   0.83636   0.00000  Uiso   1.00
C731   C     0.83255   0.16655   0.66364   0.00000  Uiso   1.00
C732   C     0.79922   0.12726   0.59429   0.00000  Uiso   1.00
F733   F     0.91241   0.00597   0.74934   0.00000  Uiso   1.00
F734   F     0.75425   0.32736   0.75066   0.00000  Uiso   1.00
H735   H     0.90122   0.28616   0.53960   0.00000  Uiso   1.00
H736   H     0.72631   0.29136   0.54485   0.00000  Uiso   1.00
H737   H     0.76545   0.04718   0.96040   0.00000  Uiso   1.00
H738   H     0.67146   0.12776   0.71623   0.00000  Uiso   1.00
H739   H     0.99520   0.20557   0.78377   0.00000  Uiso   1.00
H740   H     0.73651   0.04300   0.67048   0.00000  Uiso   1.00
H741   H     0.93016   0.29033   0.82952   0.00000  Uiso   1.00
H742   H     0.89551   0.30991   0.65785   0.00000  Uiso   1.00
H743   H     0.77115   0.02342   0.84216   0.00000  Uiso   1.00
H744   H     0.94036   0.04197   0.95515   0.00000  Uiso   1.00
N745   N     0.98344   0.15265   0.73783   0.00000  Uiso   1.00
N746   N     0.68322   0.18068   0.76217   0.00000  Uiso   1.00
O747   O     0.79642   0.24619   0.75299   0.00000  Uiso   1.00
O748   O     0.77053   0.06456   0.65584   0.00000  Uiso   1.00
O749   O     0.96205   0.24204   0.88967   0.00000  Uiso   1.00
O750   O     0.89614   0.26878   0.84416   0.00000  Uiso   1.00
O751   O     0.95004   0.25310   0.60953   0.00000  Uiso   1.00
O752   O     0.86835   0.28184   0.64535   0.00000  Uiso   1.00
O753   O     0.71662   0.08024   0.89047   0.00000  Uiso   1.00
O754   O     0.79831   0.05149   0.85465   0.00000  Uiso   1.00
O755   O     0.86059   0.32198   0.92927   0.00000  Uiso   1.00
O756   O     0.93783   0.00707   0.97043   0.00000  Uiso   1.00
O757   O     0.80608   0.01135   0.57073   0.00000  Uiso   1.00
O758   O     0.87025   0.08714   0.74702   0.00000  Uiso   1.00
O759   O     0.72884   0.32626   0.52957   0.00000  Uiso   1.00
O760   O     0.89280   0.23721   0.74519   0.00000  Uiso   1.00
O761   O     0.77387   0.09613   0.75482   0.00000  Uiso   1.00
O762   O     0.78514   0.17117   0.81998   0.00000  Uiso   1.00
O763   O     0.88153   0.16216   0.68003   0.00000  Uiso   1.00
O764   O     0.88152   0.16219   0.81218   0.00000  Uiso   1.00
O765   O     0.78515   0.17115   0.68783   0.00000  Uiso   1.00
O766   O     0.70462   0.09129   0.61033   0.00000  Uiso   1.00
Zn767  Zn    0.76898   0.17266   0.75521   0.00000  Uiso   1.00
Zn768  Zn    0.89769   0.16067   0.74479   0.00000  Uiso   1.00
C769   C     0.18184   0.59814   0.74894   0.00000  Uiso   1.00
C770   C     0.20078   0.53940   0.90571   0.00000  Uiso   1.00
C771   C     0.16468   0.50032   0.61595   0.00000  Uiso   1.00
C772   C     0.16865   0.49968   0.88405   0.00000  Uiso   1.00
C773   C     0.19737   0.53983   0.59223   0.00000  Uiso   1.00
C774   C     0.13597   0.46017   0.90777   0.00000  Uiso   1.00
C775   C     0.19507   0.54135   0.54591   0.00000  Uiso   1.00
C776   C     0.13826   0.45865   0.95409   0.00000  Uiso   1.00
C777   C     0.16690   0.49948   0.52336   0.00000  Uiso   1.00
C778   C     0.16643   0.50052   0.97664   0.00000  Uiso   1.00
C779   C     0.13930   0.45664   0.54743   0.00000  Uiso   1.00
C780   C     0.15150   0.40186   0.75106   0.00000  Uiso   1.00
C781   C     0.19403   0.54336   0.95258   0.00000  Uiso   1.00
C782   C     0.21767   0.58530   0.52217   0.00000  Uiso   1.00
C783   C     0.11566   0.41470   0.97783   0.00000  Uiso   1.00
C784   C     0.08816   0.42705   0.62040   0.00000  Uiso   1.00
C785   C     0.24517   0.57295   0.87960   0.00000  Uiso   1.00
C786   C     0.23077   0.58132   0.61624   0.00000  Uiso   1.00
C787   C     0.10256   0.41868   0.88376   0.00000  Uiso   1.00
C788   C     0.22582   0.64044   0.95641   0.00000  Uiso   1.00
C789   C     0.10752   0.35956   0.54359   0.00000  Uiso   1.00
C790   C     0.21450   0.58810   0.97638   0.00000  Uiso   1.00
C791   C     0.11883   0.41190   0.52362   0.00000  Uiso   1.00
C792   C     0.18996   0.65234   0.74947   0.00000  Uiso   1.00
C793   C     0.14338   0.34766   0.75053   0.00000  Uiso   1.00
C794   C     0.16745   0.50012   0.83636   0.00000  Uiso   1.00
C795   C     0.16588   0.49988   0.66364   0.00000  Uiso   1.00
C796   C     0.13256   0.46060   0.59429   0.00000  Uiso   1.00
F797   F     0.24575   0.33931   0.74934   0.00000  Uiso   1.00
F798   F     0.08759   0.66069   0.75066   0.00000  Uiso   1.00
H799   H     0.23455   0.61949   0.53960   0.00000  Uiso   1.00
H800   H     0.05964   0.62469   0.54485   0.00000  Uiso   1.00
H801   H     0.09878   0.38051   0.96040   0.00000  Uiso   1.00
H802   H     0.00480   0.46110   0.71623   0.00000  Uiso   1.00
H803   H     0.32854   0.53890   0.78377   0.00000  Uiso   1.00
H804   H     0.06984   0.37634   0.67048   0.00000  Uiso   1.00
H805   H     0.26349   0.62367   0.82952   0.00000  Uiso   1.00
H806   H     0.22884   0.64325   0.65785   0.00000  Uiso   1.00
H807   H     0.10449   0.35675   0.84216   0.00000  Uiso   1.00
H808   H     0.27369   0.37530   0.95515   0.00000  Uiso   1.00
N809   N     0.31678   0.48598   0.73783   0.00000  Uiso   1.00
N810   N     0.01656   0.51402   0.76217   0.00000  Uiso   1.00
O811   O     0.12975   0.57952   0.75299   0.00000  Uiso   1.00
O812   O     0.10386   0.39789   0.65584   0.00000  Uiso   1.00
O813   O     0.29538   0.57538   0.88967   0.00000  Uiso   1.00
O814   O     0.22947   0.60211   0.84416   0.00000  Uiso   1.00
O815   O     0.28338   0.58643   0.60953   0.00000  Uiso   1.00
O816   O     0.20169   0.61518   0.64535   0.00000  Uiso   1.00
O817   O     0.04995   0.41357   0.89047   0.00000  Uiso   1.00
O818   O     0.13164   0.38482   0.85465   0.00000  Uiso   1.00
O819   O     0.19392   0.65531   0.92927   0.00000  Uiso   1.00
O820   O     0.27116   0.34040   0.97043   0.00000  Uiso   1.00
O821   O     0.13941   0.34469   0.57073   0.00000  Uiso   1.00
O822   O     0.20358   0.42048   0.74702   0.00000  Uiso   1.00
O823   O     0.06218   0.65960   0.52957   0.00000  Uiso   1.00
O824   O     0.22613   0.57054   0.74519   0.00000  Uiso   1.00
O825   O     0.10720   0.42946   0.75482   0.00000  Uiso   1.00
O826   O     0.11847   0.50450   0.81998   0.00000  Uiso   1.00
O827   O     0.21486   0.49550   0.68003   0.00000  Uiso   1.00
O828   O     0.21485   0.49552   0.81218   0.00000  Uiso   1.00
O829   O     0.11848   0.50448   0.68783   0.00000  Uiso   1.00
O830   O     0.03795   0.42462   0.61033   0.00000  Uiso   1.00
Zn831  Zn    0.10231   0.50600   0.75521   0.00000  Uiso   1.00
Zn832  Zn    0.23102   0.49400   0.74479   0.00000  Uiso   1.00
C833   C     0.51517   0.59814   0.74894   0.00000  Uiso   1.00
C834   C     0.53411   0.53940   0.90571   0.00000  Uiso   1.00
C835   C     0.49801   0.50032   0.61595   0.00000  Uiso   1.00
C836   C     0.50199   0.49968   0.88405   0.00000  Uiso   1.00
C837   C     0.53070   0.53983   0.59223   0.00000  Uiso   1.00
C838   C     0.46930   0.46017   0.90777   0.00000  Uiso   1.00
C839   C     0.52841   0.54135   0.54591   0.00000  Uiso   1.00
C840   C     0.47159   0.45865   0.95409   0.00000  Uiso   1.00
C841   C     0.50024   0.49948   0.52336   0.00000  Uiso   1.00
C842   C     0.49976   0.50052   0.97664   0.00000  Uiso   1.00
C843   C     0.47263   0.45664   0.54743   0.00000  Uiso   1.00
C844   C     0.48483   0.40186   0.75106   0.00000  Uiso   1.00
C845   C     0.52737   0.54336   0.95258   0.00000  Uiso   1.00
C846   C     0.55100   0.58530   0.52217   0.00000  Uiso   1.00
C847   C     0.44900   0.41470   0.97783   0.00000  Uiso   1.00
C848   C     0.42150   0.42705   0.62040   0.00000  Uiso   1.00
C849   C     0.57850   0.57295   0.87960   0.00000  Uiso   1.00
C850   C     0.56411   0.58132   0.61624   0.00000  Uiso   1.00
C851   C     0.43589   0.41868   0.88376   0.00000  Uiso   1.00
C852   C     0.55915   0.64044   0.95641   0.00000  Uiso   1.00
C853   C     0.44085   0.35956   0.54359   0.00000  Uiso   1.00
C854   C     0.54784   0.58810   0.97638   0.00000  Uiso   1.00
C855   C     0.45216   0.41190   0.52362   0.00000  Uiso   1.00
C856   C     0.52329   0.65234   0.74947   0.00000  Uiso   1.00
C857   C     0.47671   0.34766   0.75053   0.00000  Uiso   1.00
C858   C     0.50078   0.50012   0.83636   0.00000  Uiso   1.00
C859   C     0.49922   0.49988   0.66364   0.00000  Uiso   1.00
C860   C     0.46589   0.46060   0.59429   0.00000  Uiso   1.00
F861   F     0.57908   0.33931   0.74934   0.00000  Uiso   1.00
F862   F     0.42092   0.66069   0.75066   0.00000  Uiso   1.00
H863   H     0.56789   0.61949   0.53960   0.00000  Uiso   1.00
H864   H     0.39298   0.62469   0.54485   0.00000  Uiso   1.00
H865   H     0.43212   0.38051   0.96040   0.00000  Uiso   1.00
H866   H     0.33813   0.46110   0.71623   0.00000  Uiso   1.00
H867   H     0.66187   0.53890   0.78377   0.00000  Uiso   1.00
H868   H     0.40318   0.37634   0.67048   0.00000  Uiso   1.00
H869   H     0.59682   0.62367   0.82952   0.00000  Uiso   1.00
H870   H     0.56218   0.64325   0.65785   0.00000  Uiso   1.00
H871   H     0.43782   0.35675   0.84216   0.00000  Uiso   1.00
H872   H     0.60702   0.37530   0.95515   0.00000  Uiso   1.00
N873   N     0.65011   0.48598   0.73783   0.00000  Uiso   1.00
N874   N     0.34989   0.51402   0.76217   0.00000  Uiso   1.00
O875   O     0.46308   0.57952   0.75299   0.00000  Uiso   1.00
O876   O     0.43720   0.39789   0.65584   0.00000  Uiso   1.00
O877   O     0.62871   0.57538   0.88967   0.00000  Uiso   1.00
O878   O     0.56280   0.60211   0.84416   0.00000  Uiso   1.00
O879   O     0.61671   0.58643   0.60953   0.00000  Uiso   1.00
O880   O     0.53502   0.61518   0.64535   0.00000  Uiso   1.00
O881   O     0.38329   0.41357   0.89047   0.00000  Uiso   1.00
O882   O     0.46498   0.38482   0.85465   0.00000  Uiso   1.00
O883   O     0.52726   0.65531   0.92927   0.00000  Uiso   1.00
O884   O     0.60449   0.34040   0.97043   0.00000  Uiso   1.00
O885   O     0.47274   0.34469   0.57073   0.00000  Uiso   1.00
O886   O     0.53692   0.42048   0.74702   0.00000  Uiso   1.00
O887   O     0.39551   0.65960   0.52957   0.00000  Uiso   1.00
O888   O     0.55946   0.57054   0.74519   0.00000  Uiso   1.00
O889   O     0.44054   0.42946   0.75482   0.00000  Uiso   1.00
O890   O     0.45181   0.50450   0.81998   0.00000  Uiso   1.00
O891   O     0.54819   0.49550   0.68003   0.00000  Uiso   1.00
O892   O     0.54819   0.49552   0.81218   0.00000  Uiso   1.00
O893   O     0.45181   0.50448   0.68783   0.00000  Uiso   1.00
O894   O     0.37129   0.42462   0.61033   0.00000  Uiso   1.00
Zn895  Zn    0.43565   0.50600   0.75521   0.00000  Uiso   1.00
Zn896  Zn    0.56435   0.49400   0.74479   0.00000  Uiso   1.00
C897   C     0.84851   0.59814   0.74894   0.00000  Uiso   1.00
C898   C     0.86744   0.53940   0.90571   0.00000  Uiso   1.00
C899   C     0.83135   0.50032   0.61595   0.00000  Uiso   1.00
C900   C     0.83532   0.49968   0.88405   0.00000  Uiso   1.00
C901   C     0.86404   0.53983   0.59223   0.00000  Uiso   1.00
C902   C     0.80263   0.46017   0.90777   0.00000  Uiso   1.00
C903   C     0.86174   0.54135   0.54591   0.00000  Uiso   1.00
C904   C     0.80493   0.45865   0.95409   0.00000  Uiso   1.00
C905   C     0.83357   0.49948   0.52336   0.00000  Uiso   1.00
C906   C     0.83310   0.50052   0.97664   0.00000  Uiso   1.00
C907   C     0.80597   0.45664   0.54743   0.00000  Uiso   1.00
C908   C     0.81816   0.40186   0.75106   0.00000  Uiso   1.00
C909   C     0.86070   0.54336   0.95258   0.00000  Uiso   1.00
C910   C     0.88434   0.58530   0.52217   0.00000  Uiso   1.00
C911   C     0.78233   0.41470   0.97783   0.00000  Uiso   1.00
C912   C     0.75483   0.42705   0.62040   0.00000  Uiso   1.00
C913   C     0.91184   0.57295   0.87960   0.00000  Uiso   1.00
C914   C     0.89744   0.58132   0.61624   0.00000  Uiso   1.00
C915   C     0.76923   0.41868   0.88376   0.00000  Uiso   1.00
C916   C     0.89248   0.64044   0.95641   0.00000  Uiso   1.00
C917   C     0.77419   0.35956   0.54359   0.00000  Uiso   1.00
C918   C     0.88117   0.58810   0.97638   0.00000  Uiso   1.00
C919   C     0.78550   0.41190   0.52362   0.00000  Uiso   1.00
C920   C     0.85662   0.65234   0.74947   0.00000  Uiso   1.00
C921   C     0.81004   0.34766   0.75053   0.00000  Uiso   1.00
C922   C     0.83412   0.50012   0.83636   0.00000  Uiso   1.00
C923   C     0.83255   0.49988   0.66364   0.00000  Uiso   1.00
C924   C     0.79922   0.46060   0.59429   0.00000  Uiso   1.00
F925   F     0.91241   0.33931   0.74934   0.00000  Uiso   1.00
F926   F     0.75425   0.66069   0.75066   0.00000  Uiso   1.00
H927   H     0.90122   0.61949   0.53960   0.00000  Uiso   1.00
H928   H     0.72631   0.62469   0.54485   0.00000  Uiso   1.00
H929   H     0.76545   0.38051   0.96040   0.00000  Uiso   1.00
H930   H     0.67146   0.46110   0.71623   0.00000  Uiso   1.00
H931   H     0.99520   0.53890   0.78377   0.00000  Uiso   1.00
H932   H     0.73651   0.37634   0.67048   0.00000  Uiso   1.00
H933   H     0.93016   0.62367   0.82952   0.00000  Uiso   1.00
H934   H     0.89551   0.64325   0.65785   0.00000  Uiso   1.00
H935   H     0.77115   0.35675   0.84216   0.00000  Uiso   1.00
H936   H     0.94036   0.37530   0.95515   0.00000  Uiso   1.00
N937   N     0.98344   0.48598   0.73783   0.00000  Uiso   1.00
N938   N     0.68322   0.51402   0.76217   0.00000  Uiso   1.00
O939   O     0.79642   0.57952   0.75299   0.00000  Uiso   1.00
O940   O     0.77053   0.39789   0.65584   0.00000  Uiso   1.00
O941   O     0.96205   0.57538   0.88967   0.00000  Uiso   1.00
O942   O     0.89614   0.60211   0.84416   0.00000  Uiso   1.00
O943   O     0.95004   0.58643   0.60953   0.00000  Uiso   1.00
O944   O     0.86835   0.61518   0.64535   0.00000  Uiso   1.00
O945   O     0.71662   0.41357   0.89047   0.00000  Uiso   1.00
O946   O     0.79831   0.38482   0.85465   0.00000  Uiso   1.00
O947   O     0.86059   0.65531   0.92927   0.00000  Uiso   1.00
O948   O     0.93783   0.34040   0.97043   0.00000  Uiso   1.00
O949   O     0.80608   0.34469   0.57073   0.00000  Uiso   1.00
O950   O     0.87025   0.42048   0.74702   0.00000  Uiso   1.00
O951   O     0.72884   0.65960   0.52957   0.00000  Uiso   1.00
O952   O     0.89280   0.57054   0.74519   0.00000  Uiso   1.00
O953   O     0.77387   0.42946   0.75482   0.00000  Uiso   1.00
O954   O     0.78514   0.50450   0.81998   0.00000  Uiso   1.00
O955   O     0.88153   0.49550   0.68003   0.00000  Uiso   1.00
O956   O     0.88152   0.49552   0.81218   0.00000  Uiso   1.00
O957   O     0.78515   0.50448   0.68783   0.00000  Uiso   1.00
O958   O     0.70462   0.42462   0.61033   0.00000  Uiso   1.00
Zn959  Zn    0.76898   0.50600   0.75521   0.00000  Uiso   1.00
Zn960  Zn    0.89769   0.49400   0.74479   0.00000  Uiso   1.00
C961   C     0.18184   0.93147   0.74894   0.00000  Uiso   1.00
C962   C     0.20078   0.87274   0.90571   0.00000  Uiso   1.00
C963   C     0.16468   0.83365   0.61595   0.00000  Uiso   1.00
C964   C     0.16865   0.83302   0.88405   0.00000  Uiso   1.00
C965   C     0.19737   0.87316   0.59223   0.00000  Uiso   1.00
C966   C     0.13597   0.79351   0.90777   0.00000  Uiso   1.00
C967   C     0.19507   0.87469   0.54591   0.00000  Uiso   1.00
C968   C     0.13826   0.79198   0.95409   0.00000  Uiso   1.00
C969   C     0.16690   0.83282   0.52336   0.00000  Uiso   1.00
C970   C     0.16643   0.83385   0.97664   0.00000  Uiso   1.00
C971   C     0.13930   0.78998   0.54743   0.00000  Uiso   1.00
C972   C     0.15150   0.73519   0.75106   0.00000  Uiso   1.00
C973   C     0.19403   0.87669   0.95258   0.00000  Uiso   1.00
C974   C     0.21767   0.91864   0.52217   0.00000  Uiso   1.00
C975   C     0.11566   0.74803   0.97783   0.00000  Uiso   1.00
C976   C     0.08816   0.76038   0.62040   0.00000  Uiso   1.00
C977   C     0.24517   0.90628   0.87960   0.00000  Uiso   1.00
C978   C     0.23077   0.91465   0.61624   0.00000  Uiso   1.00
C979   C     0.10256   0.75201   0.88376   0.00000  Uiso   1.00
C980   C     0.22582   0.97377   0.95641   0.00000  Uiso   1.00
C981   C     0.10752   0.69290   0.54359   0.00000  Uiso   1.00
C982   C     0.21450   0.92144   0.97638   0.00000  Uiso   1.00
C983   C     0.11883   0.74523   0.52362   0.00000  Uiso   1.00
C984   C     0.18996   0.98567   0.74947   0.00000  Uiso   1.00
C985   C     0.14338   0.68100   0.75053   0.00000  Uiso   1.00
C986   C     0.16745   0.83345   0.83636   0.00000  Uiso   1.00
C987   C     0.16588   0.83322   0.66364   0.00000  Uiso   1.00
C988   C     0.13256   0.79393   0.59429   0.00000  Uiso   1.00
F989   F     0.24575   0.67264   0.74934   0.00000  Uiso   1.00
F990   F     0.08759   0.99403   0.75066   0.00000  Uiso   1.00
H991   H     0.23455   0.95282   0.53960   0.00000  Uiso   1.00
H992   H     0.05964   0.95803   0.54485   0.00000  Uiso   1.00
H993   H     0.09878   0.71384   0.96040   0.00000  Uiso   1.00
H994   H     0.00480   0.79443   0.71623   0.00000  Uiso   1.00
H995   H     0.32854   0.87224   0.78377   0.00000  Uiso   1.00
H996   H     0.06984   0.70967   0.67048   0.00000  Uiso   1.00
H997   H     0.26349   0.95700   0.82952   0.00000  Uiso   1.00
H998   H     0.22884   0.97658   0.65785   0.00000  Uiso   1.00
H999   H     0.10449   0.69009   0.84216   0.00000  Uiso   1.00
H1000  H     0.27369   0.70864   0.95515   0.00000  Uiso   1.00
N1001  N     0.31678   0.81932   0.73783   0.00000  Uiso   1.00
N1002  N     0.01656   0.84735   0.76217   0.00000  Uiso   1.00
O1003  O     0.12975   0.91286   0.75299   0.00000  Uiso   1.00
O1004  O     0.10386   0.73122   0.65584   0.00000  Uiso   1.00
O1005  O     0.29538   0.90871   0.88967   0.00000  Uiso   1.00
O1006  O     0.22947   0.93545   0.84416   0.00000  Uiso   1.00
O1007  O     0.28338   0.91976   0.60953   0.00000  Uiso   1.00
O1008  O     0.20169   0.94851   0.64535   0.00000  Uiso   1.00
O1009  O     0.04995   0.74690   0.89047   0.00000  Uiso   1.00
O1010  O     0.13164   0.71815   0.85465   0.00000  Uiso   1.00
O1011  O     0.19392   0.98865   0.92927   0.00000  Uiso   1.00
O1012  O     0.27116   0.67374   0.97043   0.00000  Uiso   1.00
O1013  O     0.13941   0.67802   0.57073   0.00000  Uiso   1.00
O1014  O     0.20358   0.75381   0.74702   0.00000  Uiso   1.00
O1015  O     0.06218   0.99293   0.52957   0.00000  Uiso   1.00
O1016  O     0.22613   0.90387   0.74519   0.00000  Uiso   1.00
O1017  O     0.10720   0.76279   0.75482   0.00000  Uiso   1.00
O1018  O     0.11847   0.83784   0.81998   0.00000  Uiso   1.00
O1019  O     0.21486   0.82883   0.68003   0.00000  Uiso   1.00
O1020  O     0.21485   0.82885   0.81218   0.00000  Uiso   1.00
O1021  O     0.11848   0.83781   0.68783   0.00000  Uiso   1.00
O1022  O     0.03795   0.75796   0.61033   0.00000  Uiso   1.00
Zn1023 Zn    0.10231   0.83933   0.75521   0.00000  Uiso   1.00
Zn1024 Zn    0.23102   0.82734   0.74479   0.00000  Uiso   1.00
C1025  C     0.51517   0.93147   0.74894   0.00000  Uiso   1.00
C1026  C     0.53411   0.87274   0.90571   0.00000  Uiso   1.00
C1027  C     0.49801   0.83365   0.61595   0.00000  Uiso   1.00
C1028  C     0.50199   0.83302   0.88405   0.00000  Uiso   1.00
C1029  C     0.53070   0.87316   0.59223   0.00000  Uiso   1.00
C1030  C     0.46930   0.79351   0.90777   0.00000  Uiso   1.00
C1031  C     0.52841   0.87469   0.54591   0.00000  Uiso   1.00
C1032  C     0.47159   0.79198   0.95409   0.00000  Uiso   1.00
C1033  C     0.50024   0.83282   0.52336   0.00000  Uiso   1.00
C1034  C     0.49976   0.83385   0.97664   0.00000  Uiso   1.00
C1035  C     0.47263   0.78998   0.54743   0.00000  Uiso   1.00
C1036  C     0.48483   0.73519   0.75106   0.00000  Uiso   1.00
C1037  C     0.52737   0.87669   0.95258   0.00000  Uiso   1.00
C1038  C     0.55100   0.91864   0.52217   0.00000  Uiso   1.00
C1039  C     0.44900   0.74803   0.97783   0.00000  Uiso   1.00
C1040  C     0.42150   0.76038   0.62040   0.00000  Uiso   1.00
C1041  C     0.57850   0.90628   0.87960   0.00000  Uiso   1.00
C1042  C     0.56411   0.91465   0.61624   0.00000  Uiso   1.00
C1043  C     0.43589   0.75201   0.88376   0.00000  Uiso   1.00
C1044  C     0.55915   0.97377   0.95641   0.00000  Uiso   1.00
C1045  C     0.44085   0.69290   0.54359   0.00000  Uiso   1.00
C1046  C     0.54784   0.92144   0.97638   0.00000  Uiso   1.00
C1047  C     0.45216   0.74523   0.52362   0.00000  Uiso   1.00
C1048  C     0.52329   0.98567   0.74947   0.00000  Uiso   1.00
C1049  C     0.47671   0.68100   0.75053   0.00000  Uiso   1.00
C1050  C     0.50078   0.83345   0.83636   0.00000  Uiso   1.00
C1051  C     0.49922   0.83322   0.66364   0.00000  Uiso   1.00
C1052  C     0.46589   0.79393   0.59429   0.00000  Uiso   1.00
F1053  F     0.57908   0.67264   0.74934   0.00000  Uiso   1.00
F1054  F     0.42092   0.99403   0.75066   0.00000  Uiso   1.00
H1055  H     0.56789   0.95282   0.53960   0.00000  Uiso   1.00
H1056  H     0.39298   0.95803   0.54485   0.00000  Uiso   1.00
H1057  H     0.43212   0.71384   0.96040   0.00000  Uiso   1.00
H1058  H     0.33813   0.79443   0.71623   0.00000  Uiso   1.00
H1059  H     0.66187   0.87224   0.78377   0.00000  Uiso   1.00
H1060  H     0.40318   0.70967   0.67048   0.00000  Uiso   1.00
H1061  H     0.59682   0.95700   0.82952   0.00000  Uiso   1.00
H1062  H     0.56218   0.97658   0.65785   0.00000  Uiso   1.00
H1063  H     0.43782   0.69009   0.84216   0.00000  Uiso   1.00
H1064  H     0.60702   0.70864   0.95515   0.00000  Uiso   1.00
N1065  N     0.65011   0.81932   0.73783   0.00000  Uiso   1.00
N1066  N     0.34989   0.84735   0.76217   0.00000  Uiso   1.00
O1067  O     0.46308   0.91286   0.75299   0.00000  Uiso   1.00
O1068  O     0.43720   0.73122   0.65584   0.00000  Uiso   1.00
O1069  O     0.62871   0.90871   0.88967   0.00000  Uiso   1.00
O1070  O     0.56280   0.93545   0.84416   0.00000  Uiso   1.00
O1071  O     0.61671   0.91976   0.60953   0.00000  Uiso   1.00
O1072  O     0.53502   0.94851   0.64535   0.00000  Uiso   1.00
O1073  O     0.38329   0.74690   0.89047   0.00000  Uiso   1.00
O1074  O     0.46498   0.71815   0.85465   0.00000  Uiso   1.00
O1075  O     0.52726   0.98865   0.92927   0.00000  Uiso   1.00
O1076  O     0.60449   0.67374   0.97043   0.00000  Uiso   1.00
O1077  O     0.47274   0.67802   0.57073   0.00000  Uiso   1.00
O1078  O     0.53692   0.75381   0.74702   0.00000  Uiso   1.00
O1079  O     0.39551   0.99293   0.52957   0.00000  Uiso   1.00
O1080  O     0.55946   0.90387   0.74519   0.00000  Uiso   1.00
O1081  O     0.44054   0.76279   0.75482   0.00000  Uiso   1.00
O1082  O     0.45181   0.83784   0.81998   0.00000  Uiso   1.00
O1083  O     0.54819   0.82883   0.68003   0.00000  Uiso   1.00
O1084  O     0.54819   0.82885   0.81218   0.00000  Uiso   1.00
O1085  O     0.45181   0.83781   0.68783   0.00000  Uiso   1.00
O1086  O     0.37129   0.75796   0.61033   0.00000  Uiso   1.00
Zn1087 Zn    0.43565   0.83933   0.75521   0.00000  Uiso   1.00
Zn1088 Zn    0.56435   0.82734   0.74479   0.00000  Uiso   1.00
C1089  C     0.84851   0.93147   0.74894   0.00000  Uiso   1.00
C1090  C     0.86744   0.87274   0.90571   0.00000  Uiso   1.00
C1091  C     0.83135   0.83365   0.61595   0.00000  Uiso   1.00
C1092  C     0.83532   0.83302   0.88405   0.00000  Uiso   1.00
C1093  C     0.86404   0.87316   0.59223   0.00000  Uiso   1.00
C1094  C     0.80263   0.79351   0.90777   0.00000  Uiso   1.00
C1095  C     0.86174   0.87469   0.54591   0.00000  Uiso   1.00
C1096  C     0.80493   0.79198   0.95409   0.00000  Uiso   1.00
C1097  C     0.83357   0.83282   0.52336   0.00000  Uiso   1.00
C1098  C     0.83310   0.83385   0.97664   0.00000  Uiso   1.00
C1099  C     0.80597   0.78998   0.54743   0.00000  Uiso   1.00
C1100  C     0.81816   0.73519   0.75106   0.00000  Uiso   1.00
C1101  C     0.86070   0.87669   0.95258   0.00000  Uiso   1.00
C1102  C     0.88434   0.91864   0.52217   0.00000  Uiso   1.00
C1103  C     0.78233   0.74803   0.97783   0.00000  Uiso   1.00
C1104  C     0.75483   0.76038   0.62040   0.00000  Uiso   1.00
C1105  C     0.91184   0.90628   0.87960   0.00000  Uiso   1.00
C1106  C     0.89744   0.91465   0.61624   0.00000  Uiso   1.00
C1107  C     0.76923   0.75201   0.88376   0.00000  Uiso   1.00
C1108  C     0.89248   0.97377   0.95641   0.00000  Uiso   1.00
C1109  C     0.77419   0.69290   0.54359   0.00000  Uiso   1.00
C1110  C     0.88117   0.92144   0.97638   0.00000  Uiso   1.00
C1111  C     0.78550   0.74523   0.52362   0.00000  Uiso   1.00
C1112  C     0.85662   0.98567   0.74947   0.00000  Uiso   1.00
C1113  C     0.81004   0.68100   0.75053   0.00000  Uiso   1.00
C1114  C     0.83412   0.83345   0.83636   0.00000  Uiso   1.00
C1115  C     0.83255   0.83322   0.66364   0.00000  Uiso   1.00
C1116  C     0.79922   0.79393   0.59429   0.00000  Uiso   1.00
F1117  F     0.91241   0.67264   0.74934   0.00000  Uiso   1.00
F1118  F     0.75425   0.99403   0.75066   0.00000  Uiso   1.00
H1119  H     0.90122   0.95282   0.53960   0.00000  Uiso   1.00
H1120  H     0.72631   0.95803   0.54485   0.00000  Uiso   1.00
H1121  H     0.76545   0.71384   0.96040   0.00000  Uiso   1.00
H1122  H     0.67146   0.79443   0.71623   0.00000  Uiso   1.00
H1123  H     0.99520   0.87224   0.78377   0.00000  Uiso   1.00
H1124  H     0.73651   0.70967   0.67048   0.00000  Uiso   1.00
H1125  H     0.93016   0.95700   0.82952   0.00000  Uiso   1.00
H1126  H     0.89551   0.97658   0.65785   0.00000  Uiso   1.00
H1127  H     0.77115   0.69009   0.84216   0.00000  Uiso   1.00
H1128  H     0.94036   0.70864   0.95515   0.00000  Uiso   1.00
N1129  N     0.98344   0.81932   0.73783   0.00000  Uiso   1.00
N1130  N     0.68322   0.84735   0.76217   0.00000  Uiso   1.00
O1131  O     0.79642   0.91286   0.75299   0.00000  Uiso   1.00
O1132  O     0.77053   0.73122   0.65584   0.00000  Uiso   1.00
O1133  O     0.96205   0.90871   0.88967   0.00000  Uiso   1.00
O1134  O     0.89614   0.93545   0.84416   0.00000  Uiso   1.00
O1135  O     0.95004   0.91976   0.60953   0.00000  Uiso   1.00
O1136  O     0.86835   0.94851   0.64535   0.00000  Uiso   1.00
O1137  O     0.71662   0.74690   0.89047   0.00000  Uiso   1.00
O1138  O     0.79831   0.71815   0.85465   0.00000  Uiso   1.00
O1139  O     0.86059   0.98865   0.92927   0.00000  Uiso   1.00
O1140  O     0.93783   0.67374   0.97043   0.00000  Uiso   1.00
O1141  O     0.80608   0.67802   0.57073   0.00000  Uiso   1.00
O1142  O     0.87025   0.75381   0.74702   0.00000  Uiso   1.00
O1143  O     0.72884   0.99293   0.52957   0.00000  Uiso   1.00
O1144  O     0.89280   0.90387   0.74519   0.00000  Uiso   1.00
O1145  O     0.77387   0.76279   0.75482   0.00000  Uiso   1.00
O1146  O     0.78514   0.83784   0.81998   0.00000  Uiso   1.00
O1147  O     0.88153   0.82883   0.68003   0.00000  Uiso   1.00
O1148  O     0.88152   0.82885   0.81218   0.00000  Uiso   1.00
O1149  O     0.78515   0.83781   0.68783   0.00000  Uiso   1.00
O1150  O     0.70462   0.75796   0.61033   0.00000  Uiso   1.00
Zn1151 Zn    0.76898   0.83933   0.75521   0.00000  Uiso   1.00
Zn1152 Zn    0.89769   0.82734   0.74479   0.00000  Uiso   1.00
loop_
_geom_bond_atom_site_label_1
_geom_bond_atom_site_label_2
_geom_bond_distance
_geom_bond_site_symmetry_2
_ccdc_geom_bond_type
C1     O56     1.287   .     A
C1     C24     1.398   .     S
C1     O43     1.270   .     A
C2     C4      1.405   .     A
C2     C17     1.489   .     S
C2     C13     1.407   .     A
C3     C28     1.405   .     A
C3     C27     1.434   .     S
C3     C5      1.403   .     A
C4     C26     1.434   .     S
C4     C6      1.403   .     A
C5     C7      1.397   .     A
C5     C18     1.487   .     S
C6     C19     1.487   .     S
C6     C8      1.397   .     A
C7     C9      1.414   .     A
C7     C14     1.402   .     A
C8     C15     1.402   .     A
C8     C10     1.414   .     A
C9     C11     1.422   .     A
C9     C586    1.404   1_554 S
C10    C13     1.422   .     A
C10    C585    1.404   .     S
C11    C28     1.407   .     A
C11    C23     1.420   .     A
C12    C25     1.398   .     S
C12    O57     1.287   .     A
C12    O54     1.270   .     A
C13    C22     1.420   .     A
C14    H31     1.083   .     S
C14    C598    1.386   1_554 S
C15    H33     1.083   .     S
C15    C599    1.386   .     S
C16    C28     1.489   .     S
C16    O62     1.223   .     D
C16    O44     1.397   .     S
C17    O45     1.223   .     D
C17    O46     1.397   .     S
C18    O47     1.223   .     D
C18    O48     1.396   .     S
C19    O49     1.223   .     D
C19    O50     1.396   .     S
C20    O51     1.223   .     D
C20    C22     1.487   .     S
C20    O244    1.399   .     S
C21    O53     1.223   .     D
C21    C23     1.487   .     S
C21    O439    1.399   1_545 S
C22    C590    1.386   .     S
C23    C591    1.386   1_554 S
C24    C217    1.348   .     S
C24    F221    1.365   .     S
C25    C408    1.348   1_545 S
C25    F414    1.365   1_545 S
C26    O58     1.284   .     A
C26    O60     1.286   .     A
C27    O59     1.284   .     A
C27    O61     1.286   .     A
F29    C408    1.365   1_545 S
F30    C217    1.365   .     S
H32    O55     1.014   .     S
H34    N169    1.029   1_455 S
H35    N106    1.029   .     S
H36    O44     1.014   .     S
H37    O46     1.014   .     S
H38    O48     1.014   .     S
H39    O50     1.014   .     S
H40    O52     1.014   .     S
N41    Zn64    2.012   .     S
N41    H98     1.029   .     S
N41    N106    1.280   .     S
N42    Zn63    2.012   .     S
N42    N169    1.280   1_455 S
N42    H163    1.029   1_455 S
O43    Zn63    1.961   .     S
O52    C404    1.399   1_545 S
O54    Zn64    1.961   .     S
O55    C213    1.399   .     S
O56    Zn64    1.985   .     S
O57    Zn63    1.985   .     S
O58    Zn63    2.008   .     S
O59    Zn64    2.008   .     S
O60    Zn64    2.031   .     S
O61    Zn63    2.031   .     S
C65    O120    1.287   .     A
C65    C88     1.398   .     S
C65    O107    1.270   .     A
C66    C68     1.405   .     A
C66    C81     1.489   .     S
C66    C77     1.407   .     A
C67    C92     1.405   .     A
C67    C91     1.434   .     S
C67    C69     1.403   .     A
C68    C90     1.434   .     S
C68    C70     1.403   .     A
C69    C71     1.397   .     A
C69    C82     1.487   .     S
C70    C83     1.487   .     S
C70    C72     1.397   .     A
C71    C73     1.414   .     A
C71    C78     1.402   .     A
C72    C79     1.402   .     A
C72    C74     1.414   .     A
C73    C75     1.422   .     A
C73    C650    1.404   1_554 S
C74    C77     1.422   .     A
C74    C649    1.404   .     S
C75    C92     1.407   .     A
C75    C87     1.420   .     A
C76    C89     1.398   .     S
C76    O121    1.287   .     A
C76    O118    1.270   .     A
C77    C86     1.420   .     A
C78    H95     1.083   .     S
C78    C662    1.386   1_554 S
C79    H97     1.083   .     S
C79    C663    1.386   .     S
C80    C92     1.489   .     S
C80    O126    1.223   .     D
C80    O108    1.397   .     S
C81    O109    1.223   .     D
C81    O110    1.397   .     S
C82    O111    1.223   .     D
C82    O112    1.396   .     S
C83    O113    1.223   .     D
C83    O114    1.396   .     S
C84    O115    1.223   .     D
C84    C86     1.487   .     S
C84    O308    1.399   .     S
C85    O117    1.223   .     D
C85    C87     1.487   .     S
C85    O503    1.399   1_545 S
C86    C654    1.386   .     S
C87    C655    1.386   1_554 S
C88    C281    1.348   .     S
C88    F285    1.365   .     S
C89    C472    1.348   1_545 S
C89    F478    1.365   1_545 S
C90    O122    1.284   .     A
C90    O124    1.286   .     A
C91    O123    1.284   .     A
C91    O125    1.286   .     A
F93    C472    1.365   1_545 S
F94    C281    1.365   .     S
H96    O119    1.014   .     S
H99    N170    1.029   .     S
H100   O108    1.014   .     S
H101   O110    1.014   .     S
H102   O112    1.014   .     S
H103   O114    1.014   .     S
H104   O116    1.014   .     S
N105   Zn128   2.012   .     S
N105   H162    1.029   .     S
N105   N170    1.280   .     S
N106   Zn127   2.012   .     S
O107   Zn127   1.961   .     S
O116   C468    1.399   1_545 S
O118   Zn128   1.961   .     S
O119   C277    1.399   .     S
O120   Zn128   1.985   .     S
O121   Zn127   1.985   .     S
O122   Zn127   2.008   .     S
O123   Zn128   2.008   .     S
O124   Zn128   2.031   .     S
O125   Zn127   2.031   .     S
C129   O184    1.287   .     A
C129   C152    1.398   .     S
C129   O171    1.270   .     A
C130   C132    1.405   .     A
C130   C145    1.489   .     S
C130   C141    1.407   .     A
C131   C156    1.405   .     A
C131   C155    1.434   .     S
C131   C133    1.403   .     A
C132   C154    1.434   .     S
C132   C134    1.403   .     A
C133   C135    1.397   .     A
C133   C146    1.487   .     S
C134   C147    1.487   .     S
C134   C136    1.397   .     A
C135   C137    1.414   .     A
C135   C142    1.402   .     A
C136   C143    1.402   .     A
C136   C138    1.414   .     A
C137   C139    1.422   .     A
C137   C714    1.404   1_554 S
C138   C141    1.422   .     A
C138   C713    1.404   .     S
C139   C156    1.407   .     A
C139   C151    1.420   .     A
C140   C153    1.398   .     S
C140   O185    1.287   .     A
C140   O182    1.270   .     A
C141   C150    1.420   .     A
C142   H159    1.083   .     S
C142   C726    1.386   1_554 S
C143   H161    1.083   .     S
C143   C727    1.386   .     S
C144   C156    1.489   .     S
C144   O190    1.223   .     D
C144   O172    1.397   .     S
C145   O173    1.223   .     D
C145   O174    1.397   .     S
C146   O175    1.223   .     D
C146   O176    1.396   .     S
C147   O177    1.223   .     D
C147   O178    1.396   .     S
C148   O179    1.223   .     D
C148   C150    1.487   .     S
C148   O372    1.399   .     S
C149   O181    1.223   .     D
C149   C151    1.487   .     S
C149   O567    1.399   1_545 S
C150   C718    1.386   .     S
C151   C719    1.386   1_554 S
C152   C345    1.348   .     S
C152   F349    1.365   .     S
C153   C536    1.348   1_545 S
C153   F542    1.365   1_545 S
C154   O186    1.284   .     A
C154   O188    1.286   .     A
C155   O187    1.284   .     A
C155   O189    1.286   .     A
F157   C536    1.365   1_545 S
F158   C345    1.365   .     S
H160   O183    1.014   .     S
H163   N42     1.029   1_655 S
H164   O172    1.014   .     S
H165   O174    1.014   .     S
H166   O176    1.014   .     S
H167   O178    1.014   .     S
H168   O180    1.014   .     S
N169   Zn192   2.012   .     S
N169   H34     1.029   1_655 S
N169   N42     1.280   1_655 S
N170   Zn191   2.012   .     S
O171   Zn191   1.961   .     S
O180   C532    1.399   1_545 S
O182   Zn192   1.961   .     S
O183   C341    1.399   .     S
O184   Zn192   1.985   .     S
O185   Zn191   1.985   .     S
O186   Zn191   2.008   .     S
O187   Zn192   2.008   .     S
O188   Zn192   2.031   .     S
O189   Zn191   2.031   .     S
C193   O248    1.287   .     A
C193   C216    1.398   .     S
C193   O235    1.270   .     A
C194   C196    1.405   .     A
C194   C209    1.489   .     S
C194   C205    1.407   .     A
C195   C220    1.405   .     A
C195   C219    1.434   .     S
C195   C197    1.403   .     A
C196   C218    1.434   .     S
C196   C198    1.403   .     A
C197   C199    1.397   .     A
C197   C210    1.487   .     S
C198   C211    1.487   .     S
C198   C200    1.397   .     A
C199   C201    1.414   .     A
C199   C206    1.402   .     A
C200   C207    1.402   .     A
C200   C202    1.414   .     A
C201   C203    1.422   .     A
C201   C778    1.404   1_554 S
C202   C205    1.422   .     A
C202   C777    1.404   .     S
C203   C220    1.407   .     A
C203   C215    1.420   .     A
C204   C217    1.398   .     S
C204   O249    1.287   .     A
C204   O246    1.270   .     A
C205   C214    1.420   .     A
C206   H223    1.083   .     S
C206   C790    1.386   1_554 S
C207   H225    1.083   .     S
C207   C791    1.386   .     S
C208   C220    1.489   .     S
C208   O254    1.223   .     D
C208   O236    1.397   .     S
C209   O237    1.223   .     D
C209   O238    1.397   .     S
C210   O239    1.223   .     D
C210   O240    1.396   .     S
C211   O241    1.223   .     D
C211   O242    1.396   .     S
C212   O243    1.223   .     D
C212   C214    1.487   .     S
C212   O436    1.399   .     S
C213   O245    1.223   .     D
C213   C215    1.487   .     S
C214   C782    1.386   .     S
C215   C783    1.386   1_554 S
C216   C409    1.348   .     S
C216   F413    1.365   .     S
C218   O250    1.284   .     A
C218   O252    1.286   .     A
C219   O251    1.284   .     A
C219   O253    1.286   .     A
F222   C409    1.365   .     S
H224   O247    1.014   .     S
H226   N361    1.029   1_455 S
H227   N298    1.029   .     S
H228   O236    1.014   .     S
H229   O238    1.014   .     S
H230   O240    1.014   .     S
H231   O242    1.014   .     S
H232   O244    1.014   .     S
N233   Zn256   2.012   .     S
N233   H290    1.029   .     S
N233   N298    1.280   .     S
N234   Zn255   2.012   .     S
N234   N361    1.280   1_455 S
N234   H355    1.029   1_455 S
O235   Zn255   1.961   .     S
O246   Zn256   1.961   .     S
O247   C405    1.399   .     S
O248   Zn256   1.985   .     S
O249   Zn255   1.985   .     S
O250   Zn255   2.008   .     S
O251   Zn256   2.008   .     S
O252   Zn256   2.031   .     S
O253   Zn255   2.031   .     S
C257   O312    1.287   .     A
C257   C280    1.398   .     S
C257   O299    1.270   .     A
C258   C260    1.405   .     A
C258   C273    1.489   .     S
C258   C269    1.407   .     A
C259   C284    1.405   .     A
C259   C283    1.434   .     S
C259   C261    1.403   .     A
C260   C282    1.434   .     S
C260   C262    1.403   .     A
C261   C263    1.397   .     A
C261   C274    1.487   .     S
C262   C275    1.487   .     S
C262   C264    1.397   .     A
C263   C265    1.414   .     A
C263   C270    1.402   .     A
C264   C271    1.402   .     A
C264   C266    1.414   .     A
C265   C267    1.422   .     A
C265   C842    1.404   1_554 S
C266   C269    1.422   .     A
C266   C841    1.404   .     S
C267   C284    1.407   .     A
C267   C279    1.420   .     A
C268   C281    1.398   .     S
C268   O313    1.287   .     A
C268   O310    1.270   .     A
C269   C278    1.420   .     A
C270   H287    1.083   .     S
C270   C854    1.386   1_554 S
C271   H289    1.083   .     S
C271   C855    1.386   .     S
C272   C284    1.489   .     S
C272   O318    1.223   .     D
C272   O300    1.397   .     S
C273   O301    1.223   .     D
C273   O302    1.397   .     S
C274   O303    1.223   .     D
C274   O304    1.396   .     S
C275   O305    1.223   .     D
C275   O306    1.396   .     S
C276   O307    1.223   .     D
C276   C278    1.487   .     S
C276   O500    1.399   .     S
C277   O309    1.223   .     D
C277   C279    1.487   .     S
C278   C846    1.386   .     S
C279   C847    1.386   1_554 S
C280   C473    1.348   .     S
C280   F477    1.365   .     S
C282   O314    1.284   .     A
C282   O316    1.286   .     A
C283   O315    1.284   .     A
C283   O317    1.286   .     A
F286   C473    1.365   .     S
H288   O311    1.014   .     S
H291   N362    1.029   .     S
H292   O300    1.014   .     S
H293   O302    1.014   .     S
H294   O304    1.014   .     S
H295   O306    1.014   .     S
H296   O308    1.014   .     S
N297   Zn320   2.012   .     S
N297   H354    1.029   .     S
N297   N362    1.280   .     S
N298   Zn319   2.012   .     S
O299   Zn319   1.961   .     S
O310   Zn320   1.961   .     S
O311   C469    1.399   .     S
O312   Zn320   1.985   .     S
O313   Zn319   1.985   .     S
O314   Zn319   2.008   .     S
O315   Zn320   2.008   .     S
O316   Zn320   2.031   .     S
O317   Zn319   2.031   .     S
C321   O376    1.287   .     A
C321   C344    1.398   .     S
C321   O363    1.270   .     A
C322   C324    1.405   .     A
C322   C337    1.489   .     S
C322   C333    1.407   .     A
C323   C348    1.405   .     A
C323   C347    1.434   .     S
C323   C325    1.403   .     A
C324   C346    1.434   .     S
C324   C326    1.403   .     A
C325   C327    1.397   .     A
C325   C338    1.487   .     S
C326   C339    1.487   .     S
C326   C328    1.397   .     A
C327   C329    1.414   .     A
C327   C334    1.402   .     A
C328   C335    1.402   .     A
C328   C330    1.414   .     A
C329   C331    1.422   .     A
C329   C906    1.404   1_554 S
C330   C333    1.422   .     A
C330   C905    1.404   .     S
C331   C348    1.407   .     A
C331   C343    1.420   .     A
C332   C345    1.398   .     S
C332   O377    1.287   .     A
C332   O374    1.270   .     A
C333   C342    1.420   .     A
C334   H351    1.083   .     S
C334   C918    1.386   1_554 S
C335   H353    1.083   .     S
C335   C919    1.386   .     S
C336   C348    1.489   .     S
C336   O382    1.223   .     D
C336   O364    1.397   .     S
C337   O365    1.223   .     D
C337   O366    1.397   .     S
C338   O367    1.223   .     D
C338   O368    1.396   .     S
C339   O369    1.223   .     D
C339   O370    1.396   .     S
C340   O371    1.223   .     D
C340   C342    1.487   .     S
C340   O564    1.399   .     S
C341   O373    1.223   .     D
C341   C343    1.487   .     S
C342   C910    1.386   .     S
C343   C911    1.386   1_554 S
C344   C537    1.348   .     S
C344   F541    1.365   .     S
C346   O378    1.284   .     A
C346   O380    1.286   .     A
C347   O379    1.284   .     A
C347   O381    1.286   .     A
F350   C537    1.365   .     S
H352   O375    1.014   .     S
H355   N234    1.029   1_655 S
H356   O364    1.014   .     S
H357   O366    1.014   .     S
H358   O368    1.014   .     S
H359   O370    1.014   .     S
H360   O372    1.014   .     S
N361   Zn384   2.012   .     S
N361   H226    1.029   1_655 S
N361   N234    1.280   1_655 S
N362   Zn383   2.012   .     S
O363   Zn383   1.961   .     S
O374   Zn384   1.961   .     S
O375   C533    1.399   .     S
O376   Zn384   1.985   .     S
O377   Zn383   1.985   .     S
O378   Zn383   2.008   .     S
O379   Zn384   2.008   .     S
O380   Zn384   2.031   .     S
O381   Zn383   2.031   .     S
C385   O440    1.287   .     A
C385   C408    1.398   .     S
C385   O427    1.270   .     A
C386   C388    1.405   .     A
C386   C401    1.489   .     S
C386   C397    1.407   .     A
C387   C412    1.405   .     A
C387   C411    1.434   .     S
C387   C389    1.403   .     A
C388   C410    1.434   .     S
C388   C390    1.403   .     A
C389   C391    1.397   .     A
C389   C402    1.487   .     S
C390   C403    1.487   .     S
C390   C392    1.397   .     A
C391   C393    1.414   .     A
C391   C398    1.402   .     A
C392   C399    1.402   .     A
C392   C394    1.414   .     A
C393   C395    1.422   .     A
C393   C970    1.404   1_554 S
C394   C397    1.422   .     A
C394   C969    1.404   .     S
C395   C412    1.407   .     A
C395   C407    1.420   .     A
C396   C409    1.398   .     S
C396   O441    1.287   .     A
C396   O438    1.270   .     A
C397   C406    1.420   .     A
C398   H415    1.083   .     S
C398   C982    1.386   1_554 S
C399   H417    1.083   .     S
C399   C983    1.386   .     S
C400   C412    1.489   .     S
C400   O446    1.223   .     D
C400   O428    1.397   .     S
C401   O429    1.223   .     D
C401   O430    1.397   .     S
C402   O431    1.223   .     D
C402   O432    1.396   .     S
C403   O433    1.223   .     D
C403   O434    1.396   .     S
C404   O435    1.223   .     D
C404   C406    1.487   .     S
C404   O52     1.399   1_565 S
C405   O437    1.223   .     D
C405   C407    1.487   .     S
C406   C974    1.386   .     S
C407   C975    1.386   1_554 S
C408   C25     1.348   1_565 S
C408   F29     1.365   1_565 S
C410   O442    1.284   .     A
C410   O444    1.286   .     A
C411   O443    1.284   .     A
C411   O445    1.286   .     A
F414   C25     1.365   1_565 S
H416   O439    1.014   .     S
H418   N553    1.029   1_455 S
H419   N490    1.029   .     S
H420   O428    1.014   .     S
H421   O430    1.014   .     S
H422   O432    1.014   .     S
H423   O434    1.014   .     S
H424   O436    1.014   .     S
N425   Zn448   2.012   .     S
N425   H482    1.029   .     S
N425   N490    1.280   .     S
N426   Zn447   2.012   .     S
N426   N553    1.280   1_455 S
N426   H547    1.029   1_455 S
O427   Zn447   1.961   .     S
O438   Zn448   1.961   .     S
O439   C21     1.399   1_565 S
O440   Zn448   1.985   .     S
O441   Zn447   1.985   .     S
O442   Zn447   2.008   .     S
O443   Zn448   2.008   .     S
O444   Zn448   2.031   .     S
O445   Zn447   2.031   .     S
C449   O504    1.287   .     A
C449   C472    1.398   .     S
C449   O491    1.270   .     A
C450   C452    1.405   .     A
C450   C465    1.489   .     S
C450   C461    1.407   .     A
C451   C476    1.405   .     A
C451   C475    1.434   .     S
C451   C453    1.403   .     A
C452   C474    1.434   .     S
C452   C454    1.403   .     A
C453   C455    1.397   .     A
C453   C466    1.487   .     S
C454   C467    1.487   .     S
C454   C456    1.397   .     A
C455   C457    1.414   .     A
C455   C462    1.402   .     A
C456   C463    1.402   .     A
C456   C458    1.414   .     A
C457   C459    1.422   .     A
C457   C1034   1.404   1_554 S
C458   C461    1.422   .     A
C458   C1033   1.404   .     S
C459   C476    1.407   .     A
C459   C471    1.420   .     A
C460   C473    1.398   .     S
C460   O505    1.287   .     A
C460   O502    1.270   .     A
C461   C470    1.420   .     A
C462   H479    1.083   .     S
C462   C1046   1.386   1_554 S
C463   H481    1.083   .     S
C463   C1047   1.386   .     S
C464   C476    1.489   .     S
C464   O510    1.223   .     D
C464   O492    1.397   .     S
C465   O493    1.223   .     D
C465   O494    1.397   .     S
C466   O495    1.223   .     D
C466   O496    1.396   .     S
C467   O497    1.223   .     D
C467   O498    1.396   .     S
C468   O499    1.223   .     D
C468   C470    1.487   .     S
C468   O116    1.399   1_565 S
C469   O501    1.223   .     D
C469   C471    1.487   .     S
C470   C1038   1.386   .     S
C471   C1039   1.386   1_554 S
C472   C89     1.348   1_565 S
C472   F93     1.365   1_565 S
C474   O506    1.284   .     A
C474   O508    1.286   .     A
C475   O507    1.284   .     A
C475   O509    1.286   .     A
F478   C89     1.365   1_565 S
H480   O503    1.014   .     S
H483   N554    1.029   .     S
H484   O492    1.014   .     S
H485   O494    1.014   .     S
H486   O496    1.014   .     S
H487   O498    1.014   .     S
H488   O500    1.014   .     S
N489   Zn512   2.012   .     S
N489   H546    1.029   .     S
N489   N554    1.280   .     S
N490   Zn511   2.012   .     S
O491   Zn511   1.961   .     S
O502   Zn512   1.961   .     S
O503   C85     1.399   1_565 S
O504   Zn512   1.985   .     S
O505   Zn511   1.985   .     S
O506   Zn511   2.008   .     S
O507   Zn512   2.008   .     S
O508   Zn512   2.031   .     S
O509   Zn511   2.031   .     S
C513   O568    1.287   .     A
C513   C536    1.398   .     S
C513   O555    1.270   .     A
C514   C516    1.405   .     A
C514   C529    1.489   .     S
C514   C525    1.407   .     A
C515   C540    1.405   .     A
C515   C539    1.434   .     S
C515   C517    1.403   .     A
C516   C538    1.434   .     S
C516   C518    1.403   .     A
C517   C519    1.397   .     A
C517   C530    1.487   .     S
C518   C531    1.487   .     S
C518   C520    1.397   .     A
C519   C521    1.414   .     A
C519   C526    1.402   .     A
C520   C527    1.402   .     A
C520   C522    1.414   .     A
C521   C523    1.422   .     A
C521   C1098   1.404   1_554 S
C522   C525    1.422   .     A
C522   C1097   1.404   .     S
C523   C540    1.407   .     A
C523   C535    1.420   .     A
C524   C537    1.398   .     S
C524   O569    1.287   .     A
C524   O566    1.270   .     A
C525   C534    1.420   .     A
C526   H543    1.083   .     S
C526   C1110   1.386   1_554 S
C527   H545    1.083   .     S
C527   C1111   1.386   .     S
C528   C540    1.489   .     S
C528   O574    1.223   .     D
C528   O556    1.397   .     S
C529   O557    1.223   .     D
C529   O558    1.397   .     S
C530   O559    1.223   .     D
C530   O560    1.396   .     S
C531   O561    1.223   .     D
C531   O562    1.396   .     S
C532   O563    1.223   .     D
C532   C534    1.487   .     S
C532   O180    1.399   1_565 S
C533   O565    1.223   .     D
C533   C535    1.487   .     S
C534   C1102   1.386   .     S
C535   C1103   1.386   1_554 S
C536   C153    1.348   1_565 S
C536   F157    1.365   1_565 S
C538   O570    1.284   .     A
C538   O572    1.286   .     A
C539   O571    1.284   .     A
C539   O573    1.286   .     A
F542   C153    1.365   1_565 S
H544   O567    1.014   .     S
H547   N426    1.029   1_655 S
H548   O556    1.014   .     S
H549   O558    1.014   .     S
H550   O560    1.014   .     S
H551   O562    1.014   .     S
H552   O564    1.014   .     S
N553   Zn576   2.012   .     S
N553   H418    1.029   1_655 S
N553   N426    1.280   1_655 S
N554   Zn575   2.012   .     S
O555   Zn575   1.961   .     S
O566   Zn576   1.961   .     S
O567   C149    1.399   1_565 S
O568   Zn576   1.985   .     S
O569   Zn575   1.985   .     S
O570   Zn575   2.008   .     S
O571   Zn576   2.008   .     S
O572   Zn576   2.031   .     S
O573   Zn575   2.031   .     S
C577   O632    1.287   .     A
C577   C600    1.398   .     S
C577   O619    1.270   .     A
C578   C580    1.405   .     A
C578   C593    1.489   .     S
C578   C589    1.407   .     A
C579   C604    1.405   .     A
C579   C603    1.434   .     S
C579   C581    1.403   .     A
C580   C602    1.434   .     S
C580   C582    1.403   .     A
C581   C583    1.397   .     A
C581   C594    1.487   .     S
C582   C595    1.487   .     S
C582   C584    1.397   .     A
C583   C585    1.414   .     A
C583   C590    1.402   .     A
C584   C591    1.402   .     A
C584   C586    1.414   .     A
C585   C587    1.422   .     A
C586   C589    1.422   .     A
C586   C9      1.404   1_556 S
C587   C604    1.407   .     A
C587   C599    1.420   .     A
C588   C601    1.398   .     S
C588   O633    1.287   .     A
C588   O630    1.270   .     A
C589   C598    1.420   .     A
C590   H607    1.083   .     S
C591   H609    1.083   .     S
C591   C23     1.386   1_556 S
C592   C604    1.489   .     S
C592   O638    1.223   .     D
C592   O620    1.397   .     S
C593   O621    1.223   .     D
C593   O622    1.397   .     S
C594   O623    1.223   .     D
C594   O624    1.396   .     S
C595   O625    1.223   .     D
C595   O626    1.396   .     S
C596   O627    1.223   .     D
C596   C598    1.487   .     S
C596   O820    1.399   .     S
C597   O629    1.223   .     D
C597   C599    1.487   .     S
C597   O1015   1.399   1_545 S
C598   C14     1.386   1_556 S
C600   C793    1.348   .     S
C600   F797    1.365   .     S
C601   C984    1.348   1_545 S
C601   F990    1.365   1_545 S
C602   O634    1.284   .     A
C602   O636    1.286   .     A
C603   O635    1.284   .     A
C603   O637    1.286   .     A
F605   C984    1.365   1_545 S
F606   C793    1.365   .     S
H608   O631    1.014   .     S
H610   N745    1.029   1_455 S
H611   N682    1.029   .     S
H612   O620    1.014   .     S
H613   O622    1.014   .     S
H614   O624    1.014   .     S
H615   O626    1.014   .     S
H616   O628    1.014   .     S
N617   Zn640   2.012   .     S
N617   H674    1.029   .     S
N617   N682    1.280   .     S
N618   Zn639   2.012   .     S
N618   N745    1.280   1_455 S
N618   H739    1.029   1_455 S
O619   Zn639   1.961   .     S
O628   C980    1.399   1_545 S
O630   Zn640   1.961   .     S
O631   C789    1.399   .     S
O632   Zn640   1.985   .     S
O633   Zn639   1.985   .     S
O634   Zn639   2.008   .     S
O635   Zn640   2.008   .     S
O636   Zn640   2.031   .     S
O637   Zn639   2.031   .     S
C641   O696    1.287   .     A
C641   C664    1.398   .     S
C641   O683    1.270   .     A
C642   C644    1.405   .     A
C642   C657    1.489   .     S
C642   C653    1.407   .     A
C643   C668    1.405   .     A
C643   C667    1.434   .     S
C643   C645    1.403   .     A
C644   C666    1.434   .     S
C644   C646    1.403   .     A
C645   C647    1.397   .     A
C645   C658    1.487   .     S
C646   C659    1.487   .     S
C646   C648    1.397   .     A
C647   C649    1.414   .     A
C647   C654    1.402   .     A
C648   C655    1.402   .     A
C648   C650    1.414   .     A
C649   C651    1.422   .     A
C650   C653    1.422   .     A
C650   C73     1.404   1_556 S
C651   C668    1.407   .     A
C651   C663    1.420   .     A
C652   C665    1.398   .     S
C652   O697    1.287   .     A
C652   O694    1.270   .     A
C653   C662    1.420   .     A
C654   H671    1.083   .     S
C655   H673    1.083   .     S
C655   C87     1.386   1_556 S
C656   C668    1.489   .     S
C656   O702    1.223   .     D
C656   O684    1.397   .     S
C657   O685    1.223   .     D
C657   O686    1.397   .     S
C658   O687    1.223   .     D
C658   O688    1.396   .     S
C659   O689    1.223   .     D
C659   O690    1.396   .     S
C660   O691    1.223   .     D
C660   C662    1.487   .     S
C660   O884    1.399   .     S
C661   O693    1.223   .     D
C661   C663    1.487   .     S
C661   O1079   1.399   1_545 S
C662   C78     1.386   1_556 S
C664   C857    1.348   .     S
C664   F861    1.365   .     S
C665   C1048   1.348   1_545 S
C665   F1054   1.365   1_545 S
C666   O698    1.284   .     A
C666   O700    1.286   .     A
C667   O699    1.284   .     A
C667   O701    1.286   .     A
F669   C1048   1.365   1_545 S
F670   C857    1.365   .     S
H672   O695    1.014   .     S
H675   N746    1.029   .     S
H676   O684    1.014   .     S
H677   O686    1.014   .     S
H678   O688    1.014   .     S
H679   O690    1.014   .     S
H680   O692    1.014   .     S
N681   Zn704   2.012   .     S
N681   H738    1.029   .     S
N681   N746    1.280   .     S
N682   Zn703   2.012   .     S
O683   Zn703   1.961   .     S
O692   C1044   1.399   1_545 S
O694   Zn704   1.961   .     S
O695   C853    1.399   .     S
O696   Zn704   1.985   .     S
O697   Zn703   1.985   .     S
O698   Zn703   2.008   .     S
O699   Zn704   2.008   .     S
O700   Zn704   2.031   .     S
O701   Zn703   2.031   .     S
C705   O760    1.287   .     A
C705   C728    1.398   .     S
C705   O747    1.270   .     A
C706   C708    1.405   .     A
C706   C721    1.489   .     S
C706   C717    1.407   .     A
C707   C732    1.405   .     A
C707   C731    1.434   .     S
C707   C709    1.403   .     A
C708   C730    1.434   .     S
C708   C710    1.403   .     A
C709   C711    1.397   .     A
C709   C722    1.487   .     S
C710   C723    1.487   .     S
C710   C712    1.397   .     A
C711   C713    1.414   .     A
C711   C718    1.402   .     A
C712   C719    1.402   .     A
C712   C714    1.414   .     A
C713   C715    1.422   .     A
C714   C717    1.422   .     A
C714   C137    1.404   1_556 S
C715   C732    1.407   .     A
C715   C727    1.420   .     A
C716   C729    1.398   .     S
C716   O761    1.287   .     A
C716   O758    1.270   .     A
C717   C726    1.420   .     A
C718   H735    1.083   .     S
C719   H737    1.083   .     S
C719   C151    1.386   1_556 S
C720   C732    1.489   .     S
C720   O766    1.223   .     D
C720   O748    1.397   .     S
C721   O749    1.223   .     D
C721   O750    1.397   .     S
C722   O751    1.223   .     D
C722   O752    1.396   .     S
C723   O753    1.223   .     D
C723   O754    1.396   .     S
C724   O755    1.223   .     D
C724   C726    1.487   .     S
C724   O948    1.399   .     S
C725   O757    1.223   .     D
C725   C727    1.487   .     S
C725   O1143   1.399   1_545 S
C726   C142    1.386   1_556 S
C728   C921    1.348   .     S
C728   F925    1.365   .     S
C729   C1112   1.348   1_545 S
C729   F1118   1.365   1_545 S
C730   O762    1.284   .     A
C730   O764    1.286   .     A
C731   O763    1.284   .     A
C731   O765    1.286   .     A
F733   C1112   1.365   1_545 S
F734   C921    1.365   .     S
H736   O759    1.014   .     S
H739   N618    1.029   1_655 S
H740   O748    1.014   .     S
H741   O750    1.014   .     S
H742   O752    1.014   .     S
H743   O754    1.014   .     S
H744   O756    1.014   .     S
N745   Zn768   2.012   .     S
N745   H610    1.029   1_655 S
N745   N618    1.280   1_655 S
N746   Zn767   2.012   .     S
O747   Zn767   1.961   .     S
O756   C1108   1.399   1_545 S
O758   Zn768   1.961   .     S
O759   C917    1.399   .     S
O760   Zn768   1.985   .     S
O761   Zn767   1.985   .     S
O762   Zn767   2.008   .     S
O763   Zn768   2.008   .     S
O764   Zn768   2.031   .     S
O765   Zn767   2.031   .     S
C769   O824    1.287   .     A
C769   C792    1.398   .     S
C769   O811    1.270   .     A
C770   C772    1.405   .     A
C770   C785    1.489   .     S
C770   C781    1.407   .     A
C771   C796    1.405   .     A
C771   C795    1.434   .     S
C771   C773    1.403   .     A
C772   C794    1.434   .     S
C772   C774    1.403   .     A
C773   C775    1.397   .     A
C773   C786    1.487   .     S
C774   C787    1.487   .     S
C774   C776    1.397   .     A
C775   C777    1.414   .     A
C775   C782    1.402   .     A
C776   C783    1.402   .     A
C776   C778    1.414   .     A
C777   C779    1.422   .     A
C778   C781    1.422   .     A
C778   C201    1.404   1_556 S
C779   C796    1.407   .     A
C779   C791    1.420   .     A
C780   C793    1.398   .     S
C780   O825    1.287   .     A
C780   O822    1.270   .     A
C781   C790    1.420   .     A
C782   H799    1.083   .     S
C783   H801    1.083   .     S
C783   C215    1.386   1_556 S
C784   C796    1.489   .     S
C784   O830    1.223   .     D
C784   O812    1.397   .     S
C785   O813    1.223   .     D
C785   O814    1.397   .     S
C786   O815    1.223   .     D
C786   O816    1.396   .     S
C787   O817    1.223   .     D
C787   O818    1.396   .     S
C788   O819    1.223   .     D
C788   C790    1.487   .     S
C788   O1012   1.399   .     S
C789   O821    1.223   .     D
C789   C791    1.487   .     S
C790   C206    1.386   1_556 S
C792   C985    1.348   .     S
C792   F989    1.365   .     S
C794   O826    1.284   .     A
C794   O828    1.286   .     A
C795   O827    1.284   .     A
C795   O829    1.286   .     A
F798   C985    1.365   .     S
H800   O823    1.014   .     S
H802   N937    1.029   1_455 S
H803   N874    1.029   .     S
H804   O812    1.014   .     S
H805   O814    1.014   .     S
H806   O816    1.014   .     S
H807   O818    1.014   .     S
H808   O820    1.014   .     S
N809   Zn832   2.012   .     S
N809   H866    1.029   .     S
N809   N874    1.280   .     S
N810   Zn831   2.012   .     S
N810   N937    1.280   1_455 S
N810   H931    1.029   1_455 S
O811   Zn831   1.961   .     S
O822   Zn832   1.961   .     S
O823   C981    1.399   .     S
O824   Zn832   1.985   .     S
O825   Zn831   1.985   .     S
O826   Zn831   2.008   .     S
O827   Zn832   2.008   .     S
O828   Zn832   2.031   .     S
O829   Zn831   2.031   .     S
C833   O888    1.287   .     A
C833   C856    1.398   .     S
C833   O875    1.270   .     A
C834   C836    1.405   .     A
C834   C849    1.489   .     S
C834   C845    1.407   .     A
C835   C860    1.405   .     A
C835   C859    1.434   .     S
C835   C837    1.403   .     A
C836   C858    1.434   .     S
C836   C838    1.403   .     A
C837   C839    1.397   .     A
C837   C850    1.487   .     S
C838   C851    1.487   .     S
C838   C840    1.397   .     A
C839   C841    1.414   .     A
C839   C846    1.402   .     A
C840   C847    1.402   .     A
C840   C842    1.414   .     A
C841   C843    1.422   .     A
C842   C845    1.422   .     A
C842   C265    1.404   1_556 S
C843   C860    1.407   .     A
C843   C855    1.420   .     A
C844   C857    1.398   .     S
C844   O889    1.287   .     A
C844   O886    1.270   .     A
C845   C854    1.420   .     A
C846   H863    1.083   .     S
C847   H865    1.083   .     S
C847   C279    1.386   1_556 S
C848   C860    1.489   .     S
C848   O894    1.223   .     D
C848   O876    1.397   .     S
C849   O877    1.223   .     D
C849   O878    1.397   .     S
C850   O879    1.223   .     D
C850   O880    1.396   .     S
C851   O881    1.223   .     D
C851   O882    1.396   .     S
C852   O883    1.223   .     D
C852   C854    1.487   .     S
C852   O1076   1.399   .     S
C853   O885    1.223   .     D
C853   C855    1.487   .     S
C854   C270    1.386   1_556 S
C856   C1049   1.348   .     S
C856   F1053   1.365   .     S
C858   O890    1.284   .     A
C858   O892    1.286   .     A
C859   O891    1.284   .     A
C859   O893    1.286   .     A
F862   C1049   1.365   .     S
H864   O887    1.014   .     S
H867   N938    1.029   .     S
H868   O876    1.014   .     S
H869   O878    1.014   .     S
H870   O880    1.014   .     S
H871   O882    1.014   .     S
H872   O884    1.014   .     S
N873   Zn896   2.012   .     S
N873   H930    1.029   .     S
N873   N938    1.280   .     S
N874   Zn895   2.012   .     S
O875   Zn895   1.961   .     S
O886   Zn896   1.961   .     S
O887   C1045   1.399   .     S
O888   Zn896   1.985   .     S
O889   Zn895   1.985   .     S
O890   Zn895   2.008   .     S
O891   Zn896   2.008   .     S
O892   Zn896   2.031   .     S
O893   Zn895   2.031   .     S
C897   O952    1.287   .     A
C897   C920    1.398   .     S
C897   O939    1.270   .     A
C898   C900    1.405   .     A
C898   C913    1.489   .     S
C898   C909    1.407   .     A
C899   C924    1.405   .     A
C899   C923    1.434   .     S
C899   C901    1.403   .     A
C900   C922    1.434   .     S
C900   C902    1.403   .     A
C901   C903    1.397   .     A
C901   C914    1.487   .     S
C902   C915    1.487   .     S
C902   C904    1.397   .     A
C903   C905    1.414   .     A
C903   C910    1.402   .     A
C904   C911    1.402   .     A
C904   C906    1.414   .     A
C905   C907    1.422   .     A
C906   C909    1.422   .     A
C906   C329    1.404   1_556 S
C907   C924    1.407   .     A
C907   C919    1.420   .     A
C908   C921    1.398   .     S
C908   O953    1.287   .     A
C908   O950    1.270   .     A
C909   C918    1.420   .     A
C910   H927    1.083   .     S
C911   H929    1.083   .     S
C911   C343    1.386   1_556 S
C912   C924    1.489   .     S
C912   O958    1.223   .     D
C912   O940    1.397   .     S
C913   O941    1.223   .     D
C913   O942    1.397   .     S
C914   O943    1.223   .     D
C914   O944    1.396   .     S
C915   O945    1.223   .     D
C915   O946    1.396   .     S
C916   O947    1.223   .     D
C916   C918    1.487   .     S
C916   O1140   1.399   .     S
C917   O949    1.223   .     D
C917   C919    1.487   .     S
C918   C334    1.386   1_556 S
C920   C1113   1.348   .     S
C920   F1117   1.365   .     S
C922   O954    1.284   .     A
C922   O956    1.286   .     A
C923   O955    1.284   .     A
C923   O957    1.286   .     A
F926   C1113   1.365   .     S
H928   O951    1.014   .     S
H931   N810    1.029   1_655 S
H932   O940    1.014   .     S
H933   O942    1.014   .     S
H934   O944    1.014   .     S
H935   O946    1.014   .     S
H936   O948    1.014   .     S
N937   Zn960   2.012   .     S
N937   H802    1.029   1_655 S
N937   N810    1.280   1_655 S
N938   Zn959   2.012   .     S
O939   Zn959   1.961   .     S
O950   Zn960   1.961   .     S
O951   C1109   1.399   .     S
O952   Zn960   1.985   .     S
O953   Zn959   1.985   .     S
O954   Zn959   2.008   .     S
O955   Zn960   2.008   .     S
O956   Zn960   2.031   .     S
O957   Zn959   2.031   .     S
C961   O1016   1.287   .     A
C961   C984    1.398   .     S
C961   O1003   1.270   .     A
C962   C964    1.405   .     A
C962   C977    1.489   .     S
C962   C973    1.407   .     A
C963   C988    1.405   .     A
C963   C987    1.434   .     S
C963   C965    1.403   .     A
C964   C986    1.434   .     S
C964   C966    1.403   .     A
C965   C967    1.397   .     A
C965   C978    1.487   .     S
C966   C979    1.487   .     S
C966   C968    1.397   .     A
C967   C969    1.414   .     A
C967   C974    1.402   .     A
C968   C975    1.402   .     A
C968   C970    1.414   .     A
C969   C971    1.422   .     A
C970   C973    1.422   .     A
C970   C393    1.404   1_556 S
C971   C988    1.407   .     A
C971   C983    1.420   .     A
C972   C985    1.398   .     S
C972   O1017   1.287   .     A
C972   O1014   1.270   .     A
C973   C982    1.420   .     A
C974   H991    1.083   .     S
C975   H993    1.083   .     S
C975   C407    1.386   1_556 S
C976   C988    1.489   .     S
C976   O1022   1.223   .     D
C976   O1004   1.397   .     S
C977   O1005   1.223   .     D
C977   O1006   1.397   .     S
C978   O1007   1.223   .     D
C978   O1008   1.396   .     S
C979   O1009   1.223   .     D
C979   O1010   1.396   .     S
C980   O1011   1.223   .     D
C980   C982    1.487   .     S
C980   O628    1.399   1_565 S
C981   O1013   1.223   .     D
C981   C983    1.487   .     S
C982   C398    1.386   1_556 S
C984   C601    1.348   1_565 S
C984   F605    1.365   1_565 S
C986   O1018   1.284   .     A
C986   O1020   1.286   .     A
C987   O1019   1.284   .     A
C987   O1021   1.286   .     A
F990   C601    1.365   1_565 S
H992   O1015   1.014   .     S
H994   N1129   1.029   1_455 S
H995   N1066   1.029   .     S
H996   O1004   1.014   .     S
H997   O1006   1.014   .     S
H998   O1008   1.014   .     S
H999   O1010   1.014   .     S
H1000  O1012   1.014   .     S
N1001  Zn1024  2.012   .     S
N1001  H1058   1.029   .     S
N1001  N1066   1.280   .     S
N1002  Zn1023  2.012   .     S
N1002  N1129   1.280   1_455 S
N1002  H1123   1.029   1_455 S
O1003  Zn1023  1.961   .     S
O1014  Zn1024  1.961   .     S
O1015  C597    1.399   1_565 S
O1016  Zn1024  1.985   .     S
O1017  Zn1023  1.985   .     S
O1018  Zn1023  2.008   .     S
O1019  Zn1024  2.008   .     S
O1020  Zn1024  2.031   .     S
O1021  Zn1023  2.031   .     S
C1025  O1080   1.287   .     A
C1025  C1048   1.398   .     S
C1025  O1067   1.270   .     A
C1026  C1028   1.405   .     A
C1026  C1041   1.489   .     S
C1026  C1037   1.407   .     A
C1027  C1052   1.405   .     A
C1027  C1051   1.434   .     S
C1027  C1029   1.403   .     A
C1028  C1050   1.434   .     S
C1028  C1030   1.403   .     A
C1029  C1031   1.397   .     A
C1029  C1042   1.487   .     S
C1030  C1043   1.487   .     S
C1030  C1032   1.397   .     A
C1031  C1033   1.414   .     A
C1031  C1038   1.402   .     A
C1032  C1039   1.402   .     A
C1032  C1034   1.414   .     A
C1033  C1035   1.422   .     A
C1034  C1037   1.422   .     A
C1034  C457    1.404   1_556 S
C1035  C1052   1.407   .     A
C1035  C1047   1.420   .     A
C1036  C1049   1.398   .     S
C1036  O1081   1.287   .     A
C1036  O1078   1.270   .     A
C1037  C1046   1.420   .     A
C1038  H1055   1.083   .     S
C1039  H1057   1.083   .     S
C1039  C471    1.386   1_556 S
C1040  C1052   1.489   .     S
C1040  O1086   1.223   .     D
C1040  O1068   1.397   .     S
C1041  O1069   1.223   .     D
C1041  O1070   1.397   .     S
C1042  O1071   1.223   .     D
C1042  O1072   1.396   .     S
C1043  O1073   1.223   .     D
C1043  O1074   1.396   .     S
C1044  O1075   1.223   .     D
C1044  C1046   1.487   .     S
C1044  O692    1.399   1_565 S
C1045  O1077   1.223   .     D
C1045  C1047   1.487   .     S
C1046  C462    1.386   1_556 S
C1048  C665    1.348   1_565 S
C1048  F669    1.365   1_565 S
C1050  O1082   1.284   .     A
C1050  O1084   1.286   .     A
C1051  O1083   1.284   .     A
C1051  O1085   1.286   .     A
F1054  C665    1.365   1_565 S
H1056  O1079   1.014   .     S
H1059  N1130   1.029   .     S
H1060  O1068   1.014   .     S
H1061  O1070   1.014   .     S
H1062  O1072   1.014   .     S
H1063  O1074   1.014   .     S
H1064  O1076   1.014   .     S
N1065  Zn1088  2.012   .     S
N1065  H1122   1.029   .     S
N1065  N1130   1.280   .     S
N1066  Zn1087  2.012   .     S
O1067  Zn1087  1.961   .     S
O1078  Zn1088  1.961   .     S
O1079  C661    1.399   1_565 S
O1080  Zn1088  1.985   .     S
O1081  Zn1087  1.985   .     S
O1082  Zn1087  2.008   .     S
O1083  Zn1088  2.008   .     S
O1084  Zn1088  2.031   .     S
O1085  Zn1087  2.031   .     S
C1089  O1144   1.287   .     A
C1089  C1112   1.398   .     S
C1089  O1131   1.270   .     A
C1090  C1092   1.405   .     A
C1090  C1105   1.489   .     S
C1090  C1101   1.407   .     A
C1091  C1116   1.405   .     A
C1091  C1115   1.434   .     S
C1091  C1093   1.403   .     A
C1092  C1114   1.434   .     S
C1092  C1094   1.403   .     A
C1093  C1095   1.397   .     A
C1093  C1106   1.487   .     S
C1094  C1107   1.487   .     S
C1094  C1096   1.397   .     A
C1095  C1097   1.414   .     A
C1095  C1102   1.402   .     A
C1096  C1103   1.402   .     A
C1096  C1098   1.414   .     A
C1097  C1099   1.422   .     A
C1098  C1101   1.422   .     A
C1098  C521    1.404   1_556 S
C1099  C1116   1.407   .     A
C1099  C1111   1.420   .     A
C1100  C1113   1.398   .     S
C1100  O1145   1.287   .     A
C1100  O1142   1.270   .     A
C1101  C1110   1.420   .     A
C1102  H1119   1.083   .     S
C1103  H1121   1.083   .     S
C1103  C535    1.386   1_556 S
C1104  C1116   1.489   .     S
C1104  O1150   1.223   .     D
C1104  O1132   1.397   .     S
C1105  O1133   1.223   .     D
C1105  O1134   1.397   .     S
C1106  O1135   1.223   .     D
C1106  O1136   1.396   .     S
C1107  O1137   1.223   .     D
C1107  O1138   1.396   .     S
C1108  O1139   1.223   .     D
C1108  C1110   1.487   .     S
C1108  O756    1.399   1_565 S
C1109  O1141   1.223   .     D
C1109  C1111   1.487   .     S
C1110  C526    1.386   1_556 S
C1112  C729    1.348   1_565 S
C1112  F733    1.365   1_565 S
C1114  O1146   1.284   .     A
C1114  O1148   1.286   .     A
C1115  O1147   1.284   .     A
C1115  O1149   1.286   .     A
F1118  C729    1.365   1_565 S
H1120  O1143   1.014   .     S
H1123  N1002   1.029   1_655 S
H1124  O1132   1.014   .     S
H1125  O1134   1.014   .     S
H1126  O1136   1.014   .     S
H1127  O1138   1.014   .     S
H1128  O1140   1.014   .     S
N1129  Zn1152  2.012   .     S
N1129  H994    1.029   1_655 S
N1129  N1002   1.280   1_655 S
N1130  Zn1151  2.012   .     S
O1131  Zn1151  1.961   .     S
O1142  Zn1152  1.961   .     S
O1143  C725    1.399   1_565 S
O1144  Zn1152  1.985   .     S
O1145  Zn1151  1.985   .     S
O1146  Zn1151  2.008   .     S
O1147  Zn1152  2.008   .     S
O1148  Zn1152  2.031   .     S
O1149  Zn1151  2.031   .     S
