data_str_m3_o2_o10_pcu_sym.90
_audit_creation_date              2020-01-03
_audit_creation_method            'Materials Studio'
_symmetry_space_group_name_H-M    'P1'
_symmetry_Int_Tables_number       1
_symmetry_cell_setting            triclinic
loop_
_symmetry_equiv_pos_as_xyz
  x,y,z
_cell_length_a                    25.7773
_cell_length_b                    29.9181
_cell_length_c                    28.3405
_cell_angle_alpha                 90.3132
_cell_angle_beta                  98.6656
_cell_angle_gamma                 89.9743
loop_
_atom_site_label
_atom_site_type_symbol
_atom_site_fract_x
_atom_site_fract_y
_atom_site_fract_z
_atom_site_U_iso_or_equiv
_atom_site_adp_type
_atom_site_occupancy
C1     C     0.16659   0.16380   0.24982   0.00000  Uiso   1.00
C2     C     0.12701   0.22818   0.44183   0.00000  Uiso   1.00
C3     C     0.16676   0.24997   0.02667   0.00000  Uiso   1.00
C4     C     0.16673   0.24999   0.47331   0.00000  Uiso   1.00
C5     C     0.06700   0.24997   0.23753   0.00000  Uiso   1.00
C6     C     0.26634   0.24999   0.26247   0.00000  Uiso   1.00
C7     C     0.01198   0.24996   0.23080   0.00000  Uiso   1.00
C8     C     0.32136   0.24995   0.26922   0.00000  Uiso   1.00
C9     C     0.12694   0.04928   0.27984   0.00000  Uiso   1.00
C10    C     0.12758   0.45073   0.20886   0.00000  Uiso   1.00
C11    C     0.13345   0.09532   0.28079   0.00000  Uiso   1.00
C12    C     0.16662   0.33621   0.25016   0.00000  Uiso   1.00
C13    C     0.13410   0.40471   0.20977   0.00000  Uiso   1.00
C14    C     0.16230   0.11580   0.24878   0.00000  Uiso   1.00
C15    C     0.16236   0.38423   0.24999   0.00000  Uiso   1.00
C16    C     0.18467   0.09039   0.21515   0.00000  Uiso   1.00
C17    C     0.18418   0.40967   0.28994   0.00000  Uiso   1.00
C18    C     0.17818   0.04439   0.21437   0.00000  Uiso   1.00
C19    C     0.17763   0.45566   0.28886   0.00000  Uiso   1.00
C20    C     0.14980   0.02406   0.24664   0.00000  Uiso   1.00
C21    C     0.14980   0.47597   0.24854   0.00000  Uiso   1.00
C22    C     0.14633   0.21368   0.04960   0.00000  Uiso   1.00
C23    C     0.20640   0.27184   0.45292   0.00000  Uiso   1.00
C24    C     0.14653   0.21443   0.09926   0.00000  Uiso   1.00
C25    C     0.20553   0.27156   0.40317   0.00000  Uiso   1.00
C26    C     0.18694   0.28550   0.10520   0.00000  Uiso   1.00
C27    C     0.12781   0.22848   0.39232   0.00000  Uiso   1.00
C28    C     0.18720   0.28623   0.05562   0.00000  Uiso   1.00
H29    H     0.32466   0.24997   0.19437   0.00000  Uiso   1.00
H30    H     0.23619   0.28851   0.38805   0.00000  Uiso   1.00
H31    H     0.20290   0.31355   0.12687   0.00000  Uiso   1.00
H32    H     0.09712   0.21153   0.36865   0.00000  Uiso   1.00
H33    H     0.20269   0.31540   0.04016   0.00000  Uiso   1.00
H34    H     0.09496   0.21146   0.45511   0.00000  Uiso   1.00
H35    H     0.05958   0.04164   0.30718   0.00000  Uiso   1.00
H36    H     0.11487   0.03616   0.34714   0.00000  Uiso   1.00
H37    H     0.06085   0.45832   0.16220   0.00000  Uiso   1.00
H38    H     0.11670   0.46386   0.13826   0.00000  Uiso   1.00
H39    H     0.25293   0.09688   0.18886   0.00000  Uiso   1.00
H40    H     0.00867   0.24993   0.30565   0.00000  Uiso   1.00
H41    H     0.19832   0.10307   0.14816   0.00000  Uiso   1.00
H42    H     0.19691   0.39704   0.36069   0.00000  Uiso   1.00
H43    H     0.25195   0.40326   0.33561   0.00000  Uiso   1.00
H44    H     0.11547   0.11504   0.30617   0.00000  Uiso   1.00
H45    H     0.11660   0.38500   0.17928   0.00000  Uiso   1.00
H46    H     0.19665   0.02433   0.18958   0.00000  Uiso   1.00
H47    H     0.19566   0.47575   0.31888   0.00000  Uiso   1.00
H48    H     0.13089   0.18449   0.02955   0.00000  Uiso   1.00
H49    H     0.23846   0.28857   0.47515   0.00000  Uiso   1.00
H50    H     0.13064   0.18635   0.11625   0.00000  Uiso   1.00
N51    N     0.16667   0.24999   0.12624   0.00000  Uiso   1.00
N52    N     0.16667   0.25001   0.37377   0.00000  Uiso   1.00
N53    N     0.09739   0.02809   0.31242   0.00000  Uiso   1.00
N54    N     0.09867   0.47190   0.16786   0.00000  Uiso   1.00
N55    N     0.21538   0.11094   0.18306   0.00000  Uiso   1.00
N56    N     0.21440   0.38917   0.33072   0.00000  Uiso   1.00
O57    O     0.16667   0.18454   0.28974   0.00000  Uiso   1.00
O58    O     0.16666   0.31547   0.21026   0.00000  Uiso   1.00
O59    O     0.16667   0.18453   0.21026   0.00000  Uiso   1.00
O60    O     0.16666   0.31547   0.28974   0.00000  Uiso   1.00
O61    O     0.09058   0.25000   0.28045   0.00000  Uiso   1.00
O62    O     0.24275   0.25000   0.21956   0.00000  Uiso   1.00
O63    O     0.09058   0.25000   0.20097   0.00000  Uiso   1.00
O64    O     0.24275   0.25000   0.29904   0.00000  Uiso   1.00
Zn65   Zn    0.16667   0.25001   0.30307   0.00000  Uiso   1.00
Zn66   Zn    0.16667   0.25000   0.19693   0.00000  Uiso   1.00
C67    C     0.49992   0.16380   0.24982   0.00000  Uiso   1.00
C68    C     0.46034   0.22818   0.44183   0.00000  Uiso   1.00
C69    C     0.50009   0.24997   0.02667   0.00000  Uiso   1.00
C70    C     0.50006   0.24999   0.47331   0.00000  Uiso   1.00
C71    C     0.40033   0.24997   0.23753   0.00000  Uiso   1.00
C72    C     0.59967   0.24999   0.26247   0.00000  Uiso   1.00
C73    C     0.34531   0.24996   0.23080   0.00000  Uiso   1.00
C74    C     0.65469   0.24995   0.26922   0.00000  Uiso   1.00
C75    C     0.46027   0.04928   0.27984   0.00000  Uiso   1.00
C76    C     0.46091   0.45073   0.20886   0.00000  Uiso   1.00
C77    C     0.46678   0.09532   0.28079   0.00000  Uiso   1.00
C78    C     0.49995   0.33621   0.25016   0.00000  Uiso   1.00
C79    C     0.46743   0.40471   0.20977   0.00000  Uiso   1.00
C80    C     0.49563   0.11580   0.24878   0.00000  Uiso   1.00
C81    C     0.49569   0.38423   0.24999   0.00000  Uiso   1.00
C82    C     0.51801   0.09039   0.21515   0.00000  Uiso   1.00
C83    C     0.51751   0.40967   0.28994   0.00000  Uiso   1.00
C84    C     0.51151   0.04439   0.21437   0.00000  Uiso   1.00
C85    C     0.51097   0.45566   0.28886   0.00000  Uiso   1.00
C86    C     0.48313   0.02406   0.24664   0.00000  Uiso   1.00
C87    C     0.48313   0.47597   0.24854   0.00000  Uiso   1.00
C88    C     0.47966   0.21368   0.04960   0.00000  Uiso   1.00
C89    C     0.53973   0.27184   0.45292   0.00000  Uiso   1.00
C90    C     0.47986   0.21443   0.09926   0.00000  Uiso   1.00
C91    C     0.53886   0.27156   0.40317   0.00000  Uiso   1.00
C92    C     0.52027   0.28550   0.10520   0.00000  Uiso   1.00
C93    C     0.46115   0.22848   0.39232   0.00000  Uiso   1.00
C94    C     0.52054   0.28623   0.05562   0.00000  Uiso   1.00
H95    H     0.65800   0.24997   0.19437   0.00000  Uiso   1.00
H96    H     0.56952   0.28851   0.38805   0.00000  Uiso   1.00
H97    H     0.53624   0.31355   0.12687   0.00000  Uiso   1.00
H98    H     0.43045   0.21153   0.36865   0.00000  Uiso   1.00
H99    H     0.53603   0.31540   0.04016   0.00000  Uiso   1.00
H100   H     0.42830   0.21146   0.45511   0.00000  Uiso   1.00
H101   H     0.39291   0.04164   0.30718   0.00000  Uiso   1.00
H102   H     0.44820   0.03616   0.34714   0.00000  Uiso   1.00
H103   H     0.39419   0.45832   0.16220   0.00000  Uiso   1.00
H104   H     0.45004   0.46386   0.13826   0.00000  Uiso   1.00
H105   H     0.58627   0.09688   0.18886   0.00000  Uiso   1.00
H106   H     0.34200   0.24993   0.30565   0.00000  Uiso   1.00
H107   H     0.53166   0.10307   0.14816   0.00000  Uiso   1.00
H108   H     0.53024   0.39704   0.36069   0.00000  Uiso   1.00
H109   H     0.58529   0.40326   0.33561   0.00000  Uiso   1.00
H110   H     0.44881   0.11504   0.30617   0.00000  Uiso   1.00
H111   H     0.44993   0.38500   0.17928   0.00000  Uiso   1.00
H112   H     0.52998   0.02433   0.18958   0.00000  Uiso   1.00
H113   H     0.52899   0.47575   0.31888   0.00000  Uiso   1.00
H114   H     0.46423   0.18449   0.02955   0.00000  Uiso   1.00
H115   H     0.57179   0.28857   0.47515   0.00000  Uiso   1.00
H116   H     0.46398   0.18635   0.11625   0.00000  Uiso   1.00
N117   N     0.50000   0.24999   0.12624   0.00000  Uiso   1.00
N118   N     0.50000   0.25001   0.37377   0.00000  Uiso   1.00
N119   N     0.43073   0.02809   0.31242   0.00000  Uiso   1.00
N120   N     0.43200   0.47190   0.16786   0.00000  Uiso   1.00
N121   N     0.54872   0.11094   0.18306   0.00000  Uiso   1.00
N122   N     0.54773   0.38917   0.33072   0.00000  Uiso   1.00
O123   O     0.50000   0.18454   0.28974   0.00000  Uiso   1.00
O124   O     0.50000   0.31547   0.21026   0.00000  Uiso   1.00
O125   O     0.50000   0.18453   0.21026   0.00000  Uiso   1.00
O126   O     0.50000   0.31547   0.28974   0.00000  Uiso   1.00
O127   O     0.42392   0.25000   0.28045   0.00000  Uiso   1.00
O128   O     0.57608   0.25000   0.21956   0.00000  Uiso   1.00
O129   O     0.42392   0.25000   0.20097   0.00000  Uiso   1.00
O130   O     0.57608   0.25000   0.29904   0.00000  Uiso   1.00
Zn131  Zn    0.50000   0.25001   0.30307   0.00000  Uiso   1.00
Zn132  Zn    0.50000   0.25000   0.19693   0.00000  Uiso   1.00
C133   C     0.83326   0.16380   0.24982   0.00000  Uiso   1.00
C134   C     0.79367   0.22818   0.44183   0.00000  Uiso   1.00
C135   C     0.83342   0.24997   0.02667   0.00000  Uiso   1.00
C136   C     0.83339   0.24999   0.47331   0.00000  Uiso   1.00
C137   C     0.73366   0.24997   0.23753   0.00000  Uiso   1.00
C138   C     0.93300   0.24999   0.26247   0.00000  Uiso   1.00
C139   C     0.67865   0.24996   0.23080   0.00000  Uiso   1.00
C140   C     0.98803   0.24995   0.26922   0.00000  Uiso   1.00
C141   C     0.79361   0.04928   0.27984   0.00000  Uiso   1.00
C142   C     0.79425   0.45073   0.20886   0.00000  Uiso   1.00
C143   C     0.80011   0.09532   0.28079   0.00000  Uiso   1.00
C144   C     0.83329   0.33621   0.25016   0.00000  Uiso   1.00
C145   C     0.80077   0.40471   0.20977   0.00000  Uiso   1.00
C146   C     0.82897   0.11580   0.24878   0.00000  Uiso   1.00
C147   C     0.82903   0.38423   0.24999   0.00000  Uiso   1.00
C148   C     0.85134   0.09039   0.21515   0.00000  Uiso   1.00
C149   C     0.85084   0.40967   0.28994   0.00000  Uiso   1.00
C150   C     0.84485   0.04439   0.21437   0.00000  Uiso   1.00
C151   C     0.84430   0.45566   0.28886   0.00000  Uiso   1.00
C152   C     0.81646   0.02406   0.24664   0.00000  Uiso   1.00
C153   C     0.81647   0.47597   0.24854   0.00000  Uiso   1.00
C154   C     0.81299   0.21368   0.04960   0.00000  Uiso   1.00
C155   C     0.87307   0.27184   0.45292   0.00000  Uiso   1.00
C156   C     0.81320   0.21443   0.09926   0.00000  Uiso   1.00
C157   C     0.87220   0.27156   0.40317   0.00000  Uiso   1.00
C158   C     0.85360   0.28550   0.10520   0.00000  Uiso   1.00
C159   C     0.79448   0.22848   0.39232   0.00000  Uiso   1.00
C160   C     0.85387   0.28623   0.05562   0.00000  Uiso   1.00
H161   H     0.99133   0.24997   0.19437   0.00000  Uiso   1.00
H162   H     0.90286   0.28851   0.38805   0.00000  Uiso   1.00
H163   H     0.86957   0.31355   0.12687   0.00000  Uiso   1.00
H164   H     0.76378   0.21153   0.36865   0.00000  Uiso   1.00
H165   H     0.86936   0.31540   0.04016   0.00000  Uiso   1.00
H166   H     0.76163   0.21146   0.45511   0.00000  Uiso   1.00
H167   H     0.72624   0.04164   0.30718   0.00000  Uiso   1.00
H168   H     0.78154   0.03616   0.34714   0.00000  Uiso   1.00
H169   H     0.72752   0.45832   0.16220   0.00000  Uiso   1.00
H170   H     0.78337   0.46386   0.13826   0.00000  Uiso   1.00
H171   H     0.91960   0.09688   0.18886   0.00000  Uiso   1.00
H172   H     0.67534   0.24993   0.30565   0.00000  Uiso   1.00
H173   H     0.86499   0.10307   0.14816   0.00000  Uiso   1.00
H174   H     0.86358   0.39704   0.36069   0.00000  Uiso   1.00
H175   H     0.91862   0.40326   0.33561   0.00000  Uiso   1.00
H176   H     0.78214   0.11504   0.30617   0.00000  Uiso   1.00
H177   H     0.78326   0.38500   0.17928   0.00000  Uiso   1.00
H178   H     0.86331   0.02433   0.18958   0.00000  Uiso   1.00
H179   H     0.86233   0.47575   0.31888   0.00000  Uiso   1.00
H180   H     0.79756   0.18449   0.02955   0.00000  Uiso   1.00
H181   H     0.90513   0.28857   0.47515   0.00000  Uiso   1.00
H182   H     0.79731   0.18635   0.11625   0.00000  Uiso   1.00
N183   N     0.83333   0.24999   0.12624   0.00000  Uiso   1.00
N184   N     0.83333   0.25001   0.37377   0.00000  Uiso   1.00
N185   N     0.76406   0.02809   0.31242   0.00000  Uiso   1.00
N186   N     0.76533   0.47190   0.16786   0.00000  Uiso   1.00
N187   N     0.88205   0.11094   0.18306   0.00000  Uiso   1.00
N188   N     0.88107   0.38917   0.33072   0.00000  Uiso   1.00
O189   O     0.83334   0.18454   0.28974   0.00000  Uiso   1.00
O190   O     0.83333   0.31547   0.21026   0.00000  Uiso   1.00
O191   O     0.83334   0.18453   0.21026   0.00000  Uiso   1.00
O192   O     0.83333   0.31547   0.28974   0.00000  Uiso   1.00
O193   O     0.75725   0.25000   0.28045   0.00000  Uiso   1.00
O194   O     0.90942   0.25000   0.21956   0.00000  Uiso   1.00
O195   O     0.75725   0.25000   0.20097   0.00000  Uiso   1.00
O196   O     0.90942   0.25000   0.29904   0.00000  Uiso   1.00
Zn197  Zn    0.83333   0.25001   0.30307   0.00000  Uiso   1.00
Zn198  Zn    0.83333   0.25000   0.19693   0.00000  Uiso   1.00
C199   C     0.16659   0.66380   0.24982   0.00000  Uiso   1.00
C200   C     0.12701   0.72818   0.44183   0.00000  Uiso   1.00
C201   C     0.16676   0.74997   0.02667   0.00000  Uiso   1.00
C202   C     0.16673   0.74999   0.47331   0.00000  Uiso   1.00
C203   C     0.06700   0.74997   0.23753   0.00000  Uiso   1.00
C204   C     0.26634   0.74999   0.26247   0.00000  Uiso   1.00
C205   C     0.01198   0.74996   0.23080   0.00000  Uiso   1.00
C206   C     0.32136   0.74995   0.26922   0.00000  Uiso   1.00
C207   C     0.12694   0.54928   0.27984   0.00000  Uiso   1.00
C208   C     0.12758   0.95073   0.20886   0.00000  Uiso   1.00
C209   C     0.13345   0.59532   0.28079   0.00000  Uiso   1.00
C210   C     0.16662   0.83621   0.25016   0.00000  Uiso   1.00
C211   C     0.13410   0.90471   0.20977   0.00000  Uiso   1.00
C212   C     0.16230   0.61580   0.24878   0.00000  Uiso   1.00
C213   C     0.16236   0.88423   0.24999   0.00000  Uiso   1.00
C214   C     0.18467   0.59039   0.21515   0.00000  Uiso   1.00
C215   C     0.18418   0.90967   0.28994   0.00000  Uiso   1.00
C216   C     0.17818   0.54439   0.21437   0.00000  Uiso   1.00
C217   C     0.17763   0.95566   0.28886   0.00000  Uiso   1.00
C218   C     0.14980   0.52406   0.24664   0.00000  Uiso   1.00
C219   C     0.14980   0.97597   0.24854   0.00000  Uiso   1.00
C220   C     0.14633   0.71368   0.04960   0.00000  Uiso   1.00
C221   C     0.20640   0.77184   0.45292   0.00000  Uiso   1.00
C222   C     0.14653   0.71443   0.09926   0.00000  Uiso   1.00
C223   C     0.20553   0.77156   0.40317   0.00000  Uiso   1.00
C224   C     0.18694   0.78550   0.10520   0.00000  Uiso   1.00
C225   C     0.12781   0.72848   0.39232   0.00000  Uiso   1.00
C226   C     0.18720   0.78623   0.05562   0.00000  Uiso   1.00
H227   H     0.32466   0.74997   0.19437   0.00000  Uiso   1.00
H228   H     0.23619   0.78851   0.38805   0.00000  Uiso   1.00
H229   H     0.20290   0.81355   0.12687   0.00000  Uiso   1.00
H230   H     0.09712   0.71153   0.36865   0.00000  Uiso   1.00
H231   H     0.20269   0.81540   0.04016   0.00000  Uiso   1.00
H232   H     0.09496   0.71146   0.45511   0.00000  Uiso   1.00
H233   H     0.05958   0.54164   0.30718   0.00000  Uiso   1.00
H234   H     0.11487   0.53616   0.34714   0.00000  Uiso   1.00
H235   H     0.06085   0.95832   0.16220   0.00000  Uiso   1.00
H236   H     0.11670   0.96386   0.13826   0.00000  Uiso   1.00
H237   H     0.25293   0.59688   0.18886   0.00000  Uiso   1.00
H238   H     0.00867   0.74993   0.30565   0.00000  Uiso   1.00
H239   H     0.19832   0.60307   0.14816   0.00000  Uiso   1.00
H240   H     0.19691   0.89704   0.36069   0.00000  Uiso   1.00
H241   H     0.25195   0.90326   0.33561   0.00000  Uiso   1.00
H242   H     0.11547   0.61504   0.30617   0.00000  Uiso   1.00
H243   H     0.11660   0.88500   0.17928   0.00000  Uiso   1.00
H244   H     0.19665   0.52433   0.18958   0.00000  Uiso   1.00
H245   H     0.19566   0.97575   0.31888   0.00000  Uiso   1.00
H246   H     0.13089   0.68449   0.02955   0.00000  Uiso   1.00
H247   H     0.23846   0.78857   0.47515   0.00000  Uiso   1.00
H248   H     0.13064   0.68635   0.11625   0.00000  Uiso   1.00
N249   N     0.16667   0.74999   0.12624   0.00000  Uiso   1.00
N250   N     0.16667   0.75001   0.37377   0.00000  Uiso   1.00
N251   N     0.09739   0.52809   0.31242   0.00000  Uiso   1.00
N252   N     0.09867   0.97190   0.16786   0.00000  Uiso   1.00
N253   N     0.21538   0.61094   0.18306   0.00000  Uiso   1.00
N254   N     0.21440   0.88917   0.33072   0.00000  Uiso   1.00
O255   O     0.16667   0.68454   0.28974   0.00000  Uiso   1.00
O256   O     0.16666   0.81547   0.21026   0.00000  Uiso   1.00
O257   O     0.16667   0.68453   0.21026   0.00000  Uiso   1.00
O258   O     0.16666   0.81547   0.28974   0.00000  Uiso   1.00
O259   O     0.09058   0.75000   0.28045   0.00000  Uiso   1.00
O260   O     0.24275   0.75000   0.21956   0.00000  Uiso   1.00
O261   O     0.09058   0.75000   0.20097   0.00000  Uiso   1.00
O262   O     0.24275   0.75000   0.29904   0.00000  Uiso   1.00
Zn263  Zn    0.16667   0.75001   0.30307   0.00000  Uiso   1.00
Zn264  Zn    0.16667   0.75000   0.19693   0.00000  Uiso   1.00
C265   C     0.49992   0.66380   0.24982   0.00000  Uiso   1.00
C266   C     0.46034   0.72818   0.44183   0.00000  Uiso   1.00
C267   C     0.50009   0.74997   0.02667   0.00000  Uiso   1.00
C268   C     0.50006   0.74999   0.47331   0.00000  Uiso   1.00
C269   C     0.40033   0.74997   0.23753   0.00000  Uiso   1.00
C270   C     0.59967   0.74999   0.26247   0.00000  Uiso   1.00
C271   C     0.34531   0.74996   0.23080   0.00000  Uiso   1.00
C272   C     0.65469   0.74995   0.26922   0.00000  Uiso   1.00
C273   C     0.46027   0.54928   0.27984   0.00000  Uiso   1.00
C274   C     0.46091   0.95073   0.20886   0.00000  Uiso   1.00
C275   C     0.46678   0.59532   0.28079   0.00000  Uiso   1.00
C276   C     0.49995   0.83621   0.25016   0.00000  Uiso   1.00
C277   C     0.46743   0.90471   0.20977   0.00000  Uiso   1.00
C278   C     0.49563   0.61580   0.24878   0.00000  Uiso   1.00
C279   C     0.49569   0.88423   0.24999   0.00000  Uiso   1.00
C280   C     0.51801   0.59039   0.21515   0.00000  Uiso   1.00
C281   C     0.51751   0.90967   0.28994   0.00000  Uiso   1.00
C282   C     0.51151   0.54439   0.21437   0.00000  Uiso   1.00
C283   C     0.51097   0.95566   0.28886   0.00000  Uiso   1.00
C284   C     0.48313   0.52406   0.24664   0.00000  Uiso   1.00
C285   C     0.48313   0.97597   0.24854   0.00000  Uiso   1.00
C286   C     0.47966   0.71368   0.04960   0.00000  Uiso   1.00
C287   C     0.53973   0.77184   0.45292   0.00000  Uiso   1.00
C288   C     0.47986   0.71443   0.09926   0.00000  Uiso   1.00
C289   C     0.53886   0.77156   0.40317   0.00000  Uiso   1.00
C290   C     0.52027   0.78550   0.10520   0.00000  Uiso   1.00
C291   C     0.46115   0.72848   0.39232   0.00000  Uiso   1.00
C292   C     0.52054   0.78623   0.05562   0.00000  Uiso   1.00
H293   H     0.65800   0.74997   0.19437   0.00000  Uiso   1.00
H294   H     0.56952   0.78851   0.38805   0.00000  Uiso   1.00
H295   H     0.53624   0.81355   0.12687   0.00000  Uiso   1.00
H296   H     0.43045   0.71153   0.36865   0.00000  Uiso   1.00
H297   H     0.53603   0.81540   0.04016   0.00000  Uiso   1.00
H298   H     0.42830   0.71146   0.45511   0.00000  Uiso   1.00
H299   H     0.39291   0.54164   0.30718   0.00000  Uiso   1.00
H300   H     0.44820   0.53616   0.34714   0.00000  Uiso   1.00
H301   H     0.39419   0.95832   0.16220   0.00000  Uiso   1.00
H302   H     0.45004   0.96386   0.13826   0.00000  Uiso   1.00
H303   H     0.58627   0.59688   0.18886   0.00000  Uiso   1.00
H304   H     0.34200   0.74993   0.30565   0.00000  Uiso   1.00
H305   H     0.53166   0.60307   0.14816   0.00000  Uiso   1.00
H306   H     0.53024   0.89704   0.36069   0.00000  Uiso   1.00
H307   H     0.58529   0.90326   0.33561   0.00000  Uiso   1.00
H308   H     0.44881   0.61504   0.30617   0.00000  Uiso   1.00
H309   H     0.44993   0.88500   0.17928   0.00000  Uiso   1.00
H310   H     0.52998   0.52433   0.18958   0.00000  Uiso   1.00
H311   H     0.52899   0.97575   0.31888   0.00000  Uiso   1.00
H312   H     0.46423   0.68449   0.02955   0.00000  Uiso   1.00
H313   H     0.57179   0.78857   0.47515   0.00000  Uiso   1.00
H314   H     0.46398   0.68635   0.11625   0.00000  Uiso   1.00
N315   N     0.50000   0.74999   0.12624   0.00000  Uiso   1.00
N316   N     0.50000   0.75001   0.37377   0.00000  Uiso   1.00
N317   N     0.43073   0.52809   0.31242   0.00000  Uiso   1.00
N318   N     0.43200   0.97190   0.16786   0.00000  Uiso   1.00
N319   N     0.54872   0.61094   0.18306   0.00000  Uiso   1.00
N320   N     0.54773   0.88917   0.33072   0.00000  Uiso   1.00
O321   O     0.50000   0.68454   0.28974   0.00000  Uiso   1.00
O322   O     0.50000   0.81547   0.21026   0.00000  Uiso   1.00
O323   O     0.50000   0.68453   0.21026   0.00000  Uiso   1.00
O324   O     0.50000   0.81547   0.28974   0.00000  Uiso   1.00
O325   O     0.42392   0.75000   0.28045   0.00000  Uiso   1.00
O326   O     0.57608   0.75000   0.21956   0.00000  Uiso   1.00
O327   O     0.42392   0.75000   0.20097   0.00000  Uiso   1.00
O328   O     0.57608   0.75000   0.29904   0.00000  Uiso   1.00
Zn329  Zn    0.50000   0.75001   0.30307   0.00000  Uiso   1.00
Zn330  Zn    0.50000   0.75000   0.19693   0.00000  Uiso   1.00
C331   C     0.83326   0.66380   0.24982   0.00000  Uiso   1.00
C332   C     0.79367   0.72818   0.44183   0.00000  Uiso   1.00
C333   C     0.83342   0.74997   0.02667   0.00000  Uiso   1.00
C334   C     0.83339   0.74999   0.47331   0.00000  Uiso   1.00
C335   C     0.73366   0.74997   0.23753   0.00000  Uiso   1.00
C336   C     0.93300   0.74999   0.26247   0.00000  Uiso   1.00
C337   C     0.67865   0.74996   0.23080   0.00000  Uiso   1.00
C338   C     0.98803   0.74995   0.26922   0.00000  Uiso   1.00
C339   C     0.79361   0.54928   0.27984   0.00000  Uiso   1.00
C340   C     0.79425   0.95073   0.20886   0.00000  Uiso   1.00
C341   C     0.80011   0.59532   0.28079   0.00000  Uiso   1.00
C342   C     0.83329   0.83621   0.25016   0.00000  Uiso   1.00
C343   C     0.80077   0.90471   0.20977   0.00000  Uiso   1.00
C344   C     0.82897   0.61580   0.24878   0.00000  Uiso   1.00
C345   C     0.82903   0.88423   0.24999   0.00000  Uiso   1.00
C346   C     0.85134   0.59039   0.21515   0.00000  Uiso   1.00
C347   C     0.85084   0.90967   0.28994   0.00000  Uiso   1.00
C348   C     0.84485   0.54439   0.21437   0.00000  Uiso   1.00
C349   C     0.84430   0.95566   0.28886   0.00000  Uiso   1.00
C350   C     0.81646   0.52406   0.24664   0.00000  Uiso   1.00
C351   C     0.81647   0.97597   0.24854   0.00000  Uiso   1.00
C352   C     0.81299   0.71368   0.04960   0.00000  Uiso   1.00
C353   C     0.87307   0.77184   0.45292   0.00000  Uiso   1.00
C354   C     0.81320   0.71443   0.09926   0.00000  Uiso   1.00
C355   C     0.87220   0.77156   0.40317   0.00000  Uiso   1.00
C356   C     0.85360   0.78550   0.10520   0.00000  Uiso   1.00
C357   C     0.79448   0.72848   0.39232   0.00000  Uiso   1.00
C358   C     0.85387   0.78623   0.05562   0.00000  Uiso   1.00
H359   H     0.99133   0.74997   0.19437   0.00000  Uiso   1.00
H360   H     0.90286   0.78851   0.38805   0.00000  Uiso   1.00
H361   H     0.86957   0.81355   0.12687   0.00000  Uiso   1.00
H362   H     0.76378   0.71153   0.36865   0.00000  Uiso   1.00
H363   H     0.86936   0.81540   0.04016   0.00000  Uiso   1.00
H364   H     0.76163   0.71146   0.45511   0.00000  Uiso   1.00
H365   H     0.72624   0.54164   0.30718   0.00000  Uiso   1.00
H366   H     0.78154   0.53616   0.34714   0.00000  Uiso   1.00
H367   H     0.72752   0.95832   0.16220   0.00000  Uiso   1.00
H368   H     0.78337   0.96386   0.13826   0.00000  Uiso   1.00
H369   H     0.91960   0.59688   0.18886   0.00000  Uiso   1.00
H370   H     0.67534   0.74993   0.30565   0.00000  Uiso   1.00
H371   H     0.86499   0.60307   0.14816   0.00000  Uiso   1.00
H372   H     0.86358   0.89704   0.36069   0.00000  Uiso   1.00
H373   H     0.91862   0.90326   0.33561   0.00000  Uiso   1.00
H374   H     0.78214   0.61504   0.30617   0.00000  Uiso   1.00
H375   H     0.78326   0.88500   0.17928   0.00000  Uiso   1.00
H376   H     0.86331   0.52433   0.18958   0.00000  Uiso   1.00
H377   H     0.86233   0.97575   0.31888   0.00000  Uiso   1.00
H378   H     0.79756   0.68449   0.02955   0.00000  Uiso   1.00
H379   H     0.90513   0.78857   0.47515   0.00000  Uiso   1.00
H380   H     0.79731   0.68635   0.11625   0.00000  Uiso   1.00
N381   N     0.83333   0.74999   0.12624   0.00000  Uiso   1.00
N382   N     0.83333   0.75001   0.37377   0.00000  Uiso   1.00
N383   N     0.76406   0.52809   0.31242   0.00000  Uiso   1.00
N384   N     0.76533   0.97190   0.16786   0.00000  Uiso   1.00
N385   N     0.88205   0.61094   0.18306   0.00000  Uiso   1.00
N386   N     0.88107   0.88917   0.33072   0.00000  Uiso   1.00
O387   O     0.83334   0.68454   0.28974   0.00000  Uiso   1.00
O388   O     0.83333   0.81547   0.21026   0.00000  Uiso   1.00
O389   O     0.83334   0.68453   0.21026   0.00000  Uiso   1.00
O390   O     0.83333   0.81547   0.28974   0.00000  Uiso   1.00
O391   O     0.75725   0.75000   0.28045   0.00000  Uiso   1.00
O392   O     0.90942   0.75000   0.21956   0.00000  Uiso   1.00
O393   O     0.75725   0.75000   0.20097   0.00000  Uiso   1.00
O394   O     0.90942   0.75000   0.29904   0.00000  Uiso   1.00
Zn395  Zn    0.83333   0.75001   0.30307   0.00000  Uiso   1.00
Zn396  Zn    0.83333   0.75000   0.19693   0.00000  Uiso   1.00
C397   C     0.16659   0.16380   0.74982   0.00000  Uiso   1.00
C398   C     0.12701   0.22818   0.94183   0.00000  Uiso   1.00
C399   C     0.16676   0.24997   0.52667   0.00000  Uiso   1.00
C400   C     0.16673   0.24999   0.97331   0.00000  Uiso   1.00
C401   C     0.06700   0.24997   0.73753   0.00000  Uiso   1.00
C402   C     0.26634   0.24999   0.76247   0.00000  Uiso   1.00
C403   C     0.01198   0.24996   0.73080   0.00000  Uiso   1.00
C404   C     0.32136   0.24995   0.76922   0.00000  Uiso   1.00
C405   C     0.12694   0.04928   0.77984   0.00000  Uiso   1.00
C406   C     0.12758   0.45073   0.70886   0.00000  Uiso   1.00
C407   C     0.13345   0.09532   0.78079   0.00000  Uiso   1.00
C408   C     0.16662   0.33621   0.75016   0.00000  Uiso   1.00
C409   C     0.13410   0.40471   0.70977   0.00000  Uiso   1.00
C410   C     0.16230   0.11580   0.74878   0.00000  Uiso   1.00
C411   C     0.16236   0.38423   0.74999   0.00000  Uiso   1.00
C412   C     0.18467   0.09039   0.71515   0.00000  Uiso   1.00
C413   C     0.18418   0.40967   0.78994   0.00000  Uiso   1.00
C414   C     0.17818   0.04439   0.71437   0.00000  Uiso   1.00
C415   C     0.17763   0.45566   0.78886   0.00000  Uiso   1.00
C416   C     0.14980   0.02406   0.74664   0.00000  Uiso   1.00
C417   C     0.14980   0.47597   0.74854   0.00000  Uiso   1.00
C418   C     0.14633   0.21368   0.54960   0.00000  Uiso   1.00
C419   C     0.20640   0.27184   0.95292   0.00000  Uiso   1.00
C420   C     0.14653   0.21443   0.59926   0.00000  Uiso   1.00
C421   C     0.20553   0.27156   0.90317   0.00000  Uiso   1.00
C422   C     0.18694   0.28550   0.60520   0.00000  Uiso   1.00
C423   C     0.12781   0.22848   0.89232   0.00000  Uiso   1.00
C424   C     0.18720   0.28623   0.55562   0.00000  Uiso   1.00
H425   H     0.32466   0.24997   0.69437   0.00000  Uiso   1.00
H426   H     0.23619   0.28851   0.88805   0.00000  Uiso   1.00
H427   H     0.20290   0.31355   0.62687   0.00000  Uiso   1.00
H428   H     0.09712   0.21153   0.86865   0.00000  Uiso   1.00
H429   H     0.20269   0.31540   0.54016   0.00000  Uiso   1.00
H430   H     0.09496   0.21146   0.95511   0.00000  Uiso   1.00
H431   H     0.05958   0.04164   0.80718   0.00000  Uiso   1.00
H432   H     0.11487   0.03616   0.84714   0.00000  Uiso   1.00
H433   H     0.06085   0.45832   0.66220   0.00000  Uiso   1.00
H434   H     0.11670   0.46386   0.63826   0.00000  Uiso   1.00
H435   H     0.25293   0.09688   0.68886   0.00000  Uiso   1.00
H436   H     0.00867   0.24993   0.80565   0.00000  Uiso   1.00
H437   H     0.19832   0.10307   0.64816   0.00000  Uiso   1.00
H438   H     0.19691   0.39704   0.86069   0.00000  Uiso   1.00
H439   H     0.25195   0.40326   0.83561   0.00000  Uiso   1.00
H440   H     0.11547   0.11504   0.80617   0.00000  Uiso   1.00
H441   H     0.11660   0.38500   0.67928   0.00000  Uiso   1.00
H442   H     0.19665   0.02433   0.68958   0.00000  Uiso   1.00
H443   H     0.19566   0.47575   0.81888   0.00000  Uiso   1.00
H444   H     0.13089   0.18449   0.52955   0.00000  Uiso   1.00
H445   H     0.23846   0.28857   0.97515   0.00000  Uiso   1.00
H446   H     0.13064   0.18635   0.61625   0.00000  Uiso   1.00
N447   N     0.16667   0.24999   0.62624   0.00000  Uiso   1.00
N448   N     0.16667   0.25001   0.87377   0.00000  Uiso   1.00
N449   N     0.09739   0.02809   0.81242   0.00000  Uiso   1.00
N450   N     0.09867   0.47190   0.66786   0.00000  Uiso   1.00
N451   N     0.21538   0.11094   0.68306   0.00000  Uiso   1.00
N452   N     0.21440   0.38917   0.83072   0.00000  Uiso   1.00
O453   O     0.16667   0.18454   0.78974   0.00000  Uiso   1.00
O454   O     0.16666   0.31547   0.71026   0.00000  Uiso   1.00
O455   O     0.16667   0.18453   0.71026   0.00000  Uiso   1.00
O456   O     0.16666   0.31547   0.78974   0.00000  Uiso   1.00
O457   O     0.09058   0.25000   0.78045   0.00000  Uiso   1.00
O458   O     0.24275   0.25000   0.71956   0.00000  Uiso   1.00
O459   O     0.09058   0.25000   0.70097   0.00000  Uiso   1.00
O460   O     0.24275   0.25000   0.79904   0.00000  Uiso   1.00
Zn461  Zn    0.16667   0.25001   0.80307   0.00000  Uiso   1.00
Zn462  Zn    0.16667   0.25000   0.69693   0.00000  Uiso   1.00
C463   C     0.49992   0.16380   0.74982   0.00000  Uiso   1.00
C464   C     0.46034   0.22818   0.94183   0.00000  Uiso   1.00
C465   C     0.50009   0.24997   0.52667   0.00000  Uiso   1.00
C466   C     0.50006   0.24999   0.97331   0.00000  Uiso   1.00
C467   C     0.40033   0.24997   0.73753   0.00000  Uiso   1.00
C468   C     0.59967   0.24999   0.76247   0.00000  Uiso   1.00
C469   C     0.34531   0.24996   0.73080   0.00000  Uiso   1.00
C470   C     0.65469   0.24995   0.76922   0.00000  Uiso   1.00
C471   C     0.46027   0.04928   0.77984   0.00000  Uiso   1.00
C472   C     0.46091   0.45073   0.70886   0.00000  Uiso   1.00
C473   C     0.46678   0.09532   0.78079   0.00000  Uiso   1.00
C474   C     0.49995   0.33621   0.75016   0.00000  Uiso   1.00
C475   C     0.46743   0.40471   0.70977   0.00000  Uiso   1.00
C476   C     0.49563   0.11580   0.74878   0.00000  Uiso   1.00
C477   C     0.49569   0.38423   0.74999   0.00000  Uiso   1.00
C478   C     0.51801   0.09039   0.71515   0.00000  Uiso   1.00
C479   C     0.51751   0.40967   0.78994   0.00000  Uiso   1.00
C480   C     0.51151   0.04439   0.71437   0.00000  Uiso   1.00
C481   C     0.51097   0.45566   0.78886   0.00000  Uiso   1.00
C482   C     0.48313   0.02406   0.74664   0.00000  Uiso   1.00
C483   C     0.48313   0.47597   0.74854   0.00000  Uiso   1.00
C484   C     0.47966   0.21368   0.54960   0.00000  Uiso   1.00
C485   C     0.53973   0.27184   0.95292   0.00000  Uiso   1.00
C486   C     0.47986   0.21443   0.59926   0.00000  Uiso   1.00
C487   C     0.53886   0.27156   0.90317   0.00000  Uiso   1.00
C488   C     0.52027   0.28550   0.60520   0.00000  Uiso   1.00
C489   C     0.46115   0.22848   0.89232   0.00000  Uiso   1.00
C490   C     0.52054   0.28623   0.55562   0.00000  Uiso   1.00
H491   H     0.65800   0.24997   0.69437   0.00000  Uiso   1.00
H492   H     0.56952   0.28851   0.88805   0.00000  Uiso   1.00
H493   H     0.53624   0.31355   0.62687   0.00000  Uiso   1.00
H494   H     0.43045   0.21153   0.86865   0.00000  Uiso   1.00
H495   H     0.53603   0.31540   0.54016   0.00000  Uiso   1.00
H496   H     0.42830   0.21146   0.95511   0.00000  Uiso   1.00
H497   H     0.39291   0.04164   0.80718   0.00000  Uiso   1.00
H498   H     0.44820   0.03616   0.84714   0.00000  Uiso   1.00
H499   H     0.39419   0.45832   0.66220   0.00000  Uiso   1.00
H500   H     0.45004   0.46386   0.63826   0.00000  Uiso   1.00
H501   H     0.58627   0.09688   0.68886   0.00000  Uiso   1.00
H502   H     0.34200   0.24993   0.80565   0.00000  Uiso   1.00
H503   H     0.53166   0.10307   0.64816   0.00000  Uiso   1.00
H504   H     0.53024   0.39704   0.86069   0.00000  Uiso   1.00
H505   H     0.58529   0.40326   0.83561   0.00000  Uiso   1.00
H506   H     0.44881   0.11504   0.80617   0.00000  Uiso   1.00
H507   H     0.44993   0.38500   0.67928   0.00000  Uiso   1.00
H508   H     0.52998   0.02433   0.68958   0.00000  Uiso   1.00
H509   H     0.52899   0.47575   0.81888   0.00000  Uiso   1.00
H510   H     0.46423   0.18449   0.52955   0.00000  Uiso   1.00
H511   H     0.57179   0.28857   0.97515   0.00000  Uiso   1.00
H512   H     0.46398   0.18635   0.61625   0.00000  Uiso   1.00
N513   N     0.50000   0.24999   0.62624   0.00000  Uiso   1.00
N514   N     0.50000   0.25001   0.87377   0.00000  Uiso   1.00
N515   N     0.43073   0.02809   0.81242   0.00000  Uiso   1.00
N516   N     0.43200   0.47190   0.66786   0.00000  Uiso   1.00
N517   N     0.54872   0.11094   0.68306   0.00000  Uiso   1.00
N518   N     0.54773   0.38917   0.83072   0.00000  Uiso   1.00
O519   O     0.50000   0.18454   0.78974   0.00000  Uiso   1.00
O520   O     0.50000   0.31547   0.71026   0.00000  Uiso   1.00
O521   O     0.50000   0.18453   0.71026   0.00000  Uiso   1.00
O522   O     0.50000   0.31547   0.78974   0.00000  Uiso   1.00
O523   O     0.42392   0.25000   0.78045   0.00000  Uiso   1.00
O524   O     0.57608   0.25000   0.71956   0.00000  Uiso   1.00
O525   O     0.42392   0.25000   0.70097   0.00000  Uiso   1.00
O526   O     0.57608   0.25000   0.79904   0.00000  Uiso   1.00
Zn527  Zn    0.50000   0.25001   0.80307   0.00000  Uiso   1.00
Zn528  Zn    0.50000   0.25000   0.69693   0.00000  Uiso   1.00
C529   C     0.83326   0.16380   0.74982   0.00000  Uiso   1.00
C530   C     0.79367   0.22818   0.94183   0.00000  Uiso   1.00
C531   C     0.83342   0.24997   0.52667   0.00000  Uiso   1.00
C532   C     0.83339   0.24999   0.97331   0.00000  Uiso   1.00
C533   C     0.73366   0.24997   0.73753   0.00000  Uiso   1.00
C534   C     0.93300   0.24999   0.76247   0.00000  Uiso   1.00
C535   C     0.67865   0.24996   0.73080   0.00000  Uiso   1.00
C536   C     0.98803   0.24995   0.76922   0.00000  Uiso   1.00
C537   C     0.79361   0.04928   0.77984   0.00000  Uiso   1.00
C538   C     0.79425   0.45073   0.70886   0.00000  Uiso   1.00
C539   C     0.80011   0.09532   0.78079   0.00000  Uiso   1.00
C540   C     0.83329   0.33621   0.75016   0.00000  Uiso   1.00
C541   C     0.80077   0.40471   0.70977   0.00000  Uiso   1.00
C542   C     0.82897   0.11580   0.74878   0.00000  Uiso   1.00
C543   C     0.82903   0.38423   0.74999   0.00000  Uiso   1.00
C544   C     0.85134   0.09039   0.71515   0.00000  Uiso   1.00
C545   C     0.85084   0.40967   0.78994   0.00000  Uiso   1.00
C546   C     0.84485   0.04439   0.71437   0.00000  Uiso   1.00
C547   C     0.84430   0.45566   0.78886   0.00000  Uiso   1.00
C548   C     0.81646   0.02406   0.74664   0.00000  Uiso   1.00
C549   C     0.81647   0.47597   0.74854   0.00000  Uiso   1.00
C550   C     0.81299   0.21368   0.54960   0.00000  Uiso   1.00
C551   C     0.87307   0.27184   0.95292   0.00000  Uiso   1.00
C552   C     0.81320   0.21443   0.59926   0.00000  Uiso   1.00
C553   C     0.87220   0.27156   0.90317   0.00000  Uiso   1.00
C554   C     0.85360   0.28550   0.60520   0.00000  Uiso   1.00
C555   C     0.79448   0.22848   0.89232   0.00000  Uiso   1.00
C556   C     0.85387   0.28623   0.55562   0.00000  Uiso   1.00
H557   H     0.99133   0.24997   0.69437   0.00000  Uiso   1.00
H558   H     0.90286   0.28851   0.88805   0.00000  Uiso   1.00
H559   H     0.86957   0.31355   0.62687   0.00000  Uiso   1.00
H560   H     0.76378   0.21153   0.86865   0.00000  Uiso   1.00
H561   H     0.86936   0.31540   0.54016   0.00000  Uiso   1.00
H562   H     0.76163   0.21146   0.95511   0.00000  Uiso   1.00
H563   H     0.72624   0.04164   0.80718   0.00000  Uiso   1.00
H564   H     0.78154   0.03616   0.84714   0.00000  Uiso   1.00
H565   H     0.72752   0.45832   0.66220   0.00000  Uiso   1.00
H566   H     0.78337   0.46386   0.63826   0.00000  Uiso   1.00
H567   H     0.91960   0.09688   0.68886   0.00000  Uiso   1.00
H568   H     0.67534   0.24993   0.80565   0.00000  Uiso   1.00
H569   H     0.86499   0.10307   0.64816   0.00000  Uiso   1.00
H570   H     0.86358   0.39704   0.86069   0.00000  Uiso   1.00
H571   H     0.91862   0.40326   0.83561   0.00000  Uiso   1.00
H572   H     0.78214   0.11504   0.80617   0.00000  Uiso   1.00
H573   H     0.78326   0.38500   0.67928   0.00000  Uiso   1.00
H574   H     0.86331   0.02433   0.68958   0.00000  Uiso   1.00
H575   H     0.86233   0.47575   0.81888   0.00000  Uiso   1.00
H576   H     0.79756   0.18449   0.52955   0.00000  Uiso   1.00
H577   H     0.90513   0.28857   0.97515   0.00000  Uiso   1.00
H578   H     0.79731   0.18635   0.61625   0.00000  Uiso   1.00
N579   N     0.83333   0.24999   0.62624   0.00000  Uiso   1.00
N580   N     0.83333   0.25001   0.87377   0.00000  Uiso   1.00
N581   N     0.76406   0.02809   0.81242   0.00000  Uiso   1.00
N582   N     0.76533   0.47190   0.66786   0.00000  Uiso   1.00
N583   N     0.88205   0.11094   0.68306   0.00000  Uiso   1.00
N584   N     0.88107   0.38917   0.83072   0.00000  Uiso   1.00
O585   O     0.83334   0.18454   0.78974   0.00000  Uiso   1.00
O586   O     0.83333   0.31547   0.71026   0.00000  Uiso   1.00
O587   O     0.83334   0.18453   0.71026   0.00000  Uiso   1.00
O588   O     0.83333   0.31547   0.78974   0.00000  Uiso   1.00
O589   O     0.75725   0.25000   0.78045   0.00000  Uiso   1.00
O590   O     0.90942   0.25000   0.71956   0.00000  Uiso   1.00
O591   O     0.75725   0.25000   0.70097   0.00000  Uiso   1.00
O592   O     0.90942   0.25000   0.79904   0.00000  Uiso   1.00
Zn593  Zn    0.83333   0.25001   0.80307   0.00000  Uiso   1.00
Zn594  Zn    0.83333   0.25000   0.69693   0.00000  Uiso   1.00
C595   C     0.16659   0.66380   0.74982   0.00000  Uiso   1.00
C596   C     0.12701   0.72818   0.94183   0.00000  Uiso   1.00
C597   C     0.16676   0.74997   0.52667   0.00000  Uiso   1.00
C598   C     0.16673   0.74999   0.97331   0.00000  Uiso   1.00
C599   C     0.06700   0.74997   0.73753   0.00000  Uiso   1.00
C600   C     0.26634   0.74999   0.76247   0.00000  Uiso   1.00
C601   C     0.01198   0.74996   0.73080   0.00000  Uiso   1.00
C602   C     0.32136   0.74995   0.76922   0.00000  Uiso   1.00
C603   C     0.12694   0.54928   0.77984   0.00000  Uiso   1.00
C604   C     0.12758   0.95073   0.70886   0.00000  Uiso   1.00
C605   C     0.13345   0.59532   0.78079   0.00000  Uiso   1.00
C606   C     0.16662   0.83621   0.75016   0.00000  Uiso   1.00
C607   C     0.13410   0.90471   0.70977   0.00000  Uiso   1.00
C608   C     0.16230   0.61580   0.74878   0.00000  Uiso   1.00
C609   C     0.16236   0.88423   0.74999   0.00000  Uiso   1.00
C610   C     0.18467   0.59039   0.71515   0.00000  Uiso   1.00
C611   C     0.18418   0.90967   0.78994   0.00000  Uiso   1.00
C612   C     0.17818   0.54439   0.71437   0.00000  Uiso   1.00
C613   C     0.17763   0.95566   0.78886   0.00000  Uiso   1.00
C614   C     0.14980   0.52406   0.74664   0.00000  Uiso   1.00
C615   C     0.14980   0.97597   0.74854   0.00000  Uiso   1.00
C616   C     0.14633   0.71368   0.54960   0.00000  Uiso   1.00
C617   C     0.20640   0.77184   0.95292   0.00000  Uiso   1.00
C618   C     0.14653   0.71443   0.59926   0.00000  Uiso   1.00
C619   C     0.20553   0.77156   0.90317   0.00000  Uiso   1.00
C620   C     0.18694   0.78550   0.60520   0.00000  Uiso   1.00
C621   C     0.12781   0.72848   0.89232   0.00000  Uiso   1.00
C622   C     0.18720   0.78623   0.55562   0.00000  Uiso   1.00
H623   H     0.32466   0.74997   0.69437   0.00000  Uiso   1.00
H624   H     0.23619   0.78851   0.88805   0.00000  Uiso   1.00
H625   H     0.20290   0.81355   0.62687   0.00000  Uiso   1.00
H626   H     0.09712   0.71153   0.86865   0.00000  Uiso   1.00
H627   H     0.20269   0.81540   0.54016   0.00000  Uiso   1.00
H628   H     0.09496   0.71146   0.95511   0.00000  Uiso   1.00
H629   H     0.05958   0.54164   0.80718   0.00000  Uiso   1.00
H630   H     0.11487   0.53616   0.84714   0.00000  Uiso   1.00
H631   H     0.06085   0.95832   0.66220   0.00000  Uiso   1.00
H632   H     0.11670   0.96386   0.63826   0.00000  Uiso   1.00
H633   H     0.25293   0.59688   0.68886   0.00000  Uiso   1.00
H634   H     0.00867   0.74993   0.80565   0.00000  Uiso   1.00
H635   H     0.19832   0.60307   0.64816   0.00000  Uiso   1.00
H636   H     0.19691   0.89704   0.86069   0.00000  Uiso   1.00
H637   H     0.25195   0.90326   0.83561   0.00000  Uiso   1.00
H638   H     0.11547   0.61504   0.80617   0.00000  Uiso   1.00
H639   H     0.11660   0.88500   0.67928   0.00000  Uiso   1.00
H640   H     0.19665   0.52433   0.68958   0.00000  Uiso   1.00
H641   H     0.19566   0.97575   0.81888   0.00000  Uiso   1.00
H642   H     0.13089   0.68449   0.52955   0.00000  Uiso   1.00
H643   H     0.23846   0.78857   0.97515   0.00000  Uiso   1.00
H644   H     0.13064   0.68635   0.61625   0.00000  Uiso   1.00
N645   N     0.16667   0.74999   0.62624   0.00000  Uiso   1.00
N646   N     0.16667   0.75001   0.87377   0.00000  Uiso   1.00
N647   N     0.09739   0.52809   0.81242   0.00000  Uiso   1.00
N648   N     0.09867   0.97190   0.66786   0.00000  Uiso   1.00
N649   N     0.21538   0.61094   0.68306   0.00000  Uiso   1.00
N650   N     0.21440   0.88917   0.83072   0.00000  Uiso   1.00
O651   O     0.16667   0.68454   0.78974   0.00000  Uiso   1.00
O652   O     0.16666   0.81547   0.71026   0.00000  Uiso   1.00
O653   O     0.16667   0.68453   0.71026   0.00000  Uiso   1.00
O654   O     0.16666   0.81547   0.78974   0.00000  Uiso   1.00
O655   O     0.09058   0.75000   0.78045   0.00000  Uiso   1.00
O656   O     0.24275   0.75000   0.71956   0.00000  Uiso   1.00
O657   O     0.09058   0.75000   0.70097   0.00000  Uiso   1.00
O658   O     0.24275   0.75000   0.79904   0.00000  Uiso   1.00
Zn659  Zn    0.16667   0.75001   0.80307   0.00000  Uiso   1.00
Zn660  Zn    0.16667   0.75000   0.69693   0.00000  Uiso   1.00
C661   C     0.49992   0.66380   0.74982   0.00000  Uiso   1.00
C662   C     0.46034   0.72818   0.94183   0.00000  Uiso   1.00
C663   C     0.50009   0.74997   0.52667   0.00000  Uiso   1.00
C664   C     0.50006   0.74999   0.97331   0.00000  Uiso   1.00
C665   C     0.40033   0.74997   0.73753   0.00000  Uiso   1.00
C666   C     0.59967   0.74999   0.76247   0.00000  Uiso   1.00
C667   C     0.34531   0.74996   0.73080   0.00000  Uiso   1.00
C668   C     0.65469   0.74995   0.76922   0.00000  Uiso   1.00
C669   C     0.46027   0.54928   0.77984   0.00000  Uiso   1.00
C670   C     0.46091   0.95073   0.70886   0.00000  Uiso   1.00
C671   C     0.46678   0.59532   0.78079   0.00000  Uiso   1.00
C672   C     0.49995   0.83621   0.75016   0.00000  Uiso   1.00
C673   C     0.46743   0.90471   0.70977   0.00000  Uiso   1.00
C674   C     0.49563   0.61580   0.74878   0.00000  Uiso   1.00
C675   C     0.49569   0.88423   0.74999   0.00000  Uiso   1.00
C676   C     0.51801   0.59039   0.71515   0.00000  Uiso   1.00
C677   C     0.51751   0.90967   0.78994   0.00000  Uiso   1.00
C678   C     0.51151   0.54439   0.71437   0.00000  Uiso   1.00
C679   C     0.51097   0.95566   0.78886   0.00000  Uiso   1.00
C680   C     0.48313   0.52406   0.74664   0.00000  Uiso   1.00
C681   C     0.48313   0.97597   0.74854   0.00000  Uiso   1.00
C682   C     0.47966   0.71368   0.54960   0.00000  Uiso   1.00
C683   C     0.53973   0.77184   0.95292   0.00000  Uiso   1.00
C684   C     0.47986   0.71443   0.59926   0.00000  Uiso   1.00
C685   C     0.53886   0.77156   0.90317   0.00000  Uiso   1.00
C686   C     0.52027   0.78550   0.60520   0.00000  Uiso   1.00
C687   C     0.46115   0.72848   0.89232   0.00000  Uiso   1.00
C688   C     0.52054   0.78623   0.55562   0.00000  Uiso   1.00
H689   H     0.65800   0.74997   0.69437   0.00000  Uiso   1.00
H690   H     0.56952   0.78851   0.88805   0.00000  Uiso   1.00
H691   H     0.53624   0.81355   0.62687   0.00000  Uiso   1.00
H692   H     0.43045   0.71153   0.86865   0.00000  Uiso   1.00
H693   H     0.53603   0.81540   0.54016   0.00000  Uiso   1.00
H694   H     0.42830   0.71146   0.95511   0.00000  Uiso   1.00
H695   H     0.39291   0.54164   0.80718   0.00000  Uiso   1.00
H696   H     0.44820   0.53616   0.84714   0.00000  Uiso   1.00
H697   H     0.39419   0.95832   0.66220   0.00000  Uiso   1.00
H698   H     0.45004   0.96386   0.63826   0.00000  Uiso   1.00
H699   H     0.58627   0.59688   0.68886   0.00000  Uiso   1.00
H700   H     0.34200   0.74993   0.80565   0.00000  Uiso   1.00
H701   H     0.53166   0.60307   0.64816   0.00000  Uiso   1.00
H702   H     0.53024   0.89704   0.86069   0.00000  Uiso   1.00
H703   H     0.58529   0.90326   0.83561   0.00000  Uiso   1.00
H704   H     0.44881   0.61504   0.80617   0.00000  Uiso   1.00
H705   H     0.44993   0.88500   0.67928   0.00000  Uiso   1.00
H706   H     0.52998   0.52433   0.68958   0.00000  Uiso   1.00
H707   H     0.52899   0.97575   0.81888   0.00000  Uiso   1.00
H708   H     0.46423   0.68449   0.52955   0.00000  Uiso   1.00
H709   H     0.57179   0.78857   0.97515   0.00000  Uiso   1.00
H710   H     0.46398   0.68635   0.61625   0.00000  Uiso   1.00
N711   N     0.50000   0.74999   0.62624   0.00000  Uiso   1.00
N712   N     0.50000   0.75001   0.87377   0.00000  Uiso   1.00
N713   N     0.43073   0.52809   0.81242   0.00000  Uiso   1.00
N714   N     0.43200   0.97190   0.66786   0.00000  Uiso   1.00
N715   N     0.54872   0.61094   0.68306   0.00000  Uiso   1.00
N716   N     0.54773   0.88917   0.83072   0.00000  Uiso   1.00
O717   O     0.50000   0.68454   0.78974   0.00000  Uiso   1.00
O718   O     0.50000   0.81547   0.71026   0.00000  Uiso   1.00
O719   O     0.50000   0.68453   0.71026   0.00000  Uiso   1.00
O720   O     0.50000   0.81547   0.78974   0.00000  Uiso   1.00
O721   O     0.42392   0.75000   0.78045   0.00000  Uiso   1.00
O722   O     0.57608   0.75000   0.71956   0.00000  Uiso   1.00
O723   O     0.42392   0.75000   0.70097   0.00000  Uiso   1.00
O724   O     0.57608   0.75000   0.79904   0.00000  Uiso   1.00
Zn725  Zn    0.50000   0.75001   0.80307   0.00000  Uiso   1.00
Zn726  Zn    0.50000   0.75000   0.69693   0.00000  Uiso   1.00
C727   C     0.83326   0.66380   0.74982   0.00000  Uiso   1.00
C728   C     0.79367   0.72818   0.94183   0.00000  Uiso   1.00
C729   C     0.83342   0.74997   0.52667   0.00000  Uiso   1.00
C730   C     0.83339   0.74999   0.97331   0.00000  Uiso   1.00
C731   C     0.73366   0.74997   0.73753   0.00000  Uiso   1.00
C732   C     0.93300   0.74999   0.76247   0.00000  Uiso   1.00
C733   C     0.67865   0.74996   0.73080   0.00000  Uiso   1.00
C734   C     0.98803   0.74995   0.76922   0.00000  Uiso   1.00
C735   C     0.79361   0.54928   0.77984   0.00000  Uiso   1.00
C736   C     0.79425   0.95073   0.70886   0.00000  Uiso   1.00
C737   C     0.80011   0.59532   0.78079   0.00000  Uiso   1.00
C738   C     0.83329   0.83621   0.75016   0.00000  Uiso   1.00
C739   C     0.80077   0.90471   0.70977   0.00000  Uiso   1.00
C740   C     0.82897   0.61580   0.74878   0.00000  Uiso   1.00
C741   C     0.82903   0.88423   0.74999   0.00000  Uiso   1.00
C742   C     0.85134   0.59039   0.71515   0.00000  Uiso   1.00
C743   C     0.85084   0.90967   0.78994   0.00000  Uiso   1.00
C744   C     0.84485   0.54439   0.71437   0.00000  Uiso   1.00
C745   C     0.84430   0.95566   0.78886   0.00000  Uiso   1.00
C746   C     0.81646   0.52406   0.74664   0.00000  Uiso   1.00
C747   C     0.81647   0.97597   0.74854   0.00000  Uiso   1.00
C748   C     0.81299   0.71368   0.54960   0.00000  Uiso   1.00
C749   C     0.87307   0.77184   0.95292   0.00000  Uiso   1.00
C750   C     0.81320   0.71443   0.59926   0.00000  Uiso   1.00
C751   C     0.87220   0.77156   0.90317   0.00000  Uiso   1.00
C752   C     0.85360   0.78550   0.60520   0.00000  Uiso   1.00
C753   C     0.79448   0.72848   0.89232   0.00000  Uiso   1.00
C754   C     0.85387   0.78623   0.55562   0.00000  Uiso   1.00
H755   H     0.99133   0.74997   0.69437   0.00000  Uiso   1.00
H756   H     0.90286   0.78851   0.88805   0.00000  Uiso   1.00
H757   H     0.86957   0.81355   0.62687   0.00000  Uiso   1.00
H758   H     0.76378   0.71153   0.86865   0.00000  Uiso   1.00
H759   H     0.86936   0.81540   0.54016   0.00000  Uiso   1.00
H760   H     0.76163   0.71146   0.95511   0.00000  Uiso   1.00
H761   H     0.72624   0.54164   0.80718   0.00000  Uiso   1.00
H762   H     0.78154   0.53616   0.84714   0.00000  Uiso   1.00
H763   H     0.72752   0.95832   0.66220   0.00000  Uiso   1.00
H764   H     0.78337   0.96386   0.63826   0.00000  Uiso   1.00
H765   H     0.91960   0.59688   0.68886   0.00000  Uiso   1.00
H766   H     0.67534   0.74993   0.80565   0.00000  Uiso   1.00
H767   H     0.86499   0.60307   0.64816   0.00000  Uiso   1.00
H768   H     0.86358   0.89704   0.86069   0.00000  Uiso   1.00
H769   H     0.91862   0.90326   0.83561   0.00000  Uiso   1.00
H770   H     0.78214   0.61504   0.80617   0.00000  Uiso   1.00
H771   H     0.78326   0.88500   0.67928   0.00000  Uiso   1.00
H772   H     0.86331   0.52433   0.68958   0.00000  Uiso   1.00
H773   H     0.86233   0.97575   0.81888   0.00000  Uiso   1.00
H774   H     0.79756   0.68449   0.52955   0.00000  Uiso   1.00
H775   H     0.90513   0.78857   0.97515   0.00000  Uiso   1.00
H776   H     0.79731   0.68635   0.61625   0.00000  Uiso   1.00
N777   N     0.83333   0.74999   0.62624   0.00000  Uiso   1.00
N778   N     0.83333   0.75001   0.87377   0.00000  Uiso   1.00
N779   N     0.76406   0.52809   0.81242   0.00000  Uiso   1.00
N780   N     0.76533   0.97190   0.66786   0.00000  Uiso   1.00
N781   N     0.88205   0.61094   0.68306   0.00000  Uiso   1.00
N782   N     0.88107   0.88917   0.83072   0.00000  Uiso   1.00
O783   O     0.83334   0.68454   0.78974   0.00000  Uiso   1.00
O784   O     0.83333   0.81547   0.71026   0.00000  Uiso   1.00
O785   O     0.83334   0.68453   0.71026   0.00000  Uiso   1.00
O786   O     0.83333   0.81547   0.78974   0.00000  Uiso   1.00
O787   O     0.75725   0.75000   0.78045   0.00000  Uiso   1.00
O788   O     0.90942   0.75000   0.71956   0.00000  Uiso   1.00
O789   O     0.75725   0.75000   0.70097   0.00000  Uiso   1.00
O790   O     0.90942   0.75000   0.79904   0.00000  Uiso   1.00
Zn791  Zn    0.83333   0.75001   0.80307   0.00000  Uiso   1.00
Zn792  Zn    0.83333   0.75000   0.69693   0.00000  Uiso   1.00
loop_
_geom_bond_atom_site_label_1
_geom_bond_atom_site_label_2
_geom_bond_distance
_geom_bond_site_symmetry_2
_ccdc_geom_bond_type
C1     O57     1.287   .     A
C1     O59     1.284   .     A
C1     C14     1.440   .     S
C2     C27     1.406   .     A
C2     H34     1.082   .     S
C2     C4      1.410   .     A
C3     C28     1.410   .     A
C3     C22     1.410   .     A
C3     C400    1.512   1_554 S
C4     C23     1.411   .     A
C4     C399    1.512   .     S
C5     C7      1.402   .     S
C5     O61     1.275   .     A
C5     O63     1.278   .     A
C6     O62     1.275   .     A
C6     O64     1.278   .     A
C6     C8      1.402   .     S
C7     C140    1.330   1_455 S
C7     H161    1.088   1_455 S
C8     C73     1.330   .     S
C8     H106    1.088   .     S
C9     C20     1.400   .     A
C9     C11     1.387   .     A
C9     N53     1.433   .     S
C10    C13     1.387   .     A
C10    C21     1.400   .     A
C10    N54     1.433   .     S
C11    C14     1.401   .     A
C11    H44     1.084   .     S
C12    C15     1.441   .     S
C12    O58     1.287   .     A
C12    O60     1.285   .     A
C13    H45     1.084   .     S
C13    C15     1.401   .     A
C14    C16     1.406   .     A
C15    C17     1.406   .     A
C16    N55     1.434   .     S
C16    C18     1.386   .     A
C17    N56     1.434   .     S
C17    C19     1.386   .     A
C18    H46     1.085   .     S
C18    C20     1.396   .     A
C19    H47     1.085   .     S
C19    C21     1.396   .     A
C20    C219    1.440   1_545 S
C21    C218    1.440   .     S
C22    H48     1.082   .     S
C22    C24     1.407   .     A
C23    H49     1.082   .     S
C23    C25     1.407   .     A
C24    N51     1.363   .     A
C24    H50     1.081   .     S
C25    N52     1.363   .     A
C25    H30     1.082   .     S
C26    C28     1.407   .     A
C26    H31     1.081   .     S
C26    N51     1.363   .     A
C27    H32     1.082   .     S
C27    N52     1.363   .     A
C28    H33     1.082   .     S
H29    C73     1.088   .     S
H35    N53     1.046   .     S
H36    N53     1.046   .     S
H37    N54     1.046   .     S
H38    N54     1.046   .     S
H39    N55     1.046   .     S
H40    C140    1.088   1_455 S
H41    N55     1.046   .     S
H42    N56     1.046   .     S
H43    N56     1.046   .     S
N51    Zn66    2.004   .     S
N52    Zn65    2.004   .     S
O57    Zn65    1.993   .     S
O58    Zn66    1.993   .     S
O59    Zn66    1.997   .     S
O60    Zn65    1.997   .     S
O61    Zn65    1.969   .     S
O62    Zn66    1.969   .     S
O63    Zn66    1.982   .     S
O64    Zn65    1.982   .     S
C67    O123    1.287   .     A
C67    O125    1.284   .     A
C67    C80     1.440   .     S
C68    C93     1.406   .     A
C68    H100    1.082   .     S
C68    C70     1.410   .     A
C69    C94     1.410   .     A
C69    C88     1.410   .     A
C69    C466    1.512   1_554 S
C70    C89     1.411   .     A
C70    C465    1.512   .     S
C71    C73     1.402   .     S
C71    O127    1.275   .     A
C71    O129    1.278   .     A
C72    O128    1.275   .     A
C72    O130    1.278   .     A
C72    C74     1.402   .     S
C74    C139    1.330   .     S
C74    H172    1.088   .     S
C75    C86     1.400   .     A
C75    C77     1.387   .     A
C75    N119    1.433   .     S
C76    C79     1.387   .     A
C76    C87     1.400   .     A
C76    N120    1.433   .     S
C77    C80     1.401   .     A
C77    H110    1.084   .     S
C78    C81     1.441   .     S
C78    O124    1.287   .     A
C78    O126    1.285   .     A
C79    H111    1.084   .     S
C79    C81     1.401   .     A
C80    C82     1.406   .     A
C81    C83     1.406   .     A
C82    N121    1.434   .     S
C82    C84     1.386   .     A
C83    N122    1.434   .     S
C83    C85     1.386   .     A
C84    H112    1.085   .     S
C84    C86     1.396   .     A
C85    H113    1.085   .     S
C85    C87     1.396   .     A
C86    C285    1.440   1_545 S
C87    C284    1.440   .     S
C88    H114    1.082   .     S
C88    C90     1.407   .     A
C89    H115    1.082   .     S
C89    C91     1.407   .     A
C90    N117    1.363   .     A
C90    H116    1.081   .     S
C91    N118    1.363   .     A
C91    H96     1.082   .     S
C92    C94     1.407   .     A
C92    H97     1.081   .     S
C92    N117    1.363   .     A
C93    H98     1.082   .     S
C93    N118    1.363   .     A
C94    H99     1.082   .     S
H95    C139    1.088   .     S
H101   N119    1.046   .     S
H102   N119    1.046   .     S
H103   N120    1.046   .     S
H104   N120    1.046   .     S
H105   N121    1.046   .     S
H107   N121    1.046   .     S
H108   N122    1.046   .     S
H109   N122    1.046   .     S
N117   Zn132   2.004   .     S
N118   Zn131   2.004   .     S
O123   Zn131   1.993   .     S
O124   Zn132   1.993   .     S
O125   Zn132   1.997   .     S
O126   Zn131   1.997   .     S
O127   Zn131   1.969   .     S
O128   Zn132   1.969   .     S
O129   Zn132   1.982   .     S
O130   Zn131   1.982   .     S
C133   O189    1.287   .     A
C133   O191    1.284   .     A
C133   C146    1.440   .     S
C134   C159    1.406   .     A
C134   H166    1.082   .     S
C134   C136    1.410   .     A
C135   C160    1.410   .     A
C135   C154    1.410   .     A
C135   C532    1.512   1_554 S
C136   C155    1.411   .     A
C136   C531    1.512   .     S
C137   C139    1.402   .     S
C137   O193    1.275   .     A
C137   O195    1.278   .     A
C138   O194    1.275   .     A
C138   O196    1.278   .     A
C138   C140    1.402   .     S
C140   C7      1.330   1_655 S
C140   H40     1.088   1_655 S
C141   C152    1.400   .     A
C141   C143    1.387   .     A
C141   N185    1.433   .     S
C142   C145    1.387   .     A
C142   C153    1.400   .     A
C142   N186    1.433   .     S
C143   C146    1.401   .     A
C143   H176    1.084   .     S
C144   C147    1.441   .     S
C144   O190    1.287   .     A
C144   O192    1.285   .     A
C145   H177    1.084   .     S
C145   C147    1.401   .     A
C146   C148    1.406   .     A
C147   C149    1.406   .     A
C148   N187    1.434   .     S
C148   C150    1.386   .     A
C149   N188    1.434   .     S
C149   C151    1.386   .     A
C150   H178    1.085   .     S
C150   C152    1.396   .     A
C151   H179    1.085   .     S
C151   C153    1.396   .     A
C152   C351    1.440   1_545 S
C153   C350    1.440   .     S
C154   H180    1.082   .     S
C154   C156    1.407   .     A
C155   H181    1.082   .     S
C155   C157    1.407   .     A
C156   N183    1.363   .     A
C156   H182    1.081   .     S
C157   N184    1.363   .     A
C157   H162    1.082   .     S
C158   C160    1.407   .     A
C158   H163    1.081   .     S
C158   N183    1.363   .     A
C159   H164    1.082   .     S
C159   N184    1.363   .     A
C160   H165    1.082   .     S
H161   C7      1.088   1_655 S
H167   N185    1.046   .     S
H168   N185    1.046   .     S
H169   N186    1.046   .     S
H170   N186    1.046   .     S
H171   N187    1.046   .     S
H173   N187    1.046   .     S
H174   N188    1.046   .     S
H175   N188    1.046   .     S
N183   Zn198   2.004   .     S
N184   Zn197   2.004   .     S
O189   Zn197   1.993   .     S
O190   Zn198   1.993   .     S
O191   Zn198   1.997   .     S
O192   Zn197   1.997   .     S
O193   Zn197   1.969   .     S
O194   Zn198   1.969   .     S
O195   Zn198   1.982   .     S
O196   Zn197   1.982   .     S
C199   O255    1.287   .     A
C199   O257    1.284   .     A
C199   C212    1.440   .     S
C200   C225    1.406   .     A
C200   H232    1.082   .     S
C200   C202    1.410   .     A
C201   C226    1.410   .     A
C201   C220    1.410   .     A
C201   C598    1.512   1_554 S
C202   C221    1.411   .     A
C202   C597    1.512   .     S
C203   C205    1.402   .     S
C203   O259    1.275   .     A
C203   O261    1.278   .     A
C204   O260    1.275   .     A
C204   O262    1.278   .     A
C204   C206    1.402   .     S
C205   C338    1.330   1_455 S
C205   H359    1.088   1_455 S
C206   C271    1.330   .     S
C206   H304    1.088   .     S
C207   C218    1.400   .     A
C207   C209    1.387   .     A
C207   N251    1.433   .     S
C208   C211    1.387   .     A
C208   C219    1.400   .     A
C208   N252    1.433   .     S
C209   C212    1.401   .     A
C209   H242    1.084   .     S
C210   C213    1.441   .     S
C210   O256    1.287   .     A
C210   O258    1.285   .     A
C211   H243    1.084   .     S
C211   C213    1.401   .     A
C212   C214    1.406   .     A
C213   C215    1.406   .     A
C214   N253    1.434   .     S
C214   C216    1.386   .     A
C215   N254    1.434   .     S
C215   C217    1.386   .     A
C216   H244    1.085   .     S
C216   C218    1.396   .     A
C217   H245    1.085   .     S
C217   C219    1.396   .     A
C219   C20     1.440   1_565 S
C220   H246    1.082   .     S
C220   C222    1.407   .     A
C221   H247    1.082   .     S
C221   C223    1.407   .     A
C222   N249    1.363   .     A
C222   H248    1.081   .     S
C223   N250    1.363   .     A
C223   H228    1.082   .     S
C224   C226    1.407   .     A
C224   H229    1.081   .     S
C224   N249    1.363   .     A
C225   H230    1.082   .     S
C225   N250    1.363   .     A
C226   H231    1.082   .     S
H227   C271    1.088   .     S
H233   N251    1.046   .     S
H234   N251    1.046   .     S
H235   N252    1.046   .     S
H236   N252    1.046   .     S
H237   N253    1.046   .     S
H238   C338    1.088   1_455 S
H239   N253    1.046   .     S
H240   N254    1.046   .     S
H241   N254    1.046   .     S
N249   Zn264   2.004   .     S
N250   Zn263   2.004   .     S
O255   Zn263   1.993   .     S
O256   Zn264   1.993   .     S
O257   Zn264   1.997   .     S
O258   Zn263   1.997   .     S
O259   Zn263   1.969   .     S
O260   Zn264   1.969   .     S
O261   Zn264   1.982   .     S
O262   Zn263   1.982   .     S
C265   O321    1.287   .     A
C265   O323    1.284   .     A
C265   C278    1.440   .     S
C266   C291    1.406   .     A
C266   H298    1.082   .     S
C266   C268    1.410   .     A
C267   C292    1.410   .     A
C267   C286    1.410   .     A
C267   C664    1.512   1_554 S
C268   C287    1.411   .     A
C268   C663    1.512   .     S
C269   C271    1.402   .     S
C269   O325    1.275   .     A
C269   O327    1.278   .     A
C270   O326    1.275   .     A
C270   O328    1.278   .     A
C270   C272    1.402   .     S
C272   C337    1.330   .     S
C272   H370    1.088   .     S
C273   C284    1.400   .     A
C273   C275    1.387   .     A
C273   N317    1.433   .     S
C274   C277    1.387   .     A
C274   C285    1.400   .     A
C274   N318    1.433   .     S
C275   C278    1.401   .     A
C275   H308    1.084   .     S
C276   C279    1.441   .     S
C276   O322    1.287   .     A
C276   O324    1.285   .     A
C277   H309    1.084   .     S
C277   C279    1.401   .     A
C278   C280    1.406   .     A
C279   C281    1.406   .     A
C280   N319    1.434   .     S
C280   C282    1.386   .     A
C281   N320    1.434   .     S
C281   C283    1.386   .     A
C282   H310    1.085   .     S
C282   C284    1.396   .     A
C283   H311    1.085   .     S
C283   C285    1.396   .     A
C285   C86     1.440   1_565 S
C286   H312    1.082   .     S
C286   C288    1.407   .     A
C287   H313    1.082   .     S
C287   C289    1.407   .     A
C288   N315    1.363   .     A
C288   H314    1.081   .     S
C289   N316    1.363   .     A
C289   H294    1.082   .     S
C290   C292    1.407   .     A
C290   H295    1.081   .     S
C290   N315    1.363   .     A
C291   H296    1.082   .     S
C291   N316    1.363   .     A
C292   H297    1.082   .     S
H293   C337    1.088   .     S
H299   N317    1.046   .     S
H300   N317    1.046   .     S
H301   N318    1.046   .     S
H302   N318    1.046   .     S
H303   N319    1.046   .     S
H305   N319    1.046   .     S
H306   N320    1.046   .     S
H307   N320    1.046   .     S
N315   Zn330   2.004   .     S
N316   Zn329   2.004   .     S
O321   Zn329   1.993   .     S
O322   Zn330   1.993   .     S
O323   Zn330   1.997   .     S
O324   Zn329   1.997   .     S
O325   Zn329   1.969   .     S
O326   Zn330   1.969   .     S
O327   Zn330   1.982   .     S
O328   Zn329   1.982   .     S
C331   O387    1.287   .     A
C331   O389    1.284   .     A
C331   C344    1.440   .     S
C332   C357    1.406   .     A
C332   H364    1.082   .     S
C332   C334    1.410   .     A
C333   C358    1.410   .     A
C333   C352    1.410   .     A
C333   C730    1.512   1_554 S
C334   C353    1.411   .     A
C334   C729    1.512   .     S
C335   C337    1.402   .     S
C335   O391    1.275   .     A
C335   O393    1.278   .     A
C336   O392    1.275   .     A
C336   O394    1.278   .     A
C336   C338    1.402   .     S
C338   C205    1.330   1_655 S
C338   H238    1.088   1_655 S
C339   C350    1.400   .     A
C339   C341    1.387   .     A
C339   N383    1.433   .     S
C340   C343    1.387   .     A
C340   C351    1.400   .     A
C340   N384    1.433   .     S
C341   C344    1.401   .     A
C341   H374    1.084   .     S
C342   C345    1.441   .     S
C342   O388    1.287   .     A
C342   O390    1.285   .     A
C343   H375    1.084   .     S
C343   C345    1.401   .     A
C344   C346    1.406   .     A
C345   C347    1.406   .     A
C346   N385    1.434   .     S
C346   C348    1.386   .     A
C347   N386    1.434   .     S
C347   C349    1.386   .     A
C348   H376    1.085   .     S
C348   C350    1.396   .     A
C349   H377    1.085   .     S
C349   C351    1.396   .     A
C351   C152    1.440   1_565 S
C352   H378    1.082   .     S
C352   C354    1.407   .     A
C353   H379    1.082   .     S
C353   C355    1.407   .     A
C354   N381    1.363   .     A
C354   H380    1.081   .     S
C355   N382    1.363   .     A
C355   H360    1.082   .     S
C356   C358    1.407   .     A
C356   H361    1.081   .     S
C356   N381    1.363   .     A
C357   H362    1.082   .     S
C357   N382    1.363   .     A
C358   H363    1.082   .     S
H359   C205    1.088   1_655 S
H365   N383    1.046   .     S
H366   N383    1.046   .     S
H367   N384    1.046   .     S
H368   N384    1.046   .     S
H369   N385    1.046   .     S
H371   N385    1.046   .     S
H372   N386    1.046   .     S
H373   N386    1.046   .     S
N381   Zn396   2.004   .     S
N382   Zn395   2.004   .     S
O387   Zn395   1.993   .     S
O388   Zn396   1.993   .     S
O389   Zn396   1.997   .     S
O390   Zn395   1.997   .     S
O391   Zn395   1.969   .     S
O392   Zn396   1.969   .     S
O393   Zn396   1.982   .     S
O394   Zn395   1.982   .     S
C397   O453    1.287   .     A
C397   O455    1.284   .     A
C397   C410    1.440   .     S
C398   C423    1.406   .     A
C398   H430    1.082   .     S
C398   C400    1.410   .     A
C399   C424    1.410   .     A
C399   C418    1.410   .     A
C400   C419    1.411   .     A
C400   C3      1.512   1_556 S
C401   C403    1.402   .     S
C401   O457    1.275   .     A
C401   O459    1.278   .     A
C402   O458    1.275   .     A
C402   O460    1.278   .     A
C402   C404    1.402   .     S
C403   C536    1.330   1_455 S
C403   H557    1.088   1_455 S
C404   C469    1.330   .     S
C404   H502    1.088   .     S
C405   C416    1.400   .     A
C405   C407    1.387   .     A
C405   N449    1.433   .     S
C406   C409    1.387   .     A
C406   C417    1.400   .     A
C406   N450    1.433   .     S
C407   C410    1.401   .     A
C407   H440    1.084   .     S
C408   C411    1.441   .     S
C408   O454    1.287   .     A
C408   O456    1.285   .     A
C409   H441    1.084   .     S
C409   C411    1.401   .     A
C410   C412    1.406   .     A
C411   C413    1.406   .     A
C412   N451    1.434   .     S
C412   C414    1.386   .     A
C413   N452    1.434   .     S
C413   C415    1.386   .     A
C414   H442    1.085   .     S
C414   C416    1.396   .     A
C415   H443    1.085   .     S
C415   C417    1.396   .     A
C416   C615    1.440   1_545 S
C417   C614    1.440   .     S
C418   H444    1.082   .     S
C418   C420    1.407   .     A
C419   H445    1.082   .     S
C419   C421    1.407   .     A
C420   N447    1.363   .     A
C420   H446    1.081   .     S
C421   N448    1.363   .     A
C421   H426    1.082   .     S
C422   C424    1.407   .     A
C422   H427    1.081   .     S
C422   N447    1.363   .     A
C423   H428    1.082   .     S
C423   N448    1.363   .     A
C424   H429    1.082   .     S
H425   C469    1.088   .     S
H431   N449    1.046   .     S
H432   N449    1.046   .     S
H433   N450    1.046   .     S
H434   N450    1.046   .     S
H435   N451    1.046   .     S
H436   C536    1.088   1_455 S
H437   N451    1.046   .     S
H438   N452    1.046   .     S
H439   N452    1.046   .     S
N447   Zn462   2.004   .     S
N448   Zn461   2.004   .     S
O453   Zn461   1.993   .     S
O454   Zn462   1.993   .     S
O455   Zn462   1.997   .     S
O456   Zn461   1.997   .     S
O457   Zn461   1.969   .     S
O458   Zn462   1.969   .     S
O459   Zn462   1.982   .     S
O460   Zn461   1.982   .     S
C463   O519    1.287   .     A
C463   O521    1.284   .     A
C463   C476    1.440   .     S
C464   C489    1.406   .     A
C464   H496    1.082   .     S
C464   C466    1.410   .     A
C465   C490    1.410   .     A
C465   C484    1.410   .     A
C466   C485    1.411   .     A
C466   C69     1.512   1_556 S
C467   C469    1.402   .     S
C467   O523    1.275   .     A
C467   O525    1.278   .     A
C468   O524    1.275   .     A
C468   O526    1.278   .     A
C468   C470    1.402   .     S
C470   C535    1.330   .     S
C470   H568    1.088   .     S
C471   C482    1.400   .     A
C471   C473    1.387   .     A
C471   N515    1.433   .     S
C472   C475    1.387   .     A
C472   C483    1.400   .     A
C472   N516    1.433   .     S
C473   C476    1.401   .     A
C473   H506    1.084   .     S
C474   C477    1.441   .     S
C474   O520    1.287   .     A
C474   O522    1.285   .     A
C475   H507    1.084   .     S
C475   C477    1.401   .     A
C476   C478    1.406   .     A
C477   C479    1.406   .     A
C478   N517    1.434   .     S
C478   C480    1.386   .     A
C479   N518    1.434   .     S
C479   C481    1.386   .     A
C480   H508    1.085   .     S
C480   C482    1.396   .     A
C481   H509    1.085   .     S
C481   C483    1.396   .     A
C482   C681    1.440   1_545 S
C483   C680    1.440   .     S
C484   H510    1.082   .     S
C484   C486    1.407   .     A
C485   H511    1.082   .     S
C485   C487    1.407   .     A
C486   N513    1.363   .     A
C486   H512    1.081   .     S
C487   N514    1.363   .     A
C487   H492    1.082   .     S
C488   C490    1.407   .     A
C488   H493    1.081   .     S
C488   N513    1.363   .     A
C489   H494    1.082   .     S
C489   N514    1.363   .     A
C490   H495    1.082   .     S
H491   C535    1.088   .     S
H497   N515    1.046   .     S
H498   N515    1.046   .     S
H499   N516    1.046   .     S
H500   N516    1.046   .     S
H501   N517    1.046   .     S
H503   N517    1.046   .     S
H504   N518    1.046   .     S
H505   N518    1.046   .     S
N513   Zn528   2.004   .     S
N514   Zn527   2.004   .     S
O519   Zn527   1.993   .     S
O520   Zn528   1.993   .     S
O521   Zn528   1.997   .     S
O522   Zn527   1.997   .     S
O523   Zn527   1.969   .     S
O524   Zn528   1.969   .     S
O525   Zn528   1.982   .     S
O526   Zn527   1.982   .     S
C529   O585    1.287   .     A
C529   O587    1.284   .     A
C529   C542    1.440   .     S
C530   C555    1.406   .     A
C530   H562    1.082   .     S
C530   C532    1.410   .     A
C531   C556    1.410   .     A
C531   C550    1.410   .     A
C532   C551    1.411   .     A
C532   C135    1.512   1_556 S
C533   C535    1.402   .     S
C533   O589    1.275   .     A
C533   O591    1.278   .     A
C534   O590    1.275   .     A
C534   O592    1.278   .     A
C534   C536    1.402   .     S
C536   C403    1.330   1_655 S
C536   H436    1.088   1_655 S
C537   C548    1.400   .     A
C537   C539    1.387   .     A
C537   N581    1.433   .     S
C538   C541    1.387   .     A
C538   C549    1.400   .     A
C538   N582    1.433   .     S
C539   C542    1.401   .     A
C539   H572    1.084   .     S
C540   C543    1.441   .     S
C540   O586    1.287   .     A
C540   O588    1.285   .     A
C541   H573    1.084   .     S
C541   C543    1.401   .     A
C542   C544    1.406   .     A
C543   C545    1.406   .     A
C544   N583    1.434   .     S
C544   C546    1.386   .     A
C545   N584    1.434   .     S
C545   C547    1.386   .     A
C546   H574    1.085   .     S
C546   C548    1.396   .     A
C547   H575    1.085   .     S
C547   C549    1.396   .     A
C548   C747    1.440   1_545 S
C549   C746    1.440   .     S
C550   H576    1.082   .     S
C550   C552    1.407   .     A
C551   H577    1.082   .     S
C551   C553    1.407   .     A
C552   N579    1.363   .     A
C552   H578    1.081   .     S
C553   N580    1.363   .     A
C553   H558    1.082   .     S
C554   C556    1.407   .     A
C554   H559    1.081   .     S
C554   N579    1.363   .     A
C555   H560    1.082   .     S
C555   N580    1.363   .     A
C556   H561    1.082   .     S
H557   C403    1.088   1_655 S
H563   N581    1.046   .     S
H564   N581    1.046   .     S
H565   N582    1.046   .     S
H566   N582    1.046   .     S
H567   N583    1.046   .     S
H569   N583    1.046   .     S
H570   N584    1.046   .     S
H571   N584    1.046   .     S
N579   Zn594   2.004   .     S
N580   Zn593   2.004   .     S
O585   Zn593   1.993   .     S
O586   Zn594   1.993   .     S
O587   Zn594   1.997   .     S
O588   Zn593   1.997   .     S
O589   Zn593   1.969   .     S
O590   Zn594   1.969   .     S
O591   Zn594   1.982   .     S
O592   Zn593   1.982   .     S
C595   O651    1.287   .     A
C595   O653    1.284   .     A
C595   C608    1.440   .     S
C596   C621    1.406   .     A
C596   H628    1.082   .     S
C596   C598    1.410   .     A
C597   C622    1.410   .     A
C597   C616    1.410   .     A
C598   C617    1.411   .     A
C598   C201    1.512   1_556 S
C599   C601    1.402   .     S
C599   O655    1.275   .     A
C599   O657    1.278   .     A
C600   O656    1.275   .     A
C600   O658    1.278   .     A
C600   C602    1.402   .     S
C601   C734    1.330   1_455 S
C601   H755    1.088   1_455 S
C602   C667    1.330   .     S
C602   H700    1.088   .     S
C603   C614    1.400   .     A
C603   C605    1.387   .     A
C603   N647    1.433   .     S
C604   C607    1.387   .     A
C604   C615    1.400   .     A
C604   N648    1.433   .     S
C605   C608    1.401   .     A
C605   H638    1.084   .     S
C606   C609    1.441   .     S
C606   O652    1.287   .     A
C606   O654    1.285   .     A
C607   H639    1.084   .     S
C607   C609    1.401   .     A
C608   C610    1.406   .     A
C609   C611    1.406   .     A
C610   N649    1.434   .     S
C610   C612    1.386   .     A
C611   N650    1.434   .     S
C611   C613    1.386   .     A
C612   H640    1.085   .     S
C612   C614    1.396   .     A
C613   H641    1.085   .     S
C613   C615    1.396   .     A
C615   C416    1.440   1_565 S
C616   H642    1.082   .     S
C616   C618    1.407   .     A
C617   H643    1.082   .     S
C617   C619    1.407   .     A
C618   N645    1.363   .     A
C618   H644    1.081   .     S
C619   N646    1.363   .     A
C619   H624    1.082   .     S
C620   C622    1.407   .     A
C620   H625    1.081   .     S
C620   N645    1.363   .     A
C621   H626    1.082   .     S
C621   N646    1.363   .     A
C622   H627    1.082   .     S
H623   C667    1.088   .     S
H629   N647    1.046   .     S
H630   N647    1.046   .     S
H631   N648    1.046   .     S
H632   N648    1.046   .     S
H633   N649    1.046   .     S
H634   C734    1.088   1_455 S
H635   N649    1.046   .     S
H636   N650    1.046   .     S
H637   N650    1.046   .     S
N645   Zn660   2.004   .     S
N646   Zn659   2.004   .     S
O651   Zn659   1.993   .     S
O652   Zn660   1.993   .     S
O653   Zn660   1.997   .     S
O654   Zn659   1.997   .     S
O655   Zn659   1.969   .     S
O656   Zn660   1.969   .     S
O657   Zn660   1.982   .     S
O658   Zn659   1.982   .     S
C661   O717    1.287   .     A
C661   O719    1.284   .     A
C661   C674    1.440   .     S
C662   C687    1.406   .     A
C662   H694    1.082   .     S
C662   C664    1.410   .     A
C663   C688    1.410   .     A
C663   C682    1.410   .     A
C664   C683    1.411   .     A
C664   C267    1.512   1_556 S
C665   C667    1.402   .     S
C665   O721    1.275   .     A
C665   O723    1.278   .     A
C666   O722    1.275   .     A
C666   O724    1.278   .     A
C666   C668    1.402   .     S
C668   C733    1.330   .     S
C668   H766    1.088   .     S
C669   C680    1.400   .     A
C669   C671    1.387   .     A
C669   N713    1.433   .     S
C670   C673    1.387   .     A
C670   C681    1.400   .     A
C670   N714    1.433   .     S
C671   C674    1.401   .     A
C671   H704    1.084   .     S
C672   C675    1.441   .     S
C672   O718    1.287   .     A
C672   O720    1.285   .     A
C673   H705    1.084   .     S
C673   C675    1.401   .     A
C674   C676    1.406   .     A
C675   C677    1.406   .     A
C676   N715    1.434   .     S
C676   C678    1.386   .     A
C677   N716    1.434   .     S
C677   C679    1.386   .     A
C678   H706    1.085   .     S
C678   C680    1.396   .     A
C679   H707    1.085   .     S
C679   C681    1.396   .     A
C681   C482    1.440   1_565 S
C682   H708    1.082   .     S
C682   C684    1.407   .     A
C683   H709    1.082   .     S
C683   C685    1.407   .     A
C684   N711    1.363   .     A
C684   H710    1.081   .     S
C685   N712    1.363   .     A
C685   H690    1.082   .     S
C686   C688    1.407   .     A
C686   H691    1.081   .     S
C686   N711    1.363   .     A
C687   H692    1.082   .     S
C687   N712    1.363   .     A
C688   H693    1.082   .     S
H689   C733    1.088   .     S
H695   N713    1.046   .     S
H696   N713    1.046   .     S
H697   N714    1.046   .     S
H698   N714    1.046   .     S
H699   N715    1.046   .     S
H701   N715    1.046   .     S
H702   N716    1.046   .     S
H703   N716    1.046   .     S
N711   Zn726   2.004   .     S
N712   Zn725   2.004   .     S
O717   Zn725   1.993   .     S
O718   Zn726   1.993   .     S
O719   Zn726   1.997   .     S
O720   Zn725   1.997   .     S
O721   Zn725   1.969   .     S
O722   Zn726   1.969   .     S
O723   Zn726   1.982   .     S
O724   Zn725   1.982   .     S
C727   O783    1.287   .     A
C727   O785    1.284   .     A
C727   C740    1.440   .     S
C728   C753    1.406   .     A
C728   H760    1.082   .     S
C728   C730    1.410   .     A
C729   C754    1.410   .     A
C729   C748    1.410   .     A
C730   C749    1.411   .     A
C730   C333    1.512   1_556 S
C731   C733    1.402   .     S
C731   O787    1.275   .     A
C731   O789    1.278   .     A
C732   O788    1.275   .     A
C732   O790    1.278   .     A
C732   C734    1.402   .     S
C734   C601    1.330   1_655 S
C734   H634    1.088   1_655 S
C735   C746    1.400   .     A
C735   C737    1.387   .     A
C735   N779    1.433   .     S
C736   C739    1.387   .     A
C736   C747    1.400   .     A
C736   N780    1.433   .     S
C737   C740    1.401   .     A
C737   H770    1.084   .     S
C738   C741    1.441   .     S
C738   O784    1.287   .     A
C738   O786    1.285   .     A
C739   H771    1.084   .     S
C739   C741    1.401   .     A
C740   C742    1.406   .     A
C741   C743    1.406   .     A
C742   N781    1.434   .     S
C742   C744    1.386   .     A
C743   N782    1.434   .     S
C743   C745    1.386   .     A
C744   H772    1.085   .     S
C744   C746    1.396   .     A
C745   H773    1.085   .     S
C745   C747    1.396   .     A
C747   C548    1.440   1_565 S
C748   H774    1.082   .     S
C748   C750    1.407   .     A
C749   H775    1.082   .     S
C749   C751    1.407   .     A
C750   N777    1.363   .     A
C750   H776    1.081   .     S
C751   N778    1.363   .     A
C751   H756    1.082   .     S
C752   C754    1.407   .     A
C752   H757    1.081   .     S
C752   N777    1.363   .     A
C753   H758    1.082   .     S
C753   N778    1.363   .     A
C754   H759    1.082   .     S
H755   C601    1.088   1_655 S
H761   N779    1.046   .     S
H762   N779    1.046   .     S
H763   N780    1.046   .     S
H764   N780    1.046   .     S
H765   N781    1.046   .     S
H767   N781    1.046   .     S
H768   N782    1.046   .     S
H769   N782    1.046   .     S
N777   Zn792   2.004   .     S
N778   Zn791   2.004   .     S
O783   Zn791   1.993   .     S
O784   Zn792   1.993   .     S
O785   Zn792   1.997   .     S
O786   Zn791   1.997   .     S
O787   Zn791   1.969   .     S
O788   Zn792   1.969   .     S
O789   Zn792   1.982   .     S
O790   Zn791   1.982   .     S
