data_str_m3_o1_o17_pcu_sym.97
_audit_creation_date              2020-01-03
_audit_creation_method            'Materials Studio'
_symmetry_space_group_name_H-M    'P1'
_symmetry_Int_Tables_number       1
_symmetry_cell_setting            triclinic
loop_
_symmetry_equiv_pos_as_xyz
  x,y,z
_cell_length_a                    32.1103
_cell_length_b                    29.5269
_cell_length_c                    29.9242
_cell_angle_alpha                 88.9928
_cell_angle_beta                  89.8352
_cell_angle_gamma                 89.9479
loop_
_atom_site_label
_atom_site_type_symbol
_atom_site_fract_x
_atom_site_fract_y
_atom_site_fract_z
_atom_site_U_iso_or_equiv
_atom_site_adp_type
_atom_site_occupancy
C1     C     0.08663   0.16667   0.24992   0.00000  Uiso   1.00
C2     C     0.24668   0.16666   0.25084   0.00000  Uiso   1.00
C3     C     0.10592   0.11596   0.02626   0.00000  Uiso   1.00
C4     C     0.21190   0.23245   0.47424   0.00000  Uiso   1.00
C5     C     0.02136   0.12641   0.26017   0.00000  Uiso   1.00
C6     C     0.31196   0.20690   0.24053   0.00000  Uiso   1.00
C7     C     0.31205   0.12645   0.26061   0.00000  Uiso   1.00
C8     C     0.02126   0.20687   0.24010   0.00000  Uiso   1.00
C9     C     0.29084   0.16671   0.25086   0.00000  Uiso   1.00
C10    C     0.04248   0.16664   0.25000   0.00000  Uiso   1.00
C11    C     0.20154   0.02370   0.26175   0.00000  Uiso   1.00
C12    C     0.13196   0.30963   0.23770   0.00000  Uiso   1.00
C13    C     0.13197   0.02421   0.23765   0.00000  Uiso   1.00
C14    C     0.20152   0.30913   0.26182   0.00000  Uiso   1.00
C15    C     0.16707   0.16708   0.16344   0.00000  Uiso   1.00
C16    C     0.16593   0.16629   0.33671   0.00000  Uiso   1.00
C17    C     0.18739   0.19916   0.40639   0.00000  Uiso   1.00
C18    C     0.13700   0.14196   0.09421   0.00000  Uiso   1.00
C19    C     0.16441   0.16607   0.38472   0.00000  Uiso   1.00
C20    C     0.16646   0.16831   0.11568   0.00000  Uiso   1.00
C21    C     0.13943   0.13479   0.40856   0.00000  Uiso   1.00
C22    C     0.19435   0.19637   0.09193   0.00000  Uiso   1.00
C23    C     0.13501   0.14003   0.45496   0.00000  Uiso   1.00
C24    C     0.19005   0.20055   0.04550   0.00000  Uiso   1.00
C25    C     0.16091   0.17128   0.47693   0.00000  Uiso   1.00
C26    C     0.16166   0.17193   0.02354   0.00000  Uiso   1.00
C27    C     0.18685   0.20112   0.45242   0.00000  Uiso   1.00
C28    C     0.13481   0.14302   0.04811   0.00000  Uiso   1.00
C29    C     0.10575   0.11476   0.47993   0.00000  Uiso   1.00
C30    C     0.21350   0.23221   0.02059   0.00000  Uiso   1.00
H31    H     0.20683   0.22254   0.38726   0.00000  Uiso   1.00
H32    H     0.11587   0.12062   0.11357   0.00000  Uiso   1.00
H33    H     0.08275   0.09387   0.46399   0.00000  Uiso   1.00
H34    H     0.23354   0.25639   0.03675   0.00000  Uiso   1.00
H35    H     0.08401   0.09509   0.04499   0.00000  Uiso   1.00
H36    H     0.23102   0.25633   0.45546   0.00000  Uiso   1.00
H37    H     0.03766   0.09516   0.26813   0.00000  Uiso   1.00
H38    H     0.29566   0.23810   0.23237   0.00000  Uiso   1.00
H39    H     0.29581   0.09523   0.26880   0.00000  Uiso   1.00
H40    H     0.03748   0.23805   0.23176   0.00000  Uiso   1.00
H41    H     0.22935   0.04151   0.27159   0.00000  Uiso   1.00
H42    H     0.10419   0.29182   0.22778   0.00000  Uiso   1.00
H43    H     0.10419   0.04245   0.22775   0.00000  Uiso   1.00
H44    H     0.22932   0.29091   0.27168   0.00000  Uiso   1.00
N45    N     0.16667   0.28573   0.25000   0.00000  Uiso   1.00
N46    N     0.16667   0.04760   0.25000   0.00000  Uiso   1.00
O47    O     0.10559   0.20487   0.25000   0.00000  Uiso   1.00
O48    O     0.22774   0.12846   0.25001   0.00000  Uiso   1.00
O49    O     0.22774   0.20487   0.25001   0.00000  Uiso   1.00
O50    O     0.10559   0.12846   0.25000   0.00000  Uiso   1.00
O51    O     0.16666   0.20489   0.18393   0.00000  Uiso   1.00
O52    O     0.16667   0.12844   0.31608   0.00000  Uiso   1.00
O53    O     0.16667   0.20489   0.31608   0.00000  Uiso   1.00
O54    O     0.16666   0.12844   0.18393   0.00000  Uiso   1.00
Zn55   Zn    0.16667   0.21771   0.25000   0.00000  Uiso   1.00
Zn56   Zn    0.16667   0.11563   0.25000   0.00000  Uiso   1.00
O57    O     0.11833   0.10123   0.38567   0.00000  Uiso   1.00
C58    C     0.13084   0.05731   0.40066   0.00000  Uiso   1.00
H59    H     0.10346   0.04012   0.41609   0.00000  Uiso   1.00
H60    H     0.15649   0.05716   0.42584   0.00000  Uiso   1.00
C61    C     0.14506   0.02925   0.36113   0.00000  Uiso   1.00
H62    H     0.12062   0.02989   0.33491   0.00000  Uiso   1.00
H63    H     0.17411   0.04417   0.34717   0.00000  Uiso   1.00
C64    C     0.15354   0.31353   0.37548   0.00000  Uiso   1.00
H65    H     0.17837   0.31205   0.40124   0.00000  Uiso   1.00
H66    H     0.16396   0.29390   0.34627   0.00000  Uiso   1.00
H67    H     0.12480   0.29755   0.38919   0.00000  Uiso   1.00
O68    O     0.22485   0.21972   0.11494   0.00000  Uiso   1.00
C69    C     0.26466   0.20000   0.10780   0.00000  Uiso   1.00
H70    H     0.28796   0.22268   0.12321   0.00000  Uiso   1.00
H71    H     0.27292   0.19835   0.07177   0.00000  Uiso   1.00
C72    C     0.26878   0.15260   0.12940   0.00000  Uiso   1.00
H73    H     0.25660   0.15316   0.16394   0.00000  Uiso   1.00
H74    H     0.25017   0.12785   0.11031   0.00000  Uiso   1.00
C75    C     0.31405   0.13678   0.13037   0.00000  Uiso   1.00
H76    H     0.32671   0.13509   0.09586   0.00000  Uiso   1.00
H77    H     0.31587   0.10254   0.14620   0.00000  Uiso   1.00
H78    H     0.00002   0.16031   0.15012   0.00000  Uiso   1.00
C79    C     0.41996   0.16667   0.24992   0.00000  Uiso   1.00
C80    C     0.58002   0.16666   0.25084   0.00000  Uiso   1.00
C81    C     0.43925   0.11596   0.02626   0.00000  Uiso   1.00
C82    C     0.54523   0.23245   0.47424   0.00000  Uiso   1.00
C83    C     0.35469   0.12641   0.26017   0.00000  Uiso   1.00
C84    C     0.64529   0.20690   0.24053   0.00000  Uiso   1.00
C85    C     0.64538   0.12645   0.26061   0.00000  Uiso   1.00
C86    C     0.35460   0.20687   0.24010   0.00000  Uiso   1.00
C87    C     0.62417   0.16671   0.25086   0.00000  Uiso   1.00
C88    C     0.37581   0.16664   0.25000   0.00000  Uiso   1.00
C89    C     0.53487   0.02370   0.26175   0.00000  Uiso   1.00
C90    C     0.46530   0.30963   0.23770   0.00000  Uiso   1.00
C91    C     0.46531   0.02421   0.23765   0.00000  Uiso   1.00
C92    C     0.53485   0.30913   0.26182   0.00000  Uiso   1.00
C93    C     0.50040   0.16708   0.16344   0.00000  Uiso   1.00
C94    C     0.49926   0.16629   0.33671   0.00000  Uiso   1.00
C95    C     0.52072   0.19916   0.40639   0.00000  Uiso   1.00
C96    C     0.47034   0.14196   0.09421   0.00000  Uiso   1.00
C97    C     0.49774   0.16607   0.38472   0.00000  Uiso   1.00
C98    C     0.49979   0.16831   0.11568   0.00000  Uiso   1.00
C99    C     0.47276   0.13479   0.40856   0.00000  Uiso   1.00
C100   C     0.52768   0.19637   0.09193   0.00000  Uiso   1.00
C101   C     0.46834   0.14003   0.45496   0.00000  Uiso   1.00
C102   C     0.52338   0.20055   0.04550   0.00000  Uiso   1.00
C103   C     0.49425   0.17128   0.47693   0.00000  Uiso   1.00
C104   C     0.49500   0.17193   0.02354   0.00000  Uiso   1.00
C105   C     0.52018   0.20112   0.45242   0.00000  Uiso   1.00
C106   C     0.46814   0.14302   0.04811   0.00000  Uiso   1.00
C107   C     0.43908   0.11476   0.47993   0.00000  Uiso   1.00
C108   C     0.54684   0.23221   0.02059   0.00000  Uiso   1.00
H109   H     0.54016   0.22254   0.38726   0.00000  Uiso   1.00
H110   H     0.44921   0.12062   0.11357   0.00000  Uiso   1.00
H111   H     0.41608   0.09387   0.46399   0.00000  Uiso   1.00
H112   H     0.56687   0.25639   0.03675   0.00000  Uiso   1.00
H113   H     0.41735   0.09509   0.04499   0.00000  Uiso   1.00
H114   H     0.56436   0.25633   0.45546   0.00000  Uiso   1.00
H115   H     0.37100   0.09516   0.26813   0.00000  Uiso   1.00
H116   H     0.62899   0.23810   0.23237   0.00000  Uiso   1.00
H117   H     0.62914   0.09523   0.26880   0.00000  Uiso   1.00
H118   H     0.37081   0.23805   0.23176   0.00000  Uiso   1.00
H119   H     0.56268   0.04151   0.27159   0.00000  Uiso   1.00
H120   H     0.43752   0.29182   0.22778   0.00000  Uiso   1.00
H121   H     0.43752   0.04245   0.22775   0.00000  Uiso   1.00
H122   H     0.56266   0.29091   0.27168   0.00000  Uiso   1.00
N123   N     0.50000   0.28573   0.25000   0.00000  Uiso   1.00
N124   N     0.50000   0.04760   0.25000   0.00000  Uiso   1.00
O125   O     0.43892   0.20487   0.25000   0.00000  Uiso   1.00
O126   O     0.56108   0.12846   0.25001   0.00000  Uiso   1.00
O127   O     0.56108   0.20487   0.25001   0.00000  Uiso   1.00
O128   O     0.43892   0.12846   0.25000   0.00000  Uiso   1.00
O129   O     0.49999   0.20489   0.18393   0.00000  Uiso   1.00
O130   O     0.50001   0.12844   0.31608   0.00000  Uiso   1.00
O131   O     0.50001   0.20489   0.31608   0.00000  Uiso   1.00
O132   O     0.49999   0.12844   0.18393   0.00000  Uiso   1.00
Zn133  Zn    0.50000   0.21771   0.25000   0.00000  Uiso   1.00
Zn134  Zn    0.50000   0.11563   0.25000   0.00000  Uiso   1.00
O135   O     0.45166   0.10123   0.38567   0.00000  Uiso   1.00
C136   C     0.46418   0.05731   0.40066   0.00000  Uiso   1.00
H137   H     0.43680   0.04012   0.41609   0.00000  Uiso   1.00
H138   H     0.48983   0.05716   0.42584   0.00000  Uiso   1.00
C139   C     0.47839   0.02925   0.36113   0.00000  Uiso   1.00
H140   H     0.45395   0.02989   0.33491   0.00000  Uiso   1.00
H141   H     0.50744   0.04417   0.34717   0.00000  Uiso   1.00
C142   C     0.48687   0.31353   0.37548   0.00000  Uiso   1.00
H143   H     0.51170   0.31205   0.40124   0.00000  Uiso   1.00
H144   H     0.49729   0.29390   0.34627   0.00000  Uiso   1.00
H145   H     0.45814   0.29755   0.38919   0.00000  Uiso   1.00
O146   O     0.55818   0.21972   0.11494   0.00000  Uiso   1.00
C147   C     0.59800   0.20000   0.10780   0.00000  Uiso   1.00
H148   H     0.62129   0.22268   0.12321   0.00000  Uiso   1.00
H149   H     0.60625   0.19835   0.07177   0.00000  Uiso   1.00
C150   C     0.60212   0.15260   0.12940   0.00000  Uiso   1.00
H151   H     0.58993   0.15316   0.16394   0.00000  Uiso   1.00
H152   H     0.58350   0.12785   0.11031   0.00000  Uiso   1.00
C153   C     0.64738   0.13678   0.13037   0.00000  Uiso   1.00
H154   H     0.66004   0.13509   0.09586   0.00000  Uiso   1.00
H155   H     0.64920   0.10254   0.14620   0.00000  Uiso   1.00
H156   H     0.33336   0.16031   0.15012   0.00000  Uiso   1.00
C157   C     0.75330   0.16667   0.24992   0.00000  Uiso   1.00
C158   C     0.91335   0.16666   0.25084   0.00000  Uiso   1.00
C159   C     0.77259   0.11596   0.02626   0.00000  Uiso   1.00
C160   C     0.87857   0.23245   0.47424   0.00000  Uiso   1.00
C161   C     0.68803   0.12641   0.26017   0.00000  Uiso   1.00
C162   C     0.97862   0.20690   0.24053   0.00000  Uiso   1.00
C163   C     0.97871   0.12645   0.26061   0.00000  Uiso   1.00
C164   C     0.68793   0.20687   0.24010   0.00000  Uiso   1.00
C165   C     0.95750   0.16671   0.25086   0.00000  Uiso   1.00
C166   C     0.70915   0.16664   0.25000   0.00000  Uiso   1.00
C167   C     0.86821   0.02370   0.26175   0.00000  Uiso   1.00
C168   C     0.79863   0.30963   0.23770   0.00000  Uiso   1.00
C169   C     0.79864   0.02421   0.23765   0.00000  Uiso   1.00
C170   C     0.86819   0.30913   0.26182   0.00000  Uiso   1.00
C171   C     0.83374   0.16708   0.16344   0.00000  Uiso   1.00
C172   C     0.83259   0.16629   0.33671   0.00000  Uiso   1.00
C173   C     0.85405   0.19916   0.40639   0.00000  Uiso   1.00
C174   C     0.80367   0.14196   0.09421   0.00000  Uiso   1.00
C175   C     0.83108   0.16607   0.38472   0.00000  Uiso   1.00
C176   C     0.83313   0.16831   0.11568   0.00000  Uiso   1.00
C177   C     0.80609   0.13479   0.40856   0.00000  Uiso   1.00
C178   C     0.86101   0.19637   0.09193   0.00000  Uiso   1.00
C179   C     0.80168   0.14003   0.45496   0.00000  Uiso   1.00
C180   C     0.85672   0.20055   0.04550   0.00000  Uiso   1.00
C181   C     0.82758   0.17128   0.47693   0.00000  Uiso   1.00
C182   C     0.82833   0.17193   0.02354   0.00000  Uiso   1.00
C183   C     0.85352   0.20112   0.45242   0.00000  Uiso   1.00
C184   C     0.80147   0.14302   0.04811   0.00000  Uiso   1.00
C185   C     0.77242   0.11476   0.47993   0.00000  Uiso   1.00
C186   C     0.88017   0.23221   0.02059   0.00000  Uiso   1.00
H187   H     0.87349   0.22254   0.38726   0.00000  Uiso   1.00
H188   H     0.78254   0.12062   0.11357   0.00000  Uiso   1.00
H189   H     0.74942   0.09387   0.46399   0.00000  Uiso   1.00
H190   H     0.90020   0.25639   0.03675   0.00000  Uiso   1.00
H191   H     0.75068   0.09509   0.04499   0.00000  Uiso   1.00
H192   H     0.89769   0.25633   0.45546   0.00000  Uiso   1.00
H193   H     0.70433   0.09516   0.26813   0.00000  Uiso   1.00
H194   H     0.96233   0.23810   0.23237   0.00000  Uiso   1.00
H195   H     0.96248   0.09523   0.26880   0.00000  Uiso   1.00
H196   H     0.70415   0.23805   0.23176   0.00000  Uiso   1.00
H197   H     0.89601   0.04151   0.27159   0.00000  Uiso   1.00
H198   H     0.77085   0.29182   0.22778   0.00000  Uiso   1.00
H199   H     0.77086   0.04245   0.22775   0.00000  Uiso   1.00
H200   H     0.89599   0.29091   0.27168   0.00000  Uiso   1.00
N201   N     0.83333   0.28573   0.25000   0.00000  Uiso   1.00
N202   N     0.83333   0.04760   0.25000   0.00000  Uiso   1.00
O203   O     0.77226   0.20487   0.25000   0.00000  Uiso   1.00
O204   O     0.89441   0.12846   0.25001   0.00000  Uiso   1.00
O205   O     0.89441   0.20487   0.25001   0.00000  Uiso   1.00
O206   O     0.77226   0.12846   0.25000   0.00000  Uiso   1.00
O207   O     0.83333   0.20489   0.18393   0.00000  Uiso   1.00
O208   O     0.83334   0.12844   0.31608   0.00000  Uiso   1.00
O209   O     0.83334   0.20489   0.31608   0.00000  Uiso   1.00
O210   O     0.83333   0.12844   0.18393   0.00000  Uiso   1.00
Zn211  Zn    0.83333   0.21771   0.25000   0.00000  Uiso   1.00
Zn212  Zn    0.83333   0.11563   0.25000   0.00000  Uiso   1.00
O213   O     0.78500   0.10123   0.38567   0.00000  Uiso   1.00
C214   C     0.79751   0.05731   0.40066   0.00000  Uiso   1.00
H215   H     0.77013   0.04012   0.41609   0.00000  Uiso   1.00
H216   H     0.82316   0.05716   0.42584   0.00000  Uiso   1.00
C217   C     0.81173   0.02925   0.36113   0.00000  Uiso   1.00
H218   H     0.78729   0.02989   0.33491   0.00000  Uiso   1.00
H219   H     0.84078   0.04417   0.34717   0.00000  Uiso   1.00
C220   C     0.82021   0.31353   0.37548   0.00000  Uiso   1.00
H221   H     0.84504   0.31205   0.40124   0.00000  Uiso   1.00
H222   H     0.83062   0.29390   0.34627   0.00000  Uiso   1.00
H223   H     0.79147   0.29755   0.38919   0.00000  Uiso   1.00
O224   O     0.89151   0.21972   0.11494   0.00000  Uiso   1.00
C225   C     0.93133   0.20000   0.10780   0.00000  Uiso   1.00
H226   H     0.95462   0.22268   0.12321   0.00000  Uiso   1.00
H227   H     0.93959   0.19835   0.07177   0.00000  Uiso   1.00
C228   C     0.93545   0.15260   0.12940   0.00000  Uiso   1.00
H229   H     0.92327   0.15316   0.16394   0.00000  Uiso   1.00
H230   H     0.91684   0.12785   0.11031   0.00000  Uiso   1.00
C231   C     0.98072   0.13678   0.13037   0.00000  Uiso   1.00
H232   H     0.99338   0.13509   0.09586   0.00000  Uiso   1.00
H233   H     0.98254   0.10254   0.14620   0.00000  Uiso   1.00
H234   H     0.66669   0.16031   0.15012   0.00000  Uiso   1.00
C235   C     0.08663   0.50001   0.24992   0.00000  Uiso   1.00
C236   C     0.24668   0.49999   0.25084   0.00000  Uiso   1.00
C237   C     0.10592   0.44929   0.02626   0.00000  Uiso   1.00
C238   C     0.21190   0.56578   0.47424   0.00000  Uiso   1.00
C239   C     0.02136   0.45974   0.26017   0.00000  Uiso   1.00
C240   C     0.31196   0.54023   0.24053   0.00000  Uiso   1.00
C241   C     0.31205   0.45978   0.26061   0.00000  Uiso   1.00
C242   C     0.02126   0.54020   0.24010   0.00000  Uiso   1.00
C243   C     0.29084   0.50004   0.25086   0.00000  Uiso   1.00
C244   C     0.04248   0.49998   0.25000   0.00000  Uiso   1.00
C245   C     0.20154   0.35704   0.26175   0.00000  Uiso   1.00
C246   C     0.13196   0.64297   0.23770   0.00000  Uiso   1.00
C247   C     0.13197   0.35755   0.23765   0.00000  Uiso   1.00
C248   C     0.20152   0.64246   0.26182   0.00000  Uiso   1.00
C249   C     0.16707   0.50041   0.16344   0.00000  Uiso   1.00
C250   C     0.16593   0.49962   0.33671   0.00000  Uiso   1.00
C251   C     0.18739   0.53249   0.40639   0.00000  Uiso   1.00
C252   C     0.13700   0.47529   0.09421   0.00000  Uiso   1.00
C253   C     0.16441   0.49941   0.38472   0.00000  Uiso   1.00
C254   C     0.16646   0.50165   0.11568   0.00000  Uiso   1.00
C255   C     0.13943   0.46812   0.40856   0.00000  Uiso   1.00
C256   C     0.19435   0.52971   0.09193   0.00000  Uiso   1.00
C257   C     0.13501   0.47337   0.45496   0.00000  Uiso   1.00
C258   C     0.19005   0.53389   0.04550   0.00000  Uiso   1.00
C259   C     0.16091   0.50461   0.47693   0.00000  Uiso   1.00
C260   C     0.16166   0.50526   0.02354   0.00000  Uiso   1.00
C261   C     0.18685   0.53445   0.45242   0.00000  Uiso   1.00
C262   C     0.13481   0.47636   0.04811   0.00000  Uiso   1.00
C263   C     0.10575   0.44809   0.47993   0.00000  Uiso   1.00
C264   C     0.21350   0.56554   0.02059   0.00000  Uiso   1.00
H265   H     0.20683   0.55588   0.38726   0.00000  Uiso   1.00
H266   H     0.11587   0.45395   0.11357   0.00000  Uiso   1.00
H267   H     0.08275   0.42720   0.46399   0.00000  Uiso   1.00
H268   H     0.23354   0.58973   0.03675   0.00000  Uiso   1.00
H269   H     0.08401   0.42843   0.04499   0.00000  Uiso   1.00
H270   H     0.23102   0.58967   0.45546   0.00000  Uiso   1.00
H271   H     0.03766   0.42849   0.26813   0.00000  Uiso   1.00
H272   H     0.29566   0.57144   0.23237   0.00000  Uiso   1.00
H273   H     0.29581   0.42857   0.26880   0.00000  Uiso   1.00
H274   H     0.03748   0.57139   0.23176   0.00000  Uiso   1.00
H275   H     0.22935   0.37484   0.27159   0.00000  Uiso   1.00
H276   H     0.10419   0.62515   0.22778   0.00000  Uiso   1.00
H277   H     0.10419   0.37578   0.22775   0.00000  Uiso   1.00
H278   H     0.22932   0.62424   0.27168   0.00000  Uiso   1.00
N279   N     0.16667   0.61907   0.25000   0.00000  Uiso   1.00
N280   N     0.16667   0.38093   0.25000   0.00000  Uiso   1.00
O281   O     0.10559   0.53821   0.25000   0.00000  Uiso   1.00
O282   O     0.22774   0.46179   0.25001   0.00000  Uiso   1.00
O283   O     0.22774   0.53821   0.25001   0.00000  Uiso   1.00
O284   O     0.10559   0.46179   0.25000   0.00000  Uiso   1.00
O285   O     0.16666   0.53823   0.18393   0.00000  Uiso   1.00
O286   O     0.16667   0.46177   0.31608   0.00000  Uiso   1.00
O287   O     0.16667   0.53823   0.31608   0.00000  Uiso   1.00
O288   O     0.16666   0.46177   0.18393   0.00000  Uiso   1.00
Zn289  Zn    0.16667   0.55104   0.25000   0.00000  Uiso   1.00
Zn290  Zn    0.16667   0.44896   0.25000   0.00000  Uiso   1.00
O291   O     0.11833   0.43456   0.38567   0.00000  Uiso   1.00
C292   C     0.13084   0.39064   0.40066   0.00000  Uiso   1.00
H293   H     0.10346   0.37346   0.41609   0.00000  Uiso   1.00
H294   H     0.15649   0.39049   0.42584   0.00000  Uiso   1.00
C295   C     0.14506   0.36258   0.36113   0.00000  Uiso   1.00
H296   H     0.12062   0.36322   0.33491   0.00000  Uiso   1.00
H297   H     0.17411   0.37750   0.34717   0.00000  Uiso   1.00
C298   C     0.15354   0.64686   0.37548   0.00000  Uiso   1.00
H299   H     0.17837   0.64539   0.40124   0.00000  Uiso   1.00
H300   H     0.16396   0.62724   0.34627   0.00000  Uiso   1.00
H301   H     0.12480   0.63089   0.38919   0.00000  Uiso   1.00
O302   O     0.22485   0.55305   0.11494   0.00000  Uiso   1.00
C303   C     0.26466   0.53333   0.10780   0.00000  Uiso   1.00
H304   H     0.28796   0.55601   0.12321   0.00000  Uiso   1.00
H305   H     0.27292   0.53169   0.07177   0.00000  Uiso   1.00
C306   C     0.26878   0.48593   0.12940   0.00000  Uiso   1.00
H307   H     0.25660   0.48650   0.16394   0.00000  Uiso   1.00
H308   H     0.25017   0.46118   0.11031   0.00000  Uiso   1.00
C309   C     0.31405   0.47011   0.13037   0.00000  Uiso   1.00
H310   H     0.32671   0.46842   0.09586   0.00000  Uiso   1.00
H311   H     0.31587   0.43587   0.14620   0.00000  Uiso   1.00
H312   H     0.00002   0.49364   0.15012   0.00000  Uiso   1.00
C313   C     0.41996   0.50001   0.24992   0.00000  Uiso   1.00
C314   C     0.58002   0.49999   0.25084   0.00000  Uiso   1.00
C315   C     0.43925   0.44929   0.02626   0.00000  Uiso   1.00
C316   C     0.54523   0.56578   0.47424   0.00000  Uiso   1.00
C317   C     0.35469   0.45974   0.26017   0.00000  Uiso   1.00
C318   C     0.64529   0.54023   0.24053   0.00000  Uiso   1.00
C319   C     0.64538   0.45978   0.26061   0.00000  Uiso   1.00
C320   C     0.35460   0.54020   0.24010   0.00000  Uiso   1.00
C321   C     0.62417   0.50004   0.25086   0.00000  Uiso   1.00
C322   C     0.37581   0.49998   0.25000   0.00000  Uiso   1.00
C323   C     0.53487   0.35704   0.26175   0.00000  Uiso   1.00
C324   C     0.46530   0.64297   0.23770   0.00000  Uiso   1.00
C325   C     0.46531   0.35755   0.23765   0.00000  Uiso   1.00
C326   C     0.53485   0.64246   0.26182   0.00000  Uiso   1.00
C327   C     0.50040   0.50041   0.16344   0.00000  Uiso   1.00
C328   C     0.49926   0.49962   0.33671   0.00000  Uiso   1.00
C329   C     0.52072   0.53249   0.40639   0.00000  Uiso   1.00
C330   C     0.47034   0.47529   0.09421   0.00000  Uiso   1.00
C331   C     0.49774   0.49941   0.38472   0.00000  Uiso   1.00
C332   C     0.49979   0.50165   0.11568   0.00000  Uiso   1.00
C333   C     0.47276   0.46812   0.40856   0.00000  Uiso   1.00
C334   C     0.52768   0.52971   0.09193   0.00000  Uiso   1.00
C335   C     0.46834   0.47337   0.45496   0.00000  Uiso   1.00
C336   C     0.52338   0.53389   0.04550   0.00000  Uiso   1.00
C337   C     0.49425   0.50461   0.47693   0.00000  Uiso   1.00
C338   C     0.49500   0.50526   0.02354   0.00000  Uiso   1.00
C339   C     0.52018   0.53445   0.45242   0.00000  Uiso   1.00
C340   C     0.46814   0.47636   0.04811   0.00000  Uiso   1.00
C341   C     0.43908   0.44809   0.47993   0.00000  Uiso   1.00
C342   C     0.54684   0.56554   0.02059   0.00000  Uiso   1.00
H343   H     0.54016   0.55588   0.38726   0.00000  Uiso   1.00
H344   H     0.44921   0.45395   0.11357   0.00000  Uiso   1.00
H345   H     0.41608   0.42720   0.46399   0.00000  Uiso   1.00
H346   H     0.56687   0.58973   0.03675   0.00000  Uiso   1.00
H347   H     0.41735   0.42843   0.04499   0.00000  Uiso   1.00
H348   H     0.56436   0.58967   0.45546   0.00000  Uiso   1.00
H349   H     0.37100   0.42849   0.26813   0.00000  Uiso   1.00
H350   H     0.62899   0.57144   0.23237   0.00000  Uiso   1.00
H351   H     0.62914   0.42857   0.26880   0.00000  Uiso   1.00
H352   H     0.37081   0.57139   0.23176   0.00000  Uiso   1.00
H353   H     0.56268   0.37484   0.27159   0.00000  Uiso   1.00
H354   H     0.43752   0.62515   0.22778   0.00000  Uiso   1.00
H355   H     0.43752   0.37578   0.22775   0.00000  Uiso   1.00
H356   H     0.56266   0.62424   0.27168   0.00000  Uiso   1.00
N357   N     0.50000   0.61907   0.25000   0.00000  Uiso   1.00
N358   N     0.50000   0.38093   0.25000   0.00000  Uiso   1.00
O359   O     0.43892   0.53821   0.25000   0.00000  Uiso   1.00
O360   O     0.56108   0.46179   0.25001   0.00000  Uiso   1.00
O361   O     0.56108   0.53821   0.25001   0.00000  Uiso   1.00
O362   O     0.43892   0.46179   0.25000   0.00000  Uiso   1.00
O363   O     0.49999   0.53823   0.18393   0.00000  Uiso   1.00
O364   O     0.50001   0.46177   0.31608   0.00000  Uiso   1.00
O365   O     0.50001   0.53823   0.31608   0.00000  Uiso   1.00
O366   O     0.49999   0.46177   0.18393   0.00000  Uiso   1.00
Zn367  Zn    0.50000   0.55104   0.25000   0.00000  Uiso   1.00
Zn368  Zn    0.50000   0.44896   0.25000   0.00000  Uiso   1.00
O369   O     0.45166   0.43456   0.38567   0.00000  Uiso   1.00
C370   C     0.46418   0.39064   0.40066   0.00000  Uiso   1.00
H371   H     0.43680   0.37346   0.41609   0.00000  Uiso   1.00
H372   H     0.48983   0.39049   0.42584   0.00000  Uiso   1.00
C373   C     0.47839   0.36258   0.36113   0.00000  Uiso   1.00
H374   H     0.45395   0.36322   0.33491   0.00000  Uiso   1.00
H375   H     0.50744   0.37750   0.34717   0.00000  Uiso   1.00
C376   C     0.48687   0.64686   0.37548   0.00000  Uiso   1.00
H377   H     0.51170   0.64539   0.40124   0.00000  Uiso   1.00
H378   H     0.49729   0.62724   0.34627   0.00000  Uiso   1.00
H379   H     0.45814   0.63089   0.38919   0.00000  Uiso   1.00
O380   O     0.55818   0.55305   0.11494   0.00000  Uiso   1.00
C381   C     0.59800   0.53333   0.10780   0.00000  Uiso   1.00
H382   H     0.62129   0.55601   0.12321   0.00000  Uiso   1.00
H383   H     0.60625   0.53169   0.07177   0.00000  Uiso   1.00
C384   C     0.60212   0.48593   0.12940   0.00000  Uiso   1.00
H385   H     0.58993   0.48650   0.16394   0.00000  Uiso   1.00
H386   H     0.58350   0.46118   0.11031   0.00000  Uiso   1.00
C387   C     0.64738   0.47011   0.13037   0.00000  Uiso   1.00
H388   H     0.66004   0.46842   0.09586   0.00000  Uiso   1.00
H389   H     0.64920   0.43587   0.14620   0.00000  Uiso   1.00
H390   H     0.33336   0.49364   0.15012   0.00000  Uiso   1.00
C391   C     0.75330   0.50001   0.24992   0.00000  Uiso   1.00
C392   C     0.91335   0.49999   0.25084   0.00000  Uiso   1.00
C393   C     0.77259   0.44929   0.02626   0.00000  Uiso   1.00
C394   C     0.87857   0.56578   0.47424   0.00000  Uiso   1.00
C395   C     0.68803   0.45974   0.26017   0.00000  Uiso   1.00
C396   C     0.97862   0.54023   0.24053   0.00000  Uiso   1.00
C397   C     0.97871   0.45978   0.26061   0.00000  Uiso   1.00
C398   C     0.68793   0.54020   0.24010   0.00000  Uiso   1.00
C399   C     0.95750   0.50004   0.25086   0.00000  Uiso   1.00
C400   C     0.70915   0.49998   0.25000   0.00000  Uiso   1.00
C401   C     0.86821   0.35704   0.26175   0.00000  Uiso   1.00
C402   C     0.79863   0.64297   0.23770   0.00000  Uiso   1.00
C403   C     0.79864   0.35755   0.23765   0.00000  Uiso   1.00
C404   C     0.86819   0.64246   0.26182   0.00000  Uiso   1.00
C405   C     0.83374   0.50041   0.16344   0.00000  Uiso   1.00
C406   C     0.83259   0.49962   0.33671   0.00000  Uiso   1.00
C407   C     0.85405   0.53249   0.40639   0.00000  Uiso   1.00
C408   C     0.80367   0.47529   0.09421   0.00000  Uiso   1.00
C409   C     0.83108   0.49941   0.38472   0.00000  Uiso   1.00
C410   C     0.83313   0.50165   0.11568   0.00000  Uiso   1.00
C411   C     0.80609   0.46812   0.40856   0.00000  Uiso   1.00
C412   C     0.86101   0.52971   0.09193   0.00000  Uiso   1.00
C413   C     0.80168   0.47337   0.45496   0.00000  Uiso   1.00
C414   C     0.85672   0.53389   0.04550   0.00000  Uiso   1.00
C415   C     0.82758   0.50461   0.47693   0.00000  Uiso   1.00
C416   C     0.82833   0.50526   0.02354   0.00000  Uiso   1.00
C417   C     0.85352   0.53445   0.45242   0.00000  Uiso   1.00
C418   C     0.80147   0.47636   0.04811   0.00000  Uiso   1.00
C419   C     0.77242   0.44809   0.47993   0.00000  Uiso   1.00
C420   C     0.88017   0.56554   0.02059   0.00000  Uiso   1.00
H421   H     0.87349   0.55588   0.38726   0.00000  Uiso   1.00
H422   H     0.78254   0.45395   0.11357   0.00000  Uiso   1.00
H423   H     0.74942   0.42720   0.46399   0.00000  Uiso   1.00
H424   H     0.90020   0.58973   0.03675   0.00000  Uiso   1.00
H425   H     0.75068   0.42843   0.04499   0.00000  Uiso   1.00
H426   H     0.89769   0.58967   0.45546   0.00000  Uiso   1.00
H427   H     0.70433   0.42849   0.26813   0.00000  Uiso   1.00
H428   H     0.96233   0.57144   0.23237   0.00000  Uiso   1.00
H429   H     0.96248   0.42857   0.26880   0.00000  Uiso   1.00
H430   H     0.70415   0.57139   0.23176   0.00000  Uiso   1.00
H431   H     0.89601   0.37484   0.27159   0.00000  Uiso   1.00
H432   H     0.77085   0.62515   0.22778   0.00000  Uiso   1.00
H433   H     0.77086   0.37578   0.22775   0.00000  Uiso   1.00
H434   H     0.89599   0.62424   0.27168   0.00000  Uiso   1.00
N435   N     0.83333   0.61907   0.25000   0.00000  Uiso   1.00
N436   N     0.83333   0.38093   0.25000   0.00000  Uiso   1.00
O437   O     0.77226   0.53821   0.25000   0.00000  Uiso   1.00
O438   O     0.89441   0.46179   0.25001   0.00000  Uiso   1.00
O439   O     0.89441   0.53821   0.25001   0.00000  Uiso   1.00
O440   O     0.77226   0.46179   0.25000   0.00000  Uiso   1.00
O441   O     0.83333   0.53823   0.18393   0.00000  Uiso   1.00
O442   O     0.83334   0.46177   0.31608   0.00000  Uiso   1.00
O443   O     0.83334   0.53823   0.31608   0.00000  Uiso   1.00
O444   O     0.83333   0.46177   0.18393   0.00000  Uiso   1.00
Zn445  Zn    0.83333   0.55104   0.25000   0.00000  Uiso   1.00
Zn446  Zn    0.83333   0.44896   0.25000   0.00000  Uiso   1.00
O447   O     0.78500   0.43456   0.38567   0.00000  Uiso   1.00
C448   C     0.79751   0.39064   0.40066   0.00000  Uiso   1.00
H449   H     0.77013   0.37346   0.41609   0.00000  Uiso   1.00
H450   H     0.82316   0.39049   0.42584   0.00000  Uiso   1.00
C451   C     0.81173   0.36258   0.36113   0.00000  Uiso   1.00
H452   H     0.78729   0.36322   0.33491   0.00000  Uiso   1.00
H453   H     0.84078   0.37750   0.34717   0.00000  Uiso   1.00
C454   C     0.82021   0.64686   0.37548   0.00000  Uiso   1.00
H455   H     0.84504   0.64539   0.40124   0.00000  Uiso   1.00
H456   H     0.83062   0.62724   0.34627   0.00000  Uiso   1.00
H457   H     0.79147   0.63089   0.38919   0.00000  Uiso   1.00
O458   O     0.89151   0.55305   0.11494   0.00000  Uiso   1.00
C459   C     0.93133   0.53333   0.10780   0.00000  Uiso   1.00
H460   H     0.95462   0.55601   0.12321   0.00000  Uiso   1.00
H461   H     0.93959   0.53169   0.07177   0.00000  Uiso   1.00
C462   C     0.93545   0.48593   0.12940   0.00000  Uiso   1.00
H463   H     0.92327   0.48650   0.16394   0.00000  Uiso   1.00
H464   H     0.91684   0.46118   0.11031   0.00000  Uiso   1.00
C465   C     0.98072   0.47011   0.13037   0.00000  Uiso   1.00
H466   H     0.99338   0.46842   0.09586   0.00000  Uiso   1.00
H467   H     0.98254   0.43587   0.14620   0.00000  Uiso   1.00
H468   H     0.66669   0.49364   0.15012   0.00000  Uiso   1.00
C469   C     0.08663   0.83334   0.24992   0.00000  Uiso   1.00
C470   C     0.24668   0.83333   0.25084   0.00000  Uiso   1.00
C471   C     0.10592   0.78263   0.02626   0.00000  Uiso   1.00
C472   C     0.21190   0.89911   0.47424   0.00000  Uiso   1.00
C473   C     0.02136   0.79307   0.26017   0.00000  Uiso   1.00
C474   C     0.31196   0.87357   0.24053   0.00000  Uiso   1.00
C475   C     0.31205   0.79312   0.26061   0.00000  Uiso   1.00
C476   C     0.02126   0.87353   0.24010   0.00000  Uiso   1.00
C477   C     0.29084   0.83337   0.25086   0.00000  Uiso   1.00
C478   C     0.04248   0.83331   0.25000   0.00000  Uiso   1.00
C479   C     0.20154   0.69037   0.26175   0.00000  Uiso   1.00
C480   C     0.13196   0.97630   0.23770   0.00000  Uiso   1.00
C481   C     0.13197   0.69088   0.23765   0.00000  Uiso   1.00
C482   C     0.20152   0.97579   0.26182   0.00000  Uiso   1.00
C483   C     0.16707   0.83375   0.16344   0.00000  Uiso   1.00
C484   C     0.16593   0.83295   0.33671   0.00000  Uiso   1.00
C485   C     0.18739   0.86582   0.40639   0.00000  Uiso   1.00
C486   C     0.13700   0.80863   0.09421   0.00000  Uiso   1.00
C487   C     0.16441   0.83274   0.38472   0.00000  Uiso   1.00
C488   C     0.16646   0.83498   0.11568   0.00000  Uiso   1.00
C489   C     0.13943   0.80145   0.40856   0.00000  Uiso   1.00
C490   C     0.19435   0.86304   0.09193   0.00000  Uiso   1.00
C491   C     0.13501   0.80670   0.45496   0.00000  Uiso   1.00
C492   C     0.19005   0.86722   0.04550   0.00000  Uiso   1.00
C493   C     0.16091   0.83795   0.47693   0.00000  Uiso   1.00
C494   C     0.16166   0.83859   0.02354   0.00000  Uiso   1.00
C495   C     0.18685   0.86778   0.45242   0.00000  Uiso   1.00
C496   C     0.13481   0.80969   0.04811   0.00000  Uiso   1.00
C497   C     0.10575   0.78143   0.47993   0.00000  Uiso   1.00
C498   C     0.21350   0.89887   0.02059   0.00000  Uiso   1.00
H499   H     0.20683   0.88921   0.38726   0.00000  Uiso   1.00
H500   H     0.11587   0.78728   0.11357   0.00000  Uiso   1.00
H501   H     0.08275   0.76053   0.46399   0.00000  Uiso   1.00
H502   H     0.23354   0.92306   0.03675   0.00000  Uiso   1.00
H503   H     0.08401   0.76176   0.04499   0.00000  Uiso   1.00
H504   H     0.23102   0.92300   0.45546   0.00000  Uiso   1.00
H505   H     0.03766   0.76183   0.26813   0.00000  Uiso   1.00
H506   H     0.29566   0.90477   0.23237   0.00000  Uiso   1.00
H507   H     0.29581   0.76190   0.26880   0.00000  Uiso   1.00
H508   H     0.03748   0.90472   0.23176   0.00000  Uiso   1.00
H509   H     0.22935   0.70818   0.27159   0.00000  Uiso   1.00
H510   H     0.10419   0.95848   0.22778   0.00000  Uiso   1.00
H511   H     0.10419   0.70911   0.22775   0.00000  Uiso   1.00
H512   H     0.22932   0.95757   0.27168   0.00000  Uiso   1.00
N513   N     0.16667   0.95240   0.25000   0.00000  Uiso   1.00
N514   N     0.16667   0.71427   0.25000   0.00000  Uiso   1.00
O515   O     0.10559   0.87154   0.25000   0.00000  Uiso   1.00
O516   O     0.22774   0.79513   0.25001   0.00000  Uiso   1.00
O517   O     0.22774   0.87154   0.25001   0.00000  Uiso   1.00
O518   O     0.10559   0.79513   0.25000   0.00000  Uiso   1.00
O519   O     0.16666   0.87156   0.18393   0.00000  Uiso   1.00
O520   O     0.16667   0.79511   0.31608   0.00000  Uiso   1.00
O521   O     0.16667   0.87156   0.31608   0.00000  Uiso   1.00
O522   O     0.16666   0.79511   0.18393   0.00000  Uiso   1.00
Zn523  Zn    0.16667   0.88437   0.25000   0.00000  Uiso   1.00
Zn524  Zn    0.16667   0.78229   0.25000   0.00000  Uiso   1.00
O525   O     0.11833   0.76790   0.38567   0.00000  Uiso   1.00
C526   C     0.13084   0.72397   0.40066   0.00000  Uiso   1.00
H527   H     0.10346   0.70679   0.41609   0.00000  Uiso   1.00
H528   H     0.15649   0.72383   0.42584   0.00000  Uiso   1.00
C529   C     0.14506   0.69592   0.36113   0.00000  Uiso   1.00
H530   H     0.12062   0.69656   0.33491   0.00000  Uiso   1.00
H531   H     0.17411   0.71084   0.34717   0.00000  Uiso   1.00
C532   C     0.15354   0.98020   0.37548   0.00000  Uiso   1.00
H533   H     0.17837   0.97872   0.40124   0.00000  Uiso   1.00
H534   H     0.16396   0.96057   0.34627   0.00000  Uiso   1.00
H535   H     0.12480   0.96422   0.38919   0.00000  Uiso   1.00
O536   O     0.22485   0.88639   0.11494   0.00000  Uiso   1.00
C537   C     0.26466   0.86666   0.10780   0.00000  Uiso   1.00
H538   H     0.28796   0.88935   0.12321   0.00000  Uiso   1.00
H539   H     0.27292   0.86502   0.07177   0.00000  Uiso   1.00
C540   C     0.26878   0.81926   0.12940   0.00000  Uiso   1.00
H541   H     0.25660   0.81983   0.16394   0.00000  Uiso   1.00
H542   H     0.25017   0.79452   0.11031   0.00000  Uiso   1.00
C543   C     0.31405   0.80344   0.13037   0.00000  Uiso   1.00
H544   H     0.32671   0.80176   0.09586   0.00000  Uiso   1.00
H545   H     0.31587   0.76921   0.14620   0.00000  Uiso   1.00
H546   H     0.00002   0.82697   0.15012   0.00000  Uiso   1.00
C547   C     0.41996   0.83334   0.24992   0.00000  Uiso   1.00
C548   C     0.58002   0.83333   0.25084   0.00000  Uiso   1.00
C549   C     0.43925   0.78263   0.02626   0.00000  Uiso   1.00
C550   C     0.54523   0.89911   0.47424   0.00000  Uiso   1.00
C551   C     0.35469   0.79307   0.26017   0.00000  Uiso   1.00
C552   C     0.64529   0.87357   0.24053   0.00000  Uiso   1.00
C553   C     0.64538   0.79312   0.26061   0.00000  Uiso   1.00
C554   C     0.35460   0.87353   0.24010   0.00000  Uiso   1.00
C555   C     0.62417   0.83337   0.25086   0.00000  Uiso   1.00
C556   C     0.37581   0.83331   0.25000   0.00000  Uiso   1.00
C557   C     0.53487   0.69037   0.26175   0.00000  Uiso   1.00
C558   C     0.46530   0.97630   0.23770   0.00000  Uiso   1.00
C559   C     0.46531   0.69088   0.23765   0.00000  Uiso   1.00
C560   C     0.53485   0.97579   0.26182   0.00000  Uiso   1.00
C561   C     0.50040   0.83375   0.16344   0.00000  Uiso   1.00
C562   C     0.49926   0.83295   0.33671   0.00000  Uiso   1.00
C563   C     0.52072   0.86582   0.40639   0.00000  Uiso   1.00
C564   C     0.47034   0.80863   0.09421   0.00000  Uiso   1.00
C565   C     0.49774   0.83274   0.38472   0.00000  Uiso   1.00
C566   C     0.49979   0.83498   0.11568   0.00000  Uiso   1.00
C567   C     0.47276   0.80145   0.40856   0.00000  Uiso   1.00
C568   C     0.52768   0.86304   0.09193   0.00000  Uiso   1.00
C569   C     0.46834   0.80670   0.45496   0.00000  Uiso   1.00
C570   C     0.52338   0.86722   0.04550   0.00000  Uiso   1.00
C571   C     0.49425   0.83795   0.47693   0.00000  Uiso   1.00
C572   C     0.49500   0.83859   0.02354   0.00000  Uiso   1.00
C573   C     0.52018   0.86778   0.45242   0.00000  Uiso   1.00
C574   C     0.46814   0.80969   0.04811   0.00000  Uiso   1.00
C575   C     0.43908   0.78143   0.47993   0.00000  Uiso   1.00
C576   C     0.54684   0.89887   0.02059   0.00000  Uiso   1.00
H577   H     0.54016   0.88921   0.38726   0.00000  Uiso   1.00
H578   H     0.44921   0.78728   0.11357   0.00000  Uiso   1.00
H579   H     0.41608   0.76053   0.46399   0.00000  Uiso   1.00
H580   H     0.56687   0.92306   0.03675   0.00000  Uiso   1.00
H581   H     0.41735   0.76176   0.04499   0.00000  Uiso   1.00
H582   H     0.56436   0.92300   0.45546   0.00000  Uiso   1.00
H583   H     0.37100   0.76183   0.26813   0.00000  Uiso   1.00
H584   H     0.62899   0.90477   0.23237   0.00000  Uiso   1.00
H585   H     0.62914   0.76190   0.26880   0.00000  Uiso   1.00
H586   H     0.37081   0.90472   0.23176   0.00000  Uiso   1.00
H587   H     0.56268   0.70818   0.27159   0.00000  Uiso   1.00
H588   H     0.43752   0.95848   0.22778   0.00000  Uiso   1.00
H589   H     0.43752   0.70911   0.22775   0.00000  Uiso   1.00
H590   H     0.56266   0.95757   0.27168   0.00000  Uiso   1.00
N591   N     0.50000   0.95240   0.25000   0.00000  Uiso   1.00
N592   N     0.50000   0.71427   0.25000   0.00000  Uiso   1.00
O593   O     0.43892   0.87154   0.25000   0.00000  Uiso   1.00
O594   O     0.56108   0.79513   0.25001   0.00000  Uiso   1.00
O595   O     0.56108   0.87154   0.25001   0.00000  Uiso   1.00
O596   O     0.43892   0.79513   0.25000   0.00000  Uiso   1.00
O597   O     0.49999   0.87156   0.18393   0.00000  Uiso   1.00
O598   O     0.50001   0.79511   0.31608   0.00000  Uiso   1.00
O599   O     0.50001   0.87156   0.31608   0.00000  Uiso   1.00
O600   O     0.49999   0.79511   0.18393   0.00000  Uiso   1.00
Zn601  Zn    0.50000   0.88437   0.25000   0.00000  Uiso   1.00
Zn602  Zn    0.50000   0.78229   0.25000   0.00000  Uiso   1.00
O603   O     0.45166   0.76790   0.38567   0.00000  Uiso   1.00
C604   C     0.46418   0.72397   0.40066   0.00000  Uiso   1.00
H605   H     0.43680   0.70679   0.41609   0.00000  Uiso   1.00
H606   H     0.48983   0.72383   0.42584   0.00000  Uiso   1.00
C607   C     0.47839   0.69592   0.36113   0.00000  Uiso   1.00
H608   H     0.45395   0.69656   0.33491   0.00000  Uiso   1.00
H609   H     0.50744   0.71084   0.34717   0.00000  Uiso   1.00
C610   C     0.48687   0.98020   0.37548   0.00000  Uiso   1.00
H611   H     0.51170   0.97872   0.40124   0.00000  Uiso   1.00
H612   H     0.49729   0.96057   0.34627   0.00000  Uiso   1.00
H613   H     0.45814   0.96422   0.38919   0.00000  Uiso   1.00
O614   O     0.55818   0.88639   0.11494   0.00000  Uiso   1.00
C615   C     0.59800   0.86666   0.10780   0.00000  Uiso   1.00
H616   H     0.62129   0.88935   0.12321   0.00000  Uiso   1.00
H617   H     0.60625   0.86502   0.07177   0.00000  Uiso   1.00
C618   C     0.60212   0.81926   0.12940   0.00000  Uiso   1.00
H619   H     0.58993   0.81983   0.16394   0.00000  Uiso   1.00
H620   H     0.58350   0.79452   0.11031   0.00000  Uiso   1.00
C621   C     0.64738   0.80344   0.13037   0.00000  Uiso   1.00
H622   H     0.66004   0.80176   0.09586   0.00000  Uiso   1.00
H623   H     0.64920   0.76921   0.14620   0.00000  Uiso   1.00
H624   H     0.33336   0.82697   0.15012   0.00000  Uiso   1.00
C625   C     0.75330   0.83334   0.24992   0.00000  Uiso   1.00
C626   C     0.91335   0.83333   0.25084   0.00000  Uiso   1.00
C627   C     0.77259   0.78263   0.02626   0.00000  Uiso   1.00
C628   C     0.87857   0.89911   0.47424   0.00000  Uiso   1.00
C629   C     0.68803   0.79307   0.26017   0.00000  Uiso   1.00
C630   C     0.97862   0.87357   0.24053   0.00000  Uiso   1.00
C631   C     0.97871   0.79312   0.26061   0.00000  Uiso   1.00
C632   C     0.68793   0.87353   0.24010   0.00000  Uiso   1.00
C633   C     0.95750   0.83337   0.25086   0.00000  Uiso   1.00
C634   C     0.70915   0.83331   0.25000   0.00000  Uiso   1.00
C635   C     0.86821   0.69037   0.26175   0.00000  Uiso   1.00
C636   C     0.79863   0.97630   0.23770   0.00000  Uiso   1.00
C637   C     0.79864   0.69088   0.23765   0.00000  Uiso   1.00
C638   C     0.86819   0.97579   0.26182   0.00000  Uiso   1.00
C639   C     0.83374   0.83375   0.16344   0.00000  Uiso   1.00
C640   C     0.83259   0.83295   0.33671   0.00000  Uiso   1.00
C641   C     0.85405   0.86582   0.40639   0.00000  Uiso   1.00
C642   C     0.80367   0.80863   0.09421   0.00000  Uiso   1.00
C643   C     0.83108   0.83274   0.38472   0.00000  Uiso   1.00
C644   C     0.83313   0.83498   0.11568   0.00000  Uiso   1.00
C645   C     0.80609   0.80145   0.40856   0.00000  Uiso   1.00
C646   C     0.86101   0.86304   0.09193   0.00000  Uiso   1.00
C647   C     0.80168   0.80670   0.45496   0.00000  Uiso   1.00
C648   C     0.85672   0.86722   0.04550   0.00000  Uiso   1.00
C649   C     0.82758   0.83795   0.47693   0.00000  Uiso   1.00
C650   C     0.82833   0.83859   0.02354   0.00000  Uiso   1.00
C651   C     0.85352   0.86778   0.45242   0.00000  Uiso   1.00
C652   C     0.80147   0.80969   0.04811   0.00000  Uiso   1.00
C653   C     0.77242   0.78143   0.47993   0.00000  Uiso   1.00
C654   C     0.88017   0.89887   0.02059   0.00000  Uiso   1.00
H655   H     0.87349   0.88921   0.38726   0.00000  Uiso   1.00
H656   H     0.78254   0.78728   0.11357   0.00000  Uiso   1.00
H657   H     0.74942   0.76053   0.46399   0.00000  Uiso   1.00
H658   H     0.90020   0.92306   0.03675   0.00000  Uiso   1.00
H659   H     0.75068   0.76176   0.04499   0.00000  Uiso   1.00
H660   H     0.89769   0.92300   0.45546   0.00000  Uiso   1.00
H661   H     0.70433   0.76183   0.26813   0.00000  Uiso   1.00
H662   H     0.96233   0.90477   0.23237   0.00000  Uiso   1.00
H663   H     0.96248   0.76190   0.26880   0.00000  Uiso   1.00
H664   H     0.70415   0.90472   0.23176   0.00000  Uiso   1.00
H665   H     0.89601   0.70818   0.27159   0.00000  Uiso   1.00
H666   H     0.77085   0.95848   0.22778   0.00000  Uiso   1.00
H667   H     0.77086   0.70911   0.22775   0.00000  Uiso   1.00
H668   H     0.89599   0.95757   0.27168   0.00000  Uiso   1.00
N669   N     0.83333   0.95240   0.25000   0.00000  Uiso   1.00
N670   N     0.83333   0.71427   0.25000   0.00000  Uiso   1.00
O671   O     0.77226   0.87154   0.25000   0.00000  Uiso   1.00
O672   O     0.89441   0.79513   0.25001   0.00000  Uiso   1.00
O673   O     0.89441   0.87154   0.25001   0.00000  Uiso   1.00
O674   O     0.77226   0.79513   0.25000   0.00000  Uiso   1.00
O675   O     0.83333   0.87156   0.18393   0.00000  Uiso   1.00
O676   O     0.83334   0.79511   0.31608   0.00000  Uiso   1.00
O677   O     0.83334   0.87156   0.31608   0.00000  Uiso   1.00
O678   O     0.83333   0.79511   0.18393   0.00000  Uiso   1.00
Zn679  Zn    0.83333   0.88437   0.25000   0.00000  Uiso   1.00
Zn680  Zn    0.83333   0.78229   0.25000   0.00000  Uiso   1.00
O681   O     0.78500   0.76790   0.38567   0.00000  Uiso   1.00
C682   C     0.79751   0.72397   0.40066   0.00000  Uiso   1.00
H683   H     0.77013   0.70679   0.41609   0.00000  Uiso   1.00
H684   H     0.82316   0.72383   0.42584   0.00000  Uiso   1.00
C685   C     0.81173   0.69592   0.36113   0.00000  Uiso   1.00
H686   H     0.78729   0.69656   0.33491   0.00000  Uiso   1.00
H687   H     0.84078   0.71084   0.34717   0.00000  Uiso   1.00
C688   C     0.82021   0.98020   0.37548   0.00000  Uiso   1.00
H689   H     0.84504   0.97872   0.40124   0.00000  Uiso   1.00
H690   H     0.83062   0.96057   0.34627   0.00000  Uiso   1.00
H691   H     0.79147   0.96422   0.38919   0.00000  Uiso   1.00
O692   O     0.89151   0.88639   0.11494   0.00000  Uiso   1.00
C693   C     0.93133   0.86666   0.10780   0.00000  Uiso   1.00
H694   H     0.95462   0.88935   0.12321   0.00000  Uiso   1.00
H695   H     0.93959   0.86502   0.07177   0.00000  Uiso   1.00
C696   C     0.93545   0.81926   0.12940   0.00000  Uiso   1.00
H697   H     0.92327   0.81983   0.16394   0.00000  Uiso   1.00
H698   H     0.91684   0.79452   0.11031   0.00000  Uiso   1.00
C699   C     0.98072   0.80344   0.13037   0.00000  Uiso   1.00
H700   H     0.99338   0.80176   0.09586   0.00000  Uiso   1.00
H701   H     0.98254   0.76921   0.14620   0.00000  Uiso   1.00
H702   H     0.66669   0.82697   0.15012   0.00000  Uiso   1.00
C703   C     0.08663   0.16667   0.74992   0.00000  Uiso   1.00
C704   C     0.24668   0.16666   0.75084   0.00000  Uiso   1.00
C705   C     0.10592   0.11596   0.52626   0.00000  Uiso   1.00
C706   C     0.21190   0.23245   0.97424   0.00000  Uiso   1.00
C707   C     0.02136   0.12641   0.76017   0.00000  Uiso   1.00
C708   C     0.31196   0.20690   0.74053   0.00000  Uiso   1.00
C709   C     0.31205   0.12645   0.76061   0.00000  Uiso   1.00
C710   C     0.02126   0.20687   0.74010   0.00000  Uiso   1.00
C711   C     0.29084   0.16671   0.75086   0.00000  Uiso   1.00
C712   C     0.04248   0.16664   0.75000   0.00000  Uiso   1.00
C713   C     0.20154   0.02370   0.76175   0.00000  Uiso   1.00
C714   C     0.13196   0.30963   0.73770   0.00000  Uiso   1.00
C715   C     0.13197   0.02421   0.73765   0.00000  Uiso   1.00
C716   C     0.20152   0.30913   0.76182   0.00000  Uiso   1.00
C717   C     0.16707   0.16708   0.66344   0.00000  Uiso   1.00
C718   C     0.16593   0.16629   0.83671   0.00000  Uiso   1.00
C719   C     0.18739   0.19916   0.90639   0.00000  Uiso   1.00
C720   C     0.13700   0.14196   0.59421   0.00000  Uiso   1.00
C721   C     0.16441   0.16607   0.88472   0.00000  Uiso   1.00
C722   C     0.16646   0.16831   0.61568   0.00000  Uiso   1.00
C723   C     0.13943   0.13479   0.90856   0.00000  Uiso   1.00
C724   C     0.19435   0.19637   0.59193   0.00000  Uiso   1.00
C725   C     0.13501   0.14003   0.95496   0.00000  Uiso   1.00
C726   C     0.19005   0.20055   0.54550   0.00000  Uiso   1.00
C727   C     0.16091   0.17128   0.97693   0.00000  Uiso   1.00
C728   C     0.16166   0.17193   0.52354   0.00000  Uiso   1.00
C729   C     0.18685   0.20112   0.95242   0.00000  Uiso   1.00
C730   C     0.13481   0.14302   0.54811   0.00000  Uiso   1.00
C731   C     0.10575   0.11476   0.97993   0.00000  Uiso   1.00
C732   C     0.21350   0.23221   0.52059   0.00000  Uiso   1.00
H733   H     0.20683   0.22254   0.88726   0.00000  Uiso   1.00
H734   H     0.11587   0.12062   0.61357   0.00000  Uiso   1.00
H735   H     0.08275   0.09387   0.96399   0.00000  Uiso   1.00
H736   H     0.23354   0.25639   0.53675   0.00000  Uiso   1.00
H737   H     0.08401   0.09509   0.54499   0.00000  Uiso   1.00
H738   H     0.23102   0.25633   0.95546   0.00000  Uiso   1.00
H739   H     0.03766   0.09516   0.76813   0.00000  Uiso   1.00
H740   H     0.29566   0.23810   0.73237   0.00000  Uiso   1.00
H741   H     0.29581   0.09523   0.76880   0.00000  Uiso   1.00
H742   H     0.03748   0.23805   0.73176   0.00000  Uiso   1.00
H743   H     0.22935   0.04151   0.77159   0.00000  Uiso   1.00
H744   H     0.10419   0.29182   0.72778   0.00000  Uiso   1.00
H745   H     0.10419   0.04245   0.72775   0.00000  Uiso   1.00
H746   H     0.22932   0.29091   0.77168   0.00000  Uiso   1.00
N747   N     0.16667   0.28573   0.75000   0.00000  Uiso   1.00
N748   N     0.16667   0.04760   0.75000   0.00000  Uiso   1.00
O749   O     0.10559   0.20487   0.75000   0.00000  Uiso   1.00
O750   O     0.22774   0.12846   0.75001   0.00000  Uiso   1.00
O751   O     0.22774   0.20487   0.75001   0.00000  Uiso   1.00
O752   O     0.10559   0.12846   0.75000   0.00000  Uiso   1.00
O753   O     0.16666   0.20489   0.68393   0.00000  Uiso   1.00
O754   O     0.16667   0.12844   0.81608   0.00000  Uiso   1.00
O755   O     0.16667   0.20489   0.81608   0.00000  Uiso   1.00
O756   O     0.16666   0.12844   0.68393   0.00000  Uiso   1.00
Zn757  Zn    0.16667   0.21771   0.75000   0.00000  Uiso   1.00
Zn758  Zn    0.16667   0.11563   0.75000   0.00000  Uiso   1.00
O759   O     0.11833   0.10123   0.88567   0.00000  Uiso   1.00
C760   C     0.13084   0.05731   0.90066   0.00000  Uiso   1.00
H761   H     0.10346   0.04012   0.91609   0.00000  Uiso   1.00
H762   H     0.15649   0.05716   0.92584   0.00000  Uiso   1.00
C763   C     0.14506   0.02925   0.86113   0.00000  Uiso   1.00
H764   H     0.12062   0.02989   0.83491   0.00000  Uiso   1.00
H765   H     0.17411   0.04417   0.84717   0.00000  Uiso   1.00
C766   C     0.15354   0.31353   0.87548   0.00000  Uiso   1.00
H767   H     0.17837   0.31205   0.90124   0.00000  Uiso   1.00
H768   H     0.16396   0.29390   0.84627   0.00000  Uiso   1.00
H769   H     0.12480   0.29755   0.88919   0.00000  Uiso   1.00
O770   O     0.22485   0.21972   0.61494   0.00000  Uiso   1.00
C771   C     0.26466   0.20000   0.60780   0.00000  Uiso   1.00
H772   H     0.28796   0.22268   0.62321   0.00000  Uiso   1.00
H773   H     0.27292   0.19835   0.57177   0.00000  Uiso   1.00
C774   C     0.26878   0.15260   0.62940   0.00000  Uiso   1.00
H775   H     0.25660   0.15316   0.66394   0.00000  Uiso   1.00
H776   H     0.25017   0.12785   0.61031   0.00000  Uiso   1.00
C777   C     0.31405   0.13678   0.63037   0.00000  Uiso   1.00
H778   H     0.32671   0.13509   0.59586   0.00000  Uiso   1.00
H779   H     0.31587   0.10254   0.64620   0.00000  Uiso   1.00
H780   H     0.00002   0.16031   0.65012   0.00000  Uiso   1.00
C781   C     0.41996   0.16667   0.74992   0.00000  Uiso   1.00
C782   C     0.58002   0.16666   0.75084   0.00000  Uiso   1.00
C783   C     0.43925   0.11596   0.52626   0.00000  Uiso   1.00
C784   C     0.54523   0.23245   0.97424   0.00000  Uiso   1.00
C785   C     0.35469   0.12641   0.76017   0.00000  Uiso   1.00
C786   C     0.64529   0.20690   0.74053   0.00000  Uiso   1.00
C787   C     0.64538   0.12645   0.76061   0.00000  Uiso   1.00
C788   C     0.35460   0.20687   0.74010   0.00000  Uiso   1.00
C789   C     0.62417   0.16671   0.75086   0.00000  Uiso   1.00
C790   C     0.37581   0.16664   0.75000   0.00000  Uiso   1.00
C791   C     0.53487   0.02370   0.76175   0.00000  Uiso   1.00
C792   C     0.46530   0.30963   0.73770   0.00000  Uiso   1.00
C793   C     0.46531   0.02421   0.73765   0.00000  Uiso   1.00
C794   C     0.53485   0.30913   0.76182   0.00000  Uiso   1.00
C795   C     0.50040   0.16708   0.66344   0.00000  Uiso   1.00
C796   C     0.49926   0.16629   0.83671   0.00000  Uiso   1.00
C797   C     0.52072   0.19916   0.90639   0.00000  Uiso   1.00
C798   C     0.47034   0.14196   0.59421   0.00000  Uiso   1.00
C799   C     0.49774   0.16607   0.88472   0.00000  Uiso   1.00
C800   C     0.49979   0.16831   0.61568   0.00000  Uiso   1.00
C801   C     0.47276   0.13479   0.90856   0.00000  Uiso   1.00
C802   C     0.52768   0.19637   0.59193   0.00000  Uiso   1.00
C803   C     0.46834   0.14003   0.95496   0.00000  Uiso   1.00
C804   C     0.52338   0.20055   0.54550   0.00000  Uiso   1.00
C805   C     0.49425   0.17128   0.97693   0.00000  Uiso   1.00
C806   C     0.49500   0.17193   0.52354   0.00000  Uiso   1.00
C807   C     0.52018   0.20112   0.95242   0.00000  Uiso   1.00
C808   C     0.46814   0.14302   0.54811   0.00000  Uiso   1.00
C809   C     0.43908   0.11476   0.97993   0.00000  Uiso   1.00
C810   C     0.54684   0.23221   0.52059   0.00000  Uiso   1.00
H811   H     0.54016   0.22254   0.88726   0.00000  Uiso   1.00
H812   H     0.44921   0.12062   0.61357   0.00000  Uiso   1.00
H813   H     0.41608   0.09387   0.96399   0.00000  Uiso   1.00
H814   H     0.56687   0.25639   0.53675   0.00000  Uiso   1.00
H815   H     0.41735   0.09509   0.54499   0.00000  Uiso   1.00
H816   H     0.56436   0.25633   0.95546   0.00000  Uiso   1.00
H817   H     0.37100   0.09516   0.76813   0.00000  Uiso   1.00
H818   H     0.62899   0.23810   0.73237   0.00000  Uiso   1.00
H819   H     0.62914   0.09523   0.76880   0.00000  Uiso   1.00
H820   H     0.37081   0.23805   0.73176   0.00000  Uiso   1.00
H821   H     0.56268   0.04151   0.77159   0.00000  Uiso   1.00
H822   H     0.43752   0.29182   0.72778   0.00000  Uiso   1.00
H823   H     0.43752   0.04245   0.72775   0.00000  Uiso   1.00
H824   H     0.56266   0.29091   0.77168   0.00000  Uiso   1.00
N825   N     0.50000   0.28573   0.75000   0.00000  Uiso   1.00
N826   N     0.50000   0.04760   0.75000   0.00000  Uiso   1.00
O827   O     0.43892   0.20487   0.75000   0.00000  Uiso   1.00
O828   O     0.56108   0.12846   0.75001   0.00000  Uiso   1.00
O829   O     0.56108   0.20487   0.75001   0.00000  Uiso   1.00
O830   O     0.43892   0.12846   0.75000   0.00000  Uiso   1.00
O831   O     0.49999   0.20489   0.68393   0.00000  Uiso   1.00
O832   O     0.50001   0.12844   0.81608   0.00000  Uiso   1.00
O833   O     0.50001   0.20489   0.81608   0.00000  Uiso   1.00
O834   O     0.49999   0.12844   0.68393   0.00000  Uiso   1.00
Zn835  Zn    0.50000   0.21771   0.75000   0.00000  Uiso   1.00
Zn836  Zn    0.50000   0.11563   0.75000   0.00000  Uiso   1.00
O837   O     0.45166   0.10123   0.88567   0.00000  Uiso   1.00
C838   C     0.46418   0.05731   0.90066   0.00000  Uiso   1.00
H839   H     0.43680   0.04012   0.91609   0.00000  Uiso   1.00
H840   H     0.48983   0.05716   0.92584   0.00000  Uiso   1.00
C841   C     0.47839   0.02925   0.86113   0.00000  Uiso   1.00
H842   H     0.45395   0.02989   0.83491   0.00000  Uiso   1.00
H843   H     0.50744   0.04417   0.84717   0.00000  Uiso   1.00
C844   C     0.48687   0.31353   0.87548   0.00000  Uiso   1.00
H845   H     0.51170   0.31205   0.90124   0.00000  Uiso   1.00
H846   H     0.49729   0.29390   0.84627   0.00000  Uiso   1.00
H847   H     0.45814   0.29755   0.88919   0.00000  Uiso   1.00
O848   O     0.55818   0.21972   0.61494   0.00000  Uiso   1.00
C849   C     0.59800   0.20000   0.60780   0.00000  Uiso   1.00
H850   H     0.62129   0.22268   0.62321   0.00000  Uiso   1.00
H851   H     0.60625   0.19835   0.57177   0.00000  Uiso   1.00
C852   C     0.60212   0.15260   0.62940   0.00000  Uiso   1.00
H853   H     0.58993   0.15316   0.66394   0.00000  Uiso   1.00
H854   H     0.58350   0.12785   0.61031   0.00000  Uiso   1.00
C855   C     0.64738   0.13678   0.63037   0.00000  Uiso   1.00
H856   H     0.66004   0.13509   0.59586   0.00000  Uiso   1.00
H857   H     0.64920   0.10254   0.64620   0.00000  Uiso   1.00
H858   H     0.33336   0.16031   0.65012   0.00000  Uiso   1.00
C859   C     0.75330   0.16667   0.74992   0.00000  Uiso   1.00
C860   C     0.91335   0.16666   0.75084   0.00000  Uiso   1.00
C861   C     0.77259   0.11596   0.52626   0.00000  Uiso   1.00
C862   C     0.87857   0.23245   0.97424   0.00000  Uiso   1.00
C863   C     0.68803   0.12641   0.76017   0.00000  Uiso   1.00
C864   C     0.97862   0.20690   0.74053   0.00000  Uiso   1.00
C865   C     0.97871   0.12645   0.76061   0.00000  Uiso   1.00
C866   C     0.68793   0.20687   0.74010   0.00000  Uiso   1.00
C867   C     0.95750   0.16671   0.75086   0.00000  Uiso   1.00
C868   C     0.70915   0.16664   0.75000   0.00000  Uiso   1.00
C869   C     0.86821   0.02370   0.76175   0.00000  Uiso   1.00
C870   C     0.79863   0.30963   0.73770   0.00000  Uiso   1.00
C871   C     0.79864   0.02421   0.73765   0.00000  Uiso   1.00
C872   C     0.86819   0.30913   0.76182   0.00000  Uiso   1.00
C873   C     0.83374   0.16708   0.66344   0.00000  Uiso   1.00
C874   C     0.83259   0.16629   0.83671   0.00000  Uiso   1.00
C875   C     0.85405   0.19916   0.90639   0.00000  Uiso   1.00
C876   C     0.80367   0.14196   0.59421   0.00000  Uiso   1.00
C877   C     0.83108   0.16607   0.88472   0.00000  Uiso   1.00
C878   C     0.83313   0.16831   0.61568   0.00000  Uiso   1.00
C879   C     0.80609   0.13479   0.90856   0.00000  Uiso   1.00
C880   C     0.86101   0.19637   0.59193   0.00000  Uiso   1.00
C881   C     0.80168   0.14003   0.95496   0.00000  Uiso   1.00
C882   C     0.85672   0.20055   0.54550   0.00000  Uiso   1.00
C883   C     0.82758   0.17128   0.97693   0.00000  Uiso   1.00
C884   C     0.82833   0.17193   0.52354   0.00000  Uiso   1.00
C885   C     0.85352   0.20112   0.95242   0.00000  Uiso   1.00
C886   C     0.80147   0.14302   0.54811   0.00000  Uiso   1.00
C887   C     0.77242   0.11476   0.97993   0.00000  Uiso   1.00
C888   C     0.88017   0.23221   0.52059   0.00000  Uiso   1.00
H889   H     0.87349   0.22254   0.88726   0.00000  Uiso   1.00
H890   H     0.78254   0.12062   0.61357   0.00000  Uiso   1.00
H891   H     0.74942   0.09387   0.96399   0.00000  Uiso   1.00
H892   H     0.90020   0.25639   0.53675   0.00000  Uiso   1.00
H893   H     0.75068   0.09509   0.54499   0.00000  Uiso   1.00
H894   H     0.89769   0.25633   0.95546   0.00000  Uiso   1.00
H895   H     0.70433   0.09516   0.76813   0.00000  Uiso   1.00
H896   H     0.96233   0.23810   0.73237   0.00000  Uiso   1.00
H897   H     0.96248   0.09523   0.76880   0.00000  Uiso   1.00
H898   H     0.70415   0.23805   0.73176   0.00000  Uiso   1.00
H899   H     0.89601   0.04151   0.77159   0.00000  Uiso   1.00
H900   H     0.77085   0.29182   0.72778   0.00000  Uiso   1.00
H901   H     0.77086   0.04245   0.72775   0.00000  Uiso   1.00
H902   H     0.89599   0.29091   0.77168   0.00000  Uiso   1.00
N903   N     0.83333   0.28573   0.75000   0.00000  Uiso   1.00
N904   N     0.83333   0.04760   0.75000   0.00000  Uiso   1.00
O905   O     0.77226   0.20487   0.75000   0.00000  Uiso   1.00
O906   O     0.89441   0.12846   0.75001   0.00000  Uiso   1.00
O907   O     0.89441   0.20487   0.75001   0.00000  Uiso   1.00
O908   O     0.77226   0.12846   0.75000   0.00000  Uiso   1.00
O909   O     0.83333   0.20489   0.68393   0.00000  Uiso   1.00
O910   O     0.83334   0.12844   0.81608   0.00000  Uiso   1.00
O911   O     0.83334   0.20489   0.81608   0.00000  Uiso   1.00
O912   O     0.83333   0.12844   0.68393   0.00000  Uiso   1.00
Zn913  Zn    0.83333   0.21771   0.75000   0.00000  Uiso   1.00
Zn914  Zn    0.83333   0.11563   0.75000   0.00000  Uiso   1.00
O915   O     0.78500   0.10123   0.88567   0.00000  Uiso   1.00
C916   C     0.79751   0.05731   0.90066   0.00000  Uiso   1.00
H917   H     0.77013   0.04012   0.91609   0.00000  Uiso   1.00
H918   H     0.82316   0.05716   0.92584   0.00000  Uiso   1.00
C919   C     0.81173   0.02925   0.86113   0.00000  Uiso   1.00
H920   H     0.78729   0.02989   0.83491   0.00000  Uiso   1.00
H921   H     0.84078   0.04417   0.84717   0.00000  Uiso   1.00
C922   C     0.82021   0.31353   0.87548   0.00000  Uiso   1.00
H923   H     0.84504   0.31205   0.90124   0.00000  Uiso   1.00
H924   H     0.83062   0.29390   0.84627   0.00000  Uiso   1.00
H925   H     0.79147   0.29755   0.88919   0.00000  Uiso   1.00
O926   O     0.89151   0.21972   0.61494   0.00000  Uiso   1.00
C927   C     0.93133   0.20000   0.60780   0.00000  Uiso   1.00
H928   H     0.95462   0.22268   0.62321   0.00000  Uiso   1.00
H929   H     0.93959   0.19835   0.57177   0.00000  Uiso   1.00
C930   C     0.93545   0.15260   0.62940   0.00000  Uiso   1.00
H931   H     0.92327   0.15316   0.66394   0.00000  Uiso   1.00
H932   H     0.91684   0.12785   0.61031   0.00000  Uiso   1.00
C933   C     0.98072   0.13678   0.63037   0.00000  Uiso   1.00
H934   H     0.99338   0.13509   0.59586   0.00000  Uiso   1.00
H935   H     0.98254   0.10254   0.64620   0.00000  Uiso   1.00
H936   H     0.66669   0.16031   0.65012   0.00000  Uiso   1.00
C937   C     0.08663   0.50001   0.74992   0.00000  Uiso   1.00
C938   C     0.24668   0.49999   0.75084   0.00000  Uiso   1.00
C939   C     0.10592   0.44929   0.52626   0.00000  Uiso   1.00
C940   C     0.21190   0.56578   0.97424   0.00000  Uiso   1.00
C941   C     0.02136   0.45974   0.76017   0.00000  Uiso   1.00
C942   C     0.31196   0.54023   0.74053   0.00000  Uiso   1.00
C943   C     0.31205   0.45978   0.76061   0.00000  Uiso   1.00
C944   C     0.02126   0.54020   0.74010   0.00000  Uiso   1.00
C945   C     0.29084   0.50004   0.75086   0.00000  Uiso   1.00
C946   C     0.04248   0.49998   0.75000   0.00000  Uiso   1.00
C947   C     0.20154   0.35704   0.76175   0.00000  Uiso   1.00
C948   C     0.13196   0.64297   0.73770   0.00000  Uiso   1.00
C949   C     0.13197   0.35755   0.73765   0.00000  Uiso   1.00
C950   C     0.20152   0.64246   0.76182   0.00000  Uiso   1.00
C951   C     0.16707   0.50041   0.66344   0.00000  Uiso   1.00
C952   C     0.16593   0.49962   0.83671   0.00000  Uiso   1.00
C953   C     0.18739   0.53249   0.90639   0.00000  Uiso   1.00
C954   C     0.13700   0.47529   0.59421   0.00000  Uiso   1.00
C955   C     0.16441   0.49941   0.88472   0.00000  Uiso   1.00
C956   C     0.16646   0.50165   0.61568   0.00000  Uiso   1.00
C957   C     0.13943   0.46812   0.90856   0.00000  Uiso   1.00
C958   C     0.19435   0.52971   0.59193   0.00000  Uiso   1.00
C959   C     0.13501   0.47337   0.95496   0.00000  Uiso   1.00
C960   C     0.19005   0.53389   0.54550   0.00000  Uiso   1.00
C961   C     0.16091   0.50461   0.97693   0.00000  Uiso   1.00
C962   C     0.16166   0.50526   0.52354   0.00000  Uiso   1.00
C963   C     0.18685   0.53445   0.95242   0.00000  Uiso   1.00
C964   C     0.13481   0.47636   0.54811   0.00000  Uiso   1.00
C965   C     0.10575   0.44809   0.97993   0.00000  Uiso   1.00
C966   C     0.21350   0.56554   0.52059   0.00000  Uiso   1.00
H967   H     0.20683   0.55588   0.88726   0.00000  Uiso   1.00
H968   H     0.11587   0.45395   0.61357   0.00000  Uiso   1.00
H969   H     0.08275   0.42720   0.96399   0.00000  Uiso   1.00
H970   H     0.23354   0.58973   0.53675   0.00000  Uiso   1.00
H971   H     0.08401   0.42843   0.54499   0.00000  Uiso   1.00
H972   H     0.23102   0.58967   0.95546   0.00000  Uiso   1.00
H973   H     0.03766   0.42849   0.76813   0.00000  Uiso   1.00
H974   H     0.29566   0.57144   0.73237   0.00000  Uiso   1.00
H975   H     0.29581   0.42857   0.76880   0.00000  Uiso   1.00
H976   H     0.03748   0.57139   0.73176   0.00000  Uiso   1.00
H977   H     0.22935   0.37484   0.77159   0.00000  Uiso   1.00
H978   H     0.10419   0.62515   0.72778   0.00000  Uiso   1.00
H979   H     0.10419   0.37578   0.72775   0.00000  Uiso   1.00
H980   H     0.22932   0.62424   0.77168   0.00000  Uiso   1.00
N981   N     0.16667   0.61907   0.75000   0.00000  Uiso   1.00
N982   N     0.16667   0.38093   0.75000   0.00000  Uiso   1.00
O983   O     0.10559   0.53821   0.75000   0.00000  Uiso   1.00
O984   O     0.22774   0.46179   0.75001   0.00000  Uiso   1.00
O985   O     0.22774   0.53821   0.75001   0.00000  Uiso   1.00
O986   O     0.10559   0.46179   0.75000   0.00000  Uiso   1.00
O987   O     0.16666   0.53823   0.68393   0.00000  Uiso   1.00
O988   O     0.16667   0.46177   0.81608   0.00000  Uiso   1.00
O989   O     0.16667   0.53823   0.81608   0.00000  Uiso   1.00
O990   O     0.16666   0.46177   0.68393   0.00000  Uiso   1.00
Zn991  Zn    0.16667   0.55104   0.75000   0.00000  Uiso   1.00
Zn992  Zn    0.16667   0.44896   0.75000   0.00000  Uiso   1.00
O993   O     0.11833   0.43456   0.88567   0.00000  Uiso   1.00
C994   C     0.13084   0.39064   0.90066   0.00000  Uiso   1.00
H995   H     0.10346   0.37346   0.91609   0.00000  Uiso   1.00
H996   H     0.15649   0.39049   0.92584   0.00000  Uiso   1.00
C997   C     0.14506   0.36258   0.86113   0.00000  Uiso   1.00
H998   H     0.12062   0.36322   0.83491   0.00000  Uiso   1.00
H999   H     0.17411   0.37750   0.84717   0.00000  Uiso   1.00
C1000  C     0.15354   0.64686   0.87548   0.00000  Uiso   1.00
H1001  H     0.17837   0.64539   0.90124   0.00000  Uiso   1.00
H1002  H     0.16396   0.62724   0.84627   0.00000  Uiso   1.00
H1003  H     0.12480   0.63089   0.88919   0.00000  Uiso   1.00
O1004  O     0.22485   0.55305   0.61494   0.00000  Uiso   1.00
C1005  C     0.26466   0.53333   0.60780   0.00000  Uiso   1.00
H1006  H     0.28796   0.55601   0.62321   0.00000  Uiso   1.00
H1007  H     0.27292   0.53169   0.57177   0.00000  Uiso   1.00
C1008  C     0.26878   0.48593   0.62940   0.00000  Uiso   1.00
H1009  H     0.25660   0.48650   0.66394   0.00000  Uiso   1.00
H1010  H     0.25017   0.46118   0.61031   0.00000  Uiso   1.00
C1011  C     0.31405   0.47011   0.63037   0.00000  Uiso   1.00
H1012  H     0.32671   0.46842   0.59586   0.00000  Uiso   1.00
H1013  H     0.31587   0.43587   0.64620   0.00000  Uiso   1.00
H1014  H     0.00002   0.49364   0.65012   0.00000  Uiso   1.00
C1015  C     0.41996   0.50001   0.74992   0.00000  Uiso   1.00
C1016  C     0.58002   0.49999   0.75084   0.00000  Uiso   1.00
C1017  C     0.43925   0.44929   0.52626   0.00000  Uiso   1.00
C1018  C     0.54523   0.56578   0.97424   0.00000  Uiso   1.00
C1019  C     0.35469   0.45974   0.76017   0.00000  Uiso   1.00
C1020  C     0.64529   0.54023   0.74053   0.00000  Uiso   1.00
C1021  C     0.64538   0.45978   0.76061   0.00000  Uiso   1.00
C1022  C     0.35460   0.54020   0.74010   0.00000  Uiso   1.00
C1023  C     0.62417   0.50004   0.75086   0.00000  Uiso   1.00
C1024  C     0.37581   0.49998   0.75000   0.00000  Uiso   1.00
C1025  C     0.53487   0.35704   0.76175   0.00000  Uiso   1.00
C1026  C     0.46530   0.64297   0.73770   0.00000  Uiso   1.00
C1027  C     0.46531   0.35755   0.73765   0.00000  Uiso   1.00
C1028  C     0.53485   0.64246   0.76182   0.00000  Uiso   1.00
C1029  C     0.50040   0.50041   0.66344   0.00000  Uiso   1.00
C1030  C     0.49926   0.49962   0.83671   0.00000  Uiso   1.00
C1031  C     0.52072   0.53249   0.90639   0.00000  Uiso   1.00
C1032  C     0.47034   0.47529   0.59421   0.00000  Uiso   1.00
C1033  C     0.49774   0.49941   0.88472   0.00000  Uiso   1.00
C1034  C     0.49979   0.50165   0.61568   0.00000  Uiso   1.00
C1035  C     0.47276   0.46812   0.90856   0.00000  Uiso   1.00
C1036  C     0.52768   0.52971   0.59193   0.00000  Uiso   1.00
C1037  C     0.46834   0.47337   0.95496   0.00000  Uiso   1.00
C1038  C     0.52338   0.53389   0.54550   0.00000  Uiso   1.00
C1039  C     0.49425   0.50461   0.97693   0.00000  Uiso   1.00
C1040  C     0.49500   0.50526   0.52354   0.00000  Uiso   1.00
C1041  C     0.52018   0.53445   0.95242   0.00000  Uiso   1.00
C1042  C     0.46814   0.47636   0.54811   0.00000  Uiso   1.00
C1043  C     0.43908   0.44809   0.97993   0.00000  Uiso   1.00
C1044  C     0.54684   0.56554   0.52059   0.00000  Uiso   1.00
H1045  H     0.54016   0.55588   0.88726   0.00000  Uiso   1.00
H1046  H     0.44921   0.45395   0.61357   0.00000  Uiso   1.00
H1047  H     0.41608   0.42720   0.96399   0.00000  Uiso   1.00
H1048  H     0.56687   0.58973   0.53675   0.00000  Uiso   1.00
H1049  H     0.41735   0.42843   0.54499   0.00000  Uiso   1.00
H1050  H     0.56436   0.58967   0.95546   0.00000  Uiso   1.00
H1051  H     0.37100   0.42849   0.76813   0.00000  Uiso   1.00
H1052  H     0.62899   0.57144   0.73237   0.00000  Uiso   1.00
H1053  H     0.62914   0.42857   0.76880   0.00000  Uiso   1.00
H1054  H     0.37081   0.57139   0.73176   0.00000  Uiso   1.00
H1055  H     0.56268   0.37484   0.77159   0.00000  Uiso   1.00
H1056  H     0.43752   0.62515   0.72778   0.00000  Uiso   1.00
H1057  H     0.43752   0.37578   0.72775   0.00000  Uiso   1.00
H1058  H     0.56266   0.62424   0.77168   0.00000  Uiso   1.00
N1059  N     0.50000   0.61907   0.75000   0.00000  Uiso   1.00
N1060  N     0.50000   0.38093   0.75000   0.00000  Uiso   1.00
O1061  O     0.43892   0.53821   0.75000   0.00000  Uiso   1.00
O1062  O     0.56108   0.46179   0.75001   0.00000  Uiso   1.00
O1063  O     0.56108   0.53821   0.75001   0.00000  Uiso   1.00
O1064  O     0.43892   0.46179   0.75000   0.00000  Uiso   1.00
O1065  O     0.49999   0.53823   0.68393   0.00000  Uiso   1.00
O1066  O     0.50001   0.46177   0.81608   0.00000  Uiso   1.00
O1067  O     0.50001   0.53823   0.81608   0.00000  Uiso   1.00
O1068  O     0.49999   0.46177   0.68393   0.00000  Uiso   1.00
Zn1069 Zn    0.50000   0.55104   0.75000   0.00000  Uiso   1.00
Zn1070 Zn    0.50000   0.44896   0.75000   0.00000  Uiso   1.00
O1071  O     0.45166   0.43456   0.88567   0.00000  Uiso   1.00
C1072  C     0.46418   0.39064   0.90066   0.00000  Uiso   1.00
H1073  H     0.43680   0.37346   0.91609   0.00000  Uiso   1.00
H1074  H     0.48983   0.39049   0.92584   0.00000  Uiso   1.00
C1075  C     0.47839   0.36258   0.86113   0.00000  Uiso   1.00
H1076  H     0.45395   0.36322   0.83491   0.00000  Uiso   1.00
H1077  H     0.50744   0.37750   0.84717   0.00000  Uiso   1.00
C1078  C     0.48687   0.64686   0.87548   0.00000  Uiso   1.00
H1079  H     0.51170   0.64539   0.90124   0.00000  Uiso   1.00
H1080  H     0.49729   0.62724   0.84627   0.00000  Uiso   1.00
H1081  H     0.45814   0.63089   0.88919   0.00000  Uiso   1.00
O1082  O     0.55818   0.55305   0.61494   0.00000  Uiso   1.00
C1083  C     0.59800   0.53333   0.60780   0.00000  Uiso   1.00
H1084  H     0.62129   0.55601   0.62321   0.00000  Uiso   1.00
H1085  H     0.60625   0.53169   0.57177   0.00000  Uiso   1.00
C1086  C     0.60212   0.48593   0.62940   0.00000  Uiso   1.00
H1087  H     0.58993   0.48650   0.66394   0.00000  Uiso   1.00
H1088  H     0.58350   0.46118   0.61031   0.00000  Uiso   1.00
C1089  C     0.64738   0.47011   0.63037   0.00000  Uiso   1.00
H1090  H     0.66004   0.46842   0.59586   0.00000  Uiso   1.00
H1091  H     0.64920   0.43587   0.64620   0.00000  Uiso   1.00
H1092  H     0.33336   0.49364   0.65012   0.00000  Uiso   1.00
C1093  C     0.75330   0.50001   0.74992   0.00000  Uiso   1.00
C1094  C     0.91335   0.49999   0.75084   0.00000  Uiso   1.00
C1095  C     0.77259   0.44929   0.52626   0.00000  Uiso   1.00
C1096  C     0.87857   0.56578   0.97424   0.00000  Uiso   1.00
C1097  C     0.68803   0.45974   0.76017   0.00000  Uiso   1.00
C1098  C     0.97862   0.54023   0.74053   0.00000  Uiso   1.00
C1099  C     0.97871   0.45978   0.76061   0.00000  Uiso   1.00
C1100  C     0.68793   0.54020   0.74010   0.00000  Uiso   1.00
C1101  C     0.95750   0.50004   0.75086   0.00000  Uiso   1.00
C1102  C     0.70915   0.49998   0.75000   0.00000  Uiso   1.00
C1103  C     0.86821   0.35704   0.76175   0.00000  Uiso   1.00
C1104  C     0.79863   0.64297   0.73770   0.00000  Uiso   1.00
C1105  C     0.79864   0.35755   0.73765   0.00000  Uiso   1.00
C1106  C     0.86819   0.64246   0.76182   0.00000  Uiso   1.00
C1107  C     0.83374   0.50041   0.66344   0.00000  Uiso   1.00
C1108  C     0.83259   0.49962   0.83671   0.00000  Uiso   1.00
C1109  C     0.85405   0.53249   0.90639   0.00000  Uiso   1.00
C1110  C     0.80367   0.47529   0.59421   0.00000  Uiso   1.00
C1111  C     0.83108   0.49941   0.88472   0.00000  Uiso   1.00
C1112  C     0.83313   0.50165   0.61568   0.00000  Uiso   1.00
C1113  C     0.80609   0.46812   0.90856   0.00000  Uiso   1.00
C1114  C     0.86101   0.52971   0.59193   0.00000  Uiso   1.00
C1115  C     0.80168   0.47337   0.95496   0.00000  Uiso   1.00
C1116  C     0.85672   0.53389   0.54550   0.00000  Uiso   1.00
C1117  C     0.82758   0.50461   0.97693   0.00000  Uiso   1.00
C1118  C     0.82833   0.50526   0.52354   0.00000  Uiso   1.00
C1119  C     0.85352   0.53445   0.95242   0.00000  Uiso   1.00
C1120  C     0.80147   0.47636   0.54811   0.00000  Uiso   1.00
C1121  C     0.77242   0.44809   0.97993   0.00000  Uiso   1.00
C1122  C     0.88017   0.56554   0.52059   0.00000  Uiso   1.00
H1123  H     0.87349   0.55588   0.88726   0.00000  Uiso   1.00
H1124  H     0.78254   0.45395   0.61357   0.00000  Uiso   1.00
H1125  H     0.74942   0.42720   0.96399   0.00000  Uiso   1.00
H1126  H     0.90020   0.58973   0.53675   0.00000  Uiso   1.00
H1127  H     0.75068   0.42843   0.54499   0.00000  Uiso   1.00
H1128  H     0.89769   0.58967   0.95546   0.00000  Uiso   1.00
H1129  H     0.70433   0.42849   0.76813   0.00000  Uiso   1.00
H1130  H     0.96233   0.57144   0.73237   0.00000  Uiso   1.00
H1131  H     0.96248   0.42857   0.76880   0.00000  Uiso   1.00
H1132  H     0.70415   0.57139   0.73176   0.00000  Uiso   1.00
H1133  H     0.89601   0.37484   0.77159   0.00000  Uiso   1.00
H1134  H     0.77085   0.62515   0.72778   0.00000  Uiso   1.00
H1135  H     0.77086   0.37578   0.72775   0.00000  Uiso   1.00
H1136  H     0.89599   0.62424   0.77168   0.00000  Uiso   1.00
N1137  N     0.83333   0.61907   0.75000   0.00000  Uiso   1.00
N1138  N     0.83333   0.38093   0.75000   0.00000  Uiso   1.00
O1139  O     0.77226   0.53821   0.75000   0.00000  Uiso   1.00
O1140  O     0.89441   0.46179   0.75001   0.00000  Uiso   1.00
O1141  O     0.89441   0.53821   0.75001   0.00000  Uiso   1.00
O1142  O     0.77226   0.46179   0.75000   0.00000  Uiso   1.00
O1143  O     0.83333   0.53823   0.68393   0.00000  Uiso   1.00
O1144  O     0.83334   0.46177   0.81608   0.00000  Uiso   1.00
O1145  O     0.83334   0.53823   0.81608   0.00000  Uiso   1.00
O1146  O     0.83333   0.46177   0.68393   0.00000  Uiso   1.00
Zn1147 Zn    0.83333   0.55104   0.75000   0.00000  Uiso   1.00
Zn1148 Zn    0.83333   0.44896   0.75000   0.00000  Uiso   1.00
O1149  O     0.78500   0.43456   0.88567   0.00000  Uiso   1.00
C1150  C     0.79751   0.39064   0.90066   0.00000  Uiso   1.00
H1151  H     0.77013   0.37346   0.91609   0.00000  Uiso   1.00
H1152  H     0.82316   0.39049   0.92584   0.00000  Uiso   1.00
C1153  C     0.81173   0.36258   0.86113   0.00000  Uiso   1.00
H1154  H     0.78729   0.36322   0.83491   0.00000  Uiso   1.00
H1155  H     0.84078   0.37750   0.84717   0.00000  Uiso   1.00
C1156  C     0.82021   0.64686   0.87548   0.00000  Uiso   1.00
H1157  H     0.84504   0.64539   0.90124   0.00000  Uiso   1.00
H1158  H     0.83062   0.62724   0.84627   0.00000  Uiso   1.00
H1159  H     0.79147   0.63089   0.88919   0.00000  Uiso   1.00
O1160  O     0.89151   0.55305   0.61494   0.00000  Uiso   1.00
C1161  C     0.93133   0.53333   0.60780   0.00000  Uiso   1.00
H1162  H     0.95462   0.55601   0.62321   0.00000  Uiso   1.00
H1163  H     0.93959   0.53169   0.57177   0.00000  Uiso   1.00
C1164  C     0.93545   0.48593   0.62940   0.00000  Uiso   1.00
H1165  H     0.92327   0.48650   0.66394   0.00000  Uiso   1.00
H1166  H     0.91684   0.46118   0.61031   0.00000  Uiso   1.00
C1167  C     0.98072   0.47011   0.63037   0.00000  Uiso   1.00
H1168  H     0.99338   0.46842   0.59586   0.00000  Uiso   1.00
H1169  H     0.98254   0.43587   0.64620   0.00000  Uiso   1.00
H1170  H     0.66669   0.49364   0.65012   0.00000  Uiso   1.00
C1171  C     0.08663   0.83334   0.74992   0.00000  Uiso   1.00
C1172  C     0.24668   0.83333   0.75084   0.00000  Uiso   1.00
C1173  C     0.10592   0.78263   0.52626   0.00000  Uiso   1.00
C1174  C     0.21190   0.89911   0.97424   0.00000  Uiso   1.00
C1175  C     0.02136   0.79307   0.76017   0.00000  Uiso   1.00
C1176  C     0.31196   0.87357   0.74053   0.00000  Uiso   1.00
C1177  C     0.31205   0.79312   0.76061   0.00000  Uiso   1.00
C1178  C     0.02126   0.87353   0.74010   0.00000  Uiso   1.00
C1179  C     0.29084   0.83337   0.75086   0.00000  Uiso   1.00
C1180  C     0.04248   0.83331   0.75000   0.00000  Uiso   1.00
C1181  C     0.20154   0.69037   0.76175   0.00000  Uiso   1.00
C1182  C     0.13196   0.97630   0.73770   0.00000  Uiso   1.00
C1183  C     0.13197   0.69088   0.73765   0.00000  Uiso   1.00
C1184  C     0.20152   0.97579   0.76182   0.00000  Uiso   1.00
C1185  C     0.16707   0.83375   0.66344   0.00000  Uiso   1.00
C1186  C     0.16593   0.83295   0.83671   0.00000  Uiso   1.00
C1187  C     0.18739   0.86582   0.90639   0.00000  Uiso   1.00
C1188  C     0.13700   0.80863   0.59421   0.00000  Uiso   1.00
C1189  C     0.16441   0.83274   0.88472   0.00000  Uiso   1.00
C1190  C     0.16646   0.83498   0.61568   0.00000  Uiso   1.00
C1191  C     0.13943   0.80145   0.90856   0.00000  Uiso   1.00
C1192  C     0.19435   0.86304   0.59193   0.00000  Uiso   1.00
C1193  C     0.13501   0.80670   0.95496   0.00000  Uiso   1.00
C1194  C     0.19005   0.86722   0.54550   0.00000  Uiso   1.00
C1195  C     0.16091   0.83795   0.97693   0.00000  Uiso   1.00
C1196  C     0.16166   0.83859   0.52354   0.00000  Uiso   1.00
C1197  C     0.18685   0.86778   0.95242   0.00000  Uiso   1.00
C1198  C     0.13481   0.80969   0.54811   0.00000  Uiso   1.00
C1199  C     0.10575   0.78143   0.97993   0.00000  Uiso   1.00
C1200  C     0.21350   0.89887   0.52059   0.00000  Uiso   1.00
H1201  H     0.20683   0.88921   0.88726   0.00000  Uiso   1.00
H1202  H     0.11587   0.78728   0.61357   0.00000  Uiso   1.00
H1203  H     0.08275   0.76053   0.96399   0.00000  Uiso   1.00
H1204  H     0.23354   0.92306   0.53675   0.00000  Uiso   1.00
H1205  H     0.08401   0.76176   0.54499   0.00000  Uiso   1.00
H1206  H     0.23102   0.92300   0.95546   0.00000  Uiso   1.00
H1207  H     0.03766   0.76183   0.76813   0.00000  Uiso   1.00
H1208  H     0.29566   0.90477   0.73237   0.00000  Uiso   1.00
H1209  H     0.29581   0.76190   0.76880   0.00000  Uiso   1.00
H1210  H     0.03748   0.90472   0.73176   0.00000  Uiso   1.00
H1211  H     0.22935   0.70818   0.77159   0.00000  Uiso   1.00
H1212  H     0.10419   0.95848   0.72778   0.00000  Uiso   1.00
H1213  H     0.10419   0.70911   0.72775   0.00000  Uiso   1.00
H1214  H     0.22932   0.95757   0.77168   0.00000  Uiso   1.00
N1215  N     0.16667   0.95240   0.75000   0.00000  Uiso   1.00
N1216  N     0.16667   0.71427   0.75000   0.00000  Uiso   1.00
O1217  O     0.10559   0.87154   0.75000   0.00000  Uiso   1.00
O1218  O     0.22774   0.79513   0.75001   0.00000  Uiso   1.00
O1219  O     0.22774   0.87154   0.75001   0.00000  Uiso   1.00
O1220  O     0.10559   0.79513   0.75000   0.00000  Uiso   1.00
O1221  O     0.16666   0.87156   0.68393   0.00000  Uiso   1.00
O1222  O     0.16667   0.79511   0.81608   0.00000  Uiso   1.00
O1223  O     0.16667   0.87156   0.81608   0.00000  Uiso   1.00
O1224  O     0.16666   0.79511   0.68393   0.00000  Uiso   1.00
Zn1225 Zn    0.16667   0.88437   0.75000   0.00000  Uiso   1.00
Zn1226 Zn    0.16667   0.78229   0.75000   0.00000  Uiso   1.00
O1227  O     0.11833   0.76790   0.88567   0.00000  Uiso   1.00
C1228  C     0.13084   0.72397   0.90066   0.00000  Uiso   1.00
H1229  H     0.10346   0.70679   0.91609   0.00000  Uiso   1.00
H1230  H     0.15649   0.72383   0.92584   0.00000  Uiso   1.00
C1231  C     0.14506   0.69592   0.86113   0.00000  Uiso   1.00
H1232  H     0.12062   0.69656   0.83491   0.00000  Uiso   1.00
H1233  H     0.17411   0.71084   0.84717   0.00000  Uiso   1.00
C1234  C     0.15354   0.98020   0.87548   0.00000  Uiso   1.00
H1235  H     0.17837   0.97872   0.90124   0.00000  Uiso   1.00
H1236  H     0.16396   0.96057   0.84627   0.00000  Uiso   1.00
H1237  H     0.12480   0.96422   0.88919   0.00000  Uiso   1.00
O1238  O     0.22485   0.88639   0.61494   0.00000  Uiso   1.00
C1239  C     0.26466   0.86666   0.60780   0.00000  Uiso   1.00
H1240  H     0.28796   0.88935   0.62321   0.00000  Uiso   1.00
H1241  H     0.27292   0.86502   0.57177   0.00000  Uiso   1.00
C1242  C     0.26878   0.81926   0.62940   0.00000  Uiso   1.00
H1243  H     0.25660   0.81983   0.66394   0.00000  Uiso   1.00
H1244  H     0.25017   0.79452   0.61031   0.00000  Uiso   1.00
C1245  C     0.31405   0.80344   0.63037   0.00000  Uiso   1.00
H1246  H     0.32671   0.80176   0.59586   0.00000  Uiso   1.00
H1247  H     0.31587   0.76921   0.64620   0.00000  Uiso   1.00
H1248  H     0.00002   0.82697   0.65012   0.00000  Uiso   1.00
C1249  C     0.41996   0.83334   0.74992   0.00000  Uiso   1.00
C1250  C     0.58002   0.83333   0.75084   0.00000  Uiso   1.00
C1251  C     0.43925   0.78263   0.52626   0.00000  Uiso   1.00
C1252  C     0.54523   0.89911   0.97424   0.00000  Uiso   1.00
C1253  C     0.35469   0.79307   0.76017   0.00000  Uiso   1.00
C1254  C     0.64529   0.87357   0.74053   0.00000  Uiso   1.00
C1255  C     0.64538   0.79312   0.76061   0.00000  Uiso   1.00
C1256  C     0.35460   0.87353   0.74010   0.00000  Uiso   1.00
C1257  C     0.62417   0.83337   0.75086   0.00000  Uiso   1.00
C1258  C     0.37581   0.83331   0.75000   0.00000  Uiso   1.00
C1259  C     0.53487   0.69037   0.76175   0.00000  Uiso   1.00
C1260  C     0.46530   0.97630   0.73770   0.00000  Uiso   1.00
C1261  C     0.46531   0.69088   0.73765   0.00000  Uiso   1.00
C1262  C     0.53485   0.97579   0.76182   0.00000  Uiso   1.00
C1263  C     0.50040   0.83375   0.66344   0.00000  Uiso   1.00
C1264  C     0.49926   0.83295   0.83671   0.00000  Uiso   1.00
C1265  C     0.52072   0.86582   0.90639   0.00000  Uiso   1.00
C1266  C     0.47034   0.80863   0.59421   0.00000  Uiso   1.00
C1267  C     0.49774   0.83274   0.88472   0.00000  Uiso   1.00
C1268  C     0.49979   0.83498   0.61568   0.00000  Uiso   1.00
C1269  C     0.47276   0.80145   0.90856   0.00000  Uiso   1.00
C1270  C     0.52768   0.86304   0.59193   0.00000  Uiso   1.00
C1271  C     0.46834   0.80670   0.95496   0.00000  Uiso   1.00
C1272  C     0.52338   0.86722   0.54550   0.00000  Uiso   1.00
C1273  C     0.49425   0.83795   0.97693   0.00000  Uiso   1.00
C1274  C     0.49500   0.83859   0.52354   0.00000  Uiso   1.00
C1275  C     0.52018   0.86778   0.95242   0.00000  Uiso   1.00
C1276  C     0.46814   0.80969   0.54811   0.00000  Uiso   1.00
C1277  C     0.43908   0.78143   0.97993   0.00000  Uiso   1.00
C1278  C     0.54684   0.89887   0.52059   0.00000  Uiso   1.00
H1279  H     0.54016   0.88921   0.88726   0.00000  Uiso   1.00
H1280  H     0.44921   0.78728   0.61357   0.00000  Uiso   1.00
H1281  H     0.41608   0.76053   0.96399   0.00000  Uiso   1.00
H1282  H     0.56687   0.92306   0.53675   0.00000  Uiso   1.00
H1283  H     0.41735   0.76176   0.54499   0.00000  Uiso   1.00
H1284  H     0.56436   0.92300   0.95546   0.00000  Uiso   1.00
H1285  H     0.37100   0.76183   0.76813   0.00000  Uiso   1.00
H1286  H     0.62899   0.90477   0.73237   0.00000  Uiso   1.00
H1287  H     0.62914   0.76190   0.76880   0.00000  Uiso   1.00
H1288  H     0.37081   0.90472   0.73176   0.00000  Uiso   1.00
H1289  H     0.56268   0.70818   0.77159   0.00000  Uiso   1.00
H1290  H     0.43752   0.95848   0.72778   0.00000  Uiso   1.00
H1291  H     0.43752   0.70911   0.72775   0.00000  Uiso   1.00
H1292  H     0.56266   0.95757   0.77168   0.00000  Uiso   1.00
N1293  N     0.50000   0.95240   0.75000   0.00000  Uiso   1.00
N1294  N     0.50000   0.71427   0.75000   0.00000  Uiso   1.00
O1295  O     0.43892   0.87154   0.75000   0.00000  Uiso   1.00
O1296  O     0.56108   0.79513   0.75001   0.00000  Uiso   1.00
O1297  O     0.56108   0.87154   0.75001   0.00000  Uiso   1.00
O1298  O     0.43892   0.79513   0.75000   0.00000  Uiso   1.00
O1299  O     0.49999   0.87156   0.68393   0.00000  Uiso   1.00
O1300  O     0.50001   0.79511   0.81608   0.00000  Uiso   1.00
O1301  O     0.50001   0.87156   0.81608   0.00000  Uiso   1.00
O1302  O     0.49999   0.79511   0.68393   0.00000  Uiso   1.00
Zn1303 Zn    0.50000   0.88437   0.75000   0.00000  Uiso   1.00
Zn1304 Zn    0.50000   0.78229   0.75000   0.00000  Uiso   1.00
O1305  O     0.45166   0.76790   0.88567   0.00000  Uiso   1.00
C1306  C     0.46418   0.72397   0.90066   0.00000  Uiso   1.00
H1307  H     0.43680   0.70679   0.91609   0.00000  Uiso   1.00
H1308  H     0.48983   0.72383   0.92584   0.00000  Uiso   1.00
C1309  C     0.47839   0.69592   0.86113   0.00000  Uiso   1.00
H1310  H     0.45395   0.69656   0.83491   0.00000  Uiso   1.00
H1311  H     0.50744   0.71084   0.84717   0.00000  Uiso   1.00
C1312  C     0.48687   0.98020   0.87548   0.00000  Uiso   1.00
H1313  H     0.51170   0.97872   0.90124   0.00000  Uiso   1.00
H1314  H     0.49729   0.96057   0.84627   0.00000  Uiso   1.00
H1315  H     0.45814   0.96422   0.88919   0.00000  Uiso   1.00
O1316  O     0.55818   0.88639   0.61494   0.00000  Uiso   1.00
C1317  C     0.59800   0.86666   0.60780   0.00000  Uiso   1.00
H1318  H     0.62129   0.88935   0.62321   0.00000  Uiso   1.00
H1319  H     0.60625   0.86502   0.57177   0.00000  Uiso   1.00
C1320  C     0.60212   0.81926   0.62940   0.00000  Uiso   1.00
H1321  H     0.58993   0.81983   0.66394   0.00000  Uiso   1.00
H1322  H     0.58350   0.79452   0.61031   0.00000  Uiso   1.00
C1323  C     0.64738   0.80344   0.63037   0.00000  Uiso   1.00
H1324  H     0.66004   0.80176   0.59586   0.00000  Uiso   1.00
H1325  H     0.64920   0.76921   0.64620   0.00000  Uiso   1.00
H1326  H     0.33336   0.82697   0.65012   0.00000  Uiso   1.00
C1327  C     0.75330   0.83334   0.74992   0.00000  Uiso   1.00
C1328  C     0.91335   0.83333   0.75084   0.00000  Uiso   1.00
C1329  C     0.77259   0.78263   0.52626   0.00000  Uiso   1.00
C1330  C     0.87857   0.89911   0.97424   0.00000  Uiso   1.00
C1331  C     0.68803   0.79307   0.76017   0.00000  Uiso   1.00
C1332  C     0.97862   0.87357   0.74053   0.00000  Uiso   1.00
C1333  C     0.97871   0.79312   0.76061   0.00000  Uiso   1.00
C1334  C     0.68793   0.87353   0.74010   0.00000  Uiso   1.00
C1335  C     0.95750   0.83337   0.75086   0.00000  Uiso   1.00
C1336  C     0.70915   0.83331   0.75000   0.00000  Uiso   1.00
C1337  C     0.86821   0.69037   0.76175   0.00000  Uiso   1.00
C1338  C     0.79863   0.97630   0.73770   0.00000  Uiso   1.00
C1339  C     0.79864   0.69088   0.73765   0.00000  Uiso   1.00
C1340  C     0.86819   0.97579   0.76182   0.00000  Uiso   1.00
C1341  C     0.83374   0.83375   0.66344   0.00000  Uiso   1.00
C1342  C     0.83259   0.83295   0.83671   0.00000  Uiso   1.00
C1343  C     0.85405   0.86582   0.90639   0.00000  Uiso   1.00
C1344  C     0.80367   0.80863   0.59421   0.00000  Uiso   1.00
C1345  C     0.83108   0.83274   0.88472   0.00000  Uiso   1.00
C1346  C     0.83313   0.83498   0.61568   0.00000  Uiso   1.00
C1347  C     0.80609   0.80145   0.90856   0.00000  Uiso   1.00
C1348  C     0.86101   0.86304   0.59193   0.00000  Uiso   1.00
C1349  C     0.80168   0.80670   0.95496   0.00000  Uiso   1.00
C1350  C     0.85672   0.86722   0.54550   0.00000  Uiso   1.00
C1351  C     0.82758   0.83795   0.97693   0.00000  Uiso   1.00
C1352  C     0.82833   0.83859   0.52354   0.00000  Uiso   1.00
C1353  C     0.85352   0.86778   0.95242   0.00000  Uiso   1.00
C1354  C     0.80147   0.80969   0.54811   0.00000  Uiso   1.00
C1355  C     0.77242   0.78143   0.97993   0.00000  Uiso   1.00
C1356  C     0.88017   0.89887   0.52059   0.00000  Uiso   1.00
H1357  H     0.87349   0.88921   0.88726   0.00000  Uiso   1.00
H1358  H     0.78254   0.78728   0.61357   0.00000  Uiso   1.00
H1359  H     0.74942   0.76053   0.96399   0.00000  Uiso   1.00
H1360  H     0.90020   0.92306   0.53675   0.00000  Uiso   1.00
H1361  H     0.75068   0.76176   0.54499   0.00000  Uiso   1.00
H1362  H     0.89769   0.92300   0.95546   0.00000  Uiso   1.00
H1363  H     0.70433   0.76183   0.76813   0.00000  Uiso   1.00
H1364  H     0.96233   0.90477   0.73237   0.00000  Uiso   1.00
H1365  H     0.96248   0.76190   0.76880   0.00000  Uiso   1.00
H1366  H     0.70415   0.90472   0.73176   0.00000  Uiso   1.00
H1367  H     0.89601   0.70818   0.77159   0.00000  Uiso   1.00
H1368  H     0.77085   0.95848   0.72778   0.00000  Uiso   1.00
H1369  H     0.77086   0.70911   0.72775   0.00000  Uiso   1.00
H1370  H     0.89599   0.95757   0.77168   0.00000  Uiso   1.00
N1371  N     0.83333   0.95240   0.75000   0.00000  Uiso   1.00
N1372  N     0.83333   0.71427   0.75000   0.00000  Uiso   1.00
O1373  O     0.77226   0.87154   0.75000   0.00000  Uiso   1.00
O1374  O     0.89441   0.79513   0.75001   0.00000  Uiso   1.00
O1375  O     0.89441   0.87154   0.75001   0.00000  Uiso   1.00
O1376  O     0.77226   0.79513   0.75000   0.00000  Uiso   1.00
O1377  O     0.83333   0.87156   0.68393   0.00000  Uiso   1.00
O1378  O     0.83334   0.79511   0.81608   0.00000  Uiso   1.00
O1379  O     0.83334   0.87156   0.81608   0.00000  Uiso   1.00
O1380  O     0.83333   0.79511   0.68393   0.00000  Uiso   1.00
Zn1381 Zn    0.83333   0.88437   0.75000   0.00000  Uiso   1.00
Zn1382 Zn    0.83333   0.78229   0.75000   0.00000  Uiso   1.00
O1383  O     0.78500   0.76790   0.88567   0.00000  Uiso   1.00
C1384  C     0.79751   0.72397   0.90066   0.00000  Uiso   1.00
H1385  H     0.77013   0.70679   0.91609   0.00000  Uiso   1.00
H1386  H     0.82316   0.72383   0.92584   0.00000  Uiso   1.00
C1387  C     0.81173   0.69592   0.86113   0.00000  Uiso   1.00
H1388  H     0.78729   0.69656   0.83491   0.00000  Uiso   1.00
H1389  H     0.84078   0.71084   0.84717   0.00000  Uiso   1.00
C1390  C     0.82021   0.98020   0.87548   0.00000  Uiso   1.00
H1391  H     0.84504   0.97872   0.90124   0.00000  Uiso   1.00
H1392  H     0.83062   0.96057   0.84627   0.00000  Uiso   1.00
H1393  H     0.79147   0.96422   0.88919   0.00000  Uiso   1.00
O1394  O     0.89151   0.88639   0.61494   0.00000  Uiso   1.00
C1395  C     0.93133   0.86666   0.60780   0.00000  Uiso   1.00
H1396  H     0.95462   0.88935   0.62321   0.00000  Uiso   1.00
H1397  H     0.93959   0.86502   0.57177   0.00000  Uiso   1.00
C1398  C     0.93545   0.81926   0.62940   0.00000  Uiso   1.00
H1399  H     0.92327   0.81983   0.66394   0.00000  Uiso   1.00
H1400  H     0.91684   0.79452   0.61031   0.00000  Uiso   1.00
C1401  C     0.98072   0.80344   0.63037   0.00000  Uiso   1.00
H1402  H     0.99338   0.80176   0.59586   0.00000  Uiso   1.00
H1403  H     0.98254   0.76921   0.64620   0.00000  Uiso   1.00
H1404  H     0.66669   0.82697   0.65012   0.00000  Uiso   1.00
loop_
_geom_bond_atom_site_label_1
_geom_bond_atom_site_label_2
_geom_bond_distance
_geom_bond_site_symmetry_2
_ccdc_geom_bond_type
C1     O50     1.282   .     A
C1     O47     1.282   .     A
C1     C10     1.418   .     S
C2     O48     1.283   .     A
C2     O49     1.281   .     A
C2     C9      1.418   .     S
C3     C28     1.396   .     A
C3     H35     1.084   .     S
C3     C731    1.387   1_554 S
C4     H36     1.084   .     S
C4     C27     1.398   .     A
C4     C732    1.388   .     S
C5     H37     1.084   .     S
C5     C10     1.397   .     A
C5     C163    1.369   1_455 S
C6     C9      1.397   .     A
C6     H38     1.084   .     S
C6     C86     1.369   .     S
C7     C9      1.396   .     A
C7     H39     1.083   .     S
C7     C83     1.369   .     S
C8     C10     1.396   .     A
C8     H40     1.083   .     S
C8     C162    1.369   1_455 S
C11    H41     1.081   .     S
C11    N46     1.367   .     A
C11    C482    1.415   1_545 S
C12    H42     1.081   .     S
C12    N45     1.366   .     A
C12    C247    1.415   .     S
C13    N46     1.366   .     A
C13    H43     1.081   .     S
C13    C480    1.415   1_545 S
C14    N45     1.366   .     A
C14    H44     1.081   .     S
C14    C245    1.415   .     S
C15    O51     1.283   .     A
C15    C20     1.429   .     S
C15    O54     1.286   .     A
C16    O53     1.287   .     A
C16    O52     1.286   .     A
C16    C19     1.437   .     S
C17    C27     1.380   .     A
C17    H31     1.086   .     S
C17    C19     1.395   .     A
C18    C20     1.391   .     A
C18    C28     1.381   .     A
C18    H32     1.086   .     S
C19    C21     1.407   .     A
C20    C22     1.404   .     A
C21    O57     1.392   .     S
C21    C23     1.407   .     A
C22    O68     1.389   .     S
C22    C24     1.400   .     A
C23    C29     1.405   .     A
C23    C25     1.415   .     A
C24    C26     1.415   .     A
C24    C30     1.404   .     A
C25    C27     1.408   .     A
C25    C728    1.396   .     S
C26    C28     1.410   .     A
C26    C727    1.396   1_554 S
C29    H33     1.080   .     S
C29    C705    1.387   .     S
C30    H34     1.083   .     S
C30    C706    1.388   1_554 S
N45    Zn55    2.009   .     S
N46    Zn56    2.009   .     S
O47    Zn55    1.998   .     S
O48    Zn56    1.998   .     S
O49    Zn55    1.997   .     S
O50    Zn56    1.997   .     S
O51    Zn55    2.020   .     S
O52    Zn56    2.020   .     S
O53    Zn55    2.007   .     S
O54    Zn56    2.007   .     S
O57    C58     1.423   .     S
C58    H60     1.118   .     S
C58    C61     1.525   .     S
C58    H59     1.111   .     S
C61    H63     1.109   .     S
C61    H62     1.111   .     S
C61    C532    1.528   1_545 S
C64    H67     1.111   .     S
C64    H66     1.108   .     S
C64    H65     1.111   .     S
C64    C295    1.528   .     S
O68    C69     1.422   .     S
C69    H71     1.111   .     S
C69    H70     1.111   .     S
C69    C72     1.537   .     S
C72    C75     1.527   .     S
C72    H74     1.111   .     S
C72    H73     1.104   .     S
C75    H76     1.111   .     S
C75    H77     1.110   .     S
C75    H156    1.111   .     S
H78    C231    1.111   1_455 S
C79    O128    1.282   .     A
C79    O125    1.282   .     A
C79    C88     1.418   .     S
C80    O126    1.283   .     A
C80    O127    1.281   .     A
C80    C87     1.418   .     S
C81    C106    1.396   .     A
C81    H113    1.084   .     S
C81    C809    1.387   1_554 S
C82    H114    1.084   .     S
C82    C105    1.398   .     A
C82    C810    1.388   .     S
C83    H115    1.084   .     S
C83    C88     1.397   .     A
C84    C87     1.397   .     A
C84    H116    1.084   .     S
C84    C164    1.369   .     S
C85    C87     1.396   .     A
C85    H117    1.083   .     S
C85    C161    1.369   .     S
C86    C88     1.396   .     A
C86    H118    1.083   .     S
C89    H119    1.081   .     S
C89    N124    1.367   .     A
C89    C560    1.415   1_545 S
C90    H120    1.081   .     S
C90    N123    1.366   .     A
C90    C325    1.415   .     S
C91    N124    1.366   .     A
C91    H121    1.081   .     S
C91    C558    1.415   1_545 S
C92    N123    1.366   .     A
C92    H122    1.081   .     S
C92    C323    1.415   .     S
C93    O129    1.283   .     A
C93    C98     1.429   .     S
C93    O132    1.286   .     A
C94    O131    1.287   .     A
C94    O130    1.286   .     A
C94    C97     1.437   .     S
C95    C105    1.380   .     A
C95    H109    1.086   .     S
C95    C97     1.395   .     A
C96    C98     1.391   .     A
C96    C106    1.381   .     A
C96    H110    1.086   .     S
C97    C99     1.407   .     A
C98    C100    1.404   .     A
C99    O135    1.392   .     S
C99    C101    1.407   .     A
C100   O146    1.389   .     S
C100   C102    1.400   .     A
C101   C107    1.405   .     A
C101   C103    1.415   .     A
C102   C104    1.415   .     A
C102   C108    1.404   .     A
C103   C105    1.408   .     A
C103   C806    1.396   .     S
C104   C106    1.410   .     A
C104   C805    1.396   1_554 S
C107   H111    1.080   .     S
C107   C783    1.387   .     S
C108   H112    1.083   .     S
C108   C784    1.388   1_554 S
N123   Zn133   2.009   .     S
N124   Zn134   2.009   .     S
O125   Zn133   1.998   .     S
O126   Zn134   1.998   .     S
O127   Zn133   1.997   .     S
O128   Zn134   1.997   .     S
O129   Zn133   2.020   .     S
O130   Zn134   2.020   .     S
O131   Zn133   2.007   .     S
O132   Zn134   2.007   .     S
O135   C136    1.423   .     S
C136   H138    1.118   .     S
C136   C139    1.525   .     S
C136   H137    1.111   .     S
C139   H141    1.109   .     S
C139   H140    1.111   .     S
C139   C610    1.528   1_545 S
C142   H145    1.111   .     S
C142   H144    1.108   .     S
C142   H143    1.111   .     S
C142   C373    1.528   .     S
O146   C147    1.422   .     S
C147   H149    1.111   .     S
C147   H148    1.111   .     S
C147   C150    1.537   .     S
C150   C153    1.527   .     S
C150   H152    1.111   .     S
C150   H151    1.104   .     S
C153   H154    1.111   .     S
C153   H155    1.110   .     S
C153   H234    1.111   .     S
C157   O206    1.282   .     A
C157   O203    1.282   .     A
C157   C166    1.418   .     S
C158   O204    1.283   .     A
C158   O205    1.281   .     A
C158   C165    1.418   .     S
C159   C184    1.396   .     A
C159   H191    1.084   .     S
C159   C887    1.387   1_554 S
C160   H192    1.084   .     S
C160   C183    1.398   .     A
C160   C888    1.388   .     S
C161   H193    1.084   .     S
C161   C166    1.397   .     A
C162   C165    1.397   .     A
C162   H194    1.084   .     S
C162   C8      1.369   1_655 S
C163   C165    1.396   .     A
C163   H195    1.083   .     S
C163   C5      1.369   1_655 S
C164   C166    1.396   .     A
C164   H196    1.083   .     S
C167   H197    1.081   .     S
C167   N202    1.367   .     A
C167   C638    1.415   1_545 S
C168   H198    1.081   .     S
C168   N201    1.366   .     A
C168   C403    1.415   .     S
C169   N202    1.366   .     A
C169   H199    1.081   .     S
C169   C636    1.415   1_545 S
C170   N201    1.366   .     A
C170   H200    1.081   .     S
C170   C401    1.415   .     S
C171   O207    1.283   .     A
C171   C176    1.429   .     S
C171   O210    1.286   .     A
C172   O209    1.287   .     A
C172   O208    1.286   .     A
C172   C175    1.437   .     S
C173   C183    1.380   .     A
C173   H187    1.086   .     S
C173   C175    1.395   .     A
C174   C176    1.391   .     A
C174   C184    1.381   .     A
C174   H188    1.086   .     S
C175   C177    1.407   .     A
C176   C178    1.404   .     A
C177   O213    1.392   .     S
C177   C179    1.407   .     A
C178   O224    1.389   .     S
C178   C180    1.400   .     A
C179   C185    1.405   .     A
C179   C181    1.415   .     A
C180   C182    1.415   .     A
C180   C186    1.404   .     A
C181   C183    1.408   .     A
C181   C884    1.396   .     S
C182   C184    1.410   .     A
C182   C883    1.396   1_554 S
C185   H189    1.080   .     S
C185   C861    1.387   .     S
C186   H190    1.083   .     S
C186   C862    1.388   1_554 S
N201   Zn211   2.009   .     S
N202   Zn212   2.009   .     S
O203   Zn211   1.998   .     S
O204   Zn212   1.998   .     S
O205   Zn211   1.997   .     S
O206   Zn212   1.997   .     S
O207   Zn211   2.020   .     S
O208   Zn212   2.020   .     S
O209   Zn211   2.007   .     S
O210   Zn212   2.007   .     S
O213   C214    1.423   .     S
C214   H216    1.118   .     S
C214   C217    1.525   .     S
C214   H215    1.111   .     S
C217   H219    1.109   .     S
C217   H218    1.111   .     S
C217   C688    1.528   1_545 S
C220   H223    1.111   .     S
C220   H222    1.108   .     S
C220   H221    1.111   .     S
C220   C451    1.528   .     S
O224   C225    1.422   .     S
C225   H227    1.111   .     S
C225   H226    1.111   .     S
C225   C228    1.537   .     S
C228   C231    1.527   .     S
C228   H230    1.111   .     S
C228   H229    1.104   .     S
C231   H232    1.111   .     S
C231   H233    1.110   .     S
C231   H78     1.111   1_655 S
C235   O284    1.282   .     A
C235   O281    1.282   .     A
C235   C244    1.418   .     S
C236   O282    1.283   .     A
C236   O283    1.281   .     A
C236   C243    1.418   .     S
C237   C262    1.396   .     A
C237   H269    1.084   .     S
C237   C965    1.387   1_554 S
C238   H270    1.084   .     S
C238   C261    1.398   .     A
C238   C966    1.388   .     S
C239   H271    1.084   .     S
C239   C244    1.397   .     A
C239   C397    1.369   1_455 S
C240   C243    1.397   .     A
C240   H272    1.084   .     S
C240   C320    1.369   .     S
C241   C243    1.396   .     A
C241   H273    1.083   .     S
C241   C317    1.369   .     S
C242   C244    1.396   .     A
C242   H274    1.083   .     S
C242   C396    1.369   1_455 S
C245   H275    1.081   .     S
C245   N280    1.367   .     A
C246   H276    1.081   .     S
C246   N279    1.366   .     A
C246   C481    1.415   .     S
C247   N280    1.366   .     A
C247   H277    1.081   .     S
C248   N279    1.366   .     A
C248   H278    1.081   .     S
C248   C479    1.415   .     S
C249   O285    1.283   .     A
C249   C254    1.429   .     S
C249   O288    1.286   .     A
C250   O287    1.287   .     A
C250   O286    1.286   .     A
C250   C253    1.437   .     S
C251   C261    1.380   .     A
C251   H265    1.086   .     S
C251   C253    1.395   .     A
C252   C254    1.391   .     A
C252   C262    1.381   .     A
C252   H266    1.086   .     S
C253   C255    1.407   .     A
C254   C256    1.404   .     A
C255   O291    1.392   .     S
C255   C257    1.407   .     A
C256   O302    1.389   .     S
C256   C258    1.400   .     A
C257   C263    1.405   .     A
C257   C259    1.415   .     A
C258   C260    1.415   .     A
C258   C264    1.404   .     A
C259   C261    1.408   .     A
C259   C962    1.396   .     S
C260   C262    1.410   .     A
C260   C961    1.396   1_554 S
C263   H267    1.080   .     S
C263   C939    1.387   .     S
C264   H268    1.083   .     S
C264   C940    1.388   1_554 S
N279   Zn289   2.009   .     S
N280   Zn290   2.009   .     S
O281   Zn289   1.998   .     S
O282   Zn290   1.998   .     S
O283   Zn289   1.997   .     S
O284   Zn290   1.997   .     S
O285   Zn289   2.020   .     S
O286   Zn290   2.020   .     S
O287   Zn289   2.007   .     S
O288   Zn290   2.007   .     S
O291   C292    1.423   .     S
C292   H294    1.118   .     S
C292   C295    1.525   .     S
C292   H293    1.111   .     S
C295   H297    1.109   .     S
C295   H296    1.111   .     S
C298   H301    1.111   .     S
C298   H300    1.108   .     S
C298   H299    1.111   .     S
C298   C529    1.528   .     S
O302   C303    1.422   .     S
C303   H305    1.111   .     S
C303   H304    1.111   .     S
C303   C306    1.537   .     S
C306   C309    1.527   .     S
C306   H308    1.111   .     S
C306   H307    1.104   .     S
C309   H310    1.111   .     S
C309   H311    1.110   .     S
C309   H390    1.111   .     S
H312   C465    1.111   1_455 S
C313   O362    1.282   .     A
C313   O359    1.282   .     A
C313   C322    1.418   .     S
C314   O360    1.283   .     A
C314   O361    1.281   .     A
C314   C321    1.418   .     S
C315   C340    1.396   .     A
C315   H347    1.084   .     S
C315   C1043   1.387   1_554 S
C316   H348    1.084   .     S
C316   C339    1.398   .     A
C316   C1044   1.388   .     S
C317   H349    1.084   .     S
C317   C322    1.397   .     A
C318   C321    1.397   .     A
C318   H350    1.084   .     S
C318   C398    1.369   .     S
C319   C321    1.396   .     A
C319   H351    1.083   .     S
C319   C395    1.369   .     S
C320   C322    1.396   .     A
C320   H352    1.083   .     S
C323   H353    1.081   .     S
C323   N358    1.367   .     A
C324   H354    1.081   .     S
C324   N357    1.366   .     A
C324   C559    1.415   .     S
C325   N358    1.366   .     A
C325   H355    1.081   .     S
C326   N357    1.366   .     A
C326   H356    1.081   .     S
C326   C557    1.415   .     S
C327   O363    1.283   .     A
C327   C332    1.429   .     S
C327   O366    1.286   .     A
C328   O365    1.287   .     A
C328   O364    1.286   .     A
C328   C331    1.437   .     S
C329   C339    1.380   .     A
C329   H343    1.086   .     S
C329   C331    1.395   .     A
C330   C332    1.391   .     A
C330   C340    1.381   .     A
C330   H344    1.086   .     S
C331   C333    1.407   .     A
C332   C334    1.404   .     A
C333   O369    1.392   .     S
C333   C335    1.407   .     A
C334   O380    1.389   .     S
C334   C336    1.400   .     A
C335   C341    1.405   .     A
C335   C337    1.415   .     A
C336   C338    1.415   .     A
C336   C342    1.404   .     A
C337   C339    1.408   .     A
C337   C1040   1.396   .     S
C338   C340    1.410   .     A
C338   C1039   1.396   1_554 S
C341   H345    1.080   .     S
C341   C1017   1.387   .     S
C342   H346    1.083   .     S
C342   C1018   1.388   1_554 S
N357   Zn367   2.009   .     S
N358   Zn368   2.009   .     S
O359   Zn367   1.998   .     S
O360   Zn368   1.998   .     S
O361   Zn367   1.997   .     S
O362   Zn368   1.997   .     S
O363   Zn367   2.020   .     S
O364   Zn368   2.020   .     S
O365   Zn367   2.007   .     S
O366   Zn368   2.007   .     S
O369   C370    1.423   .     S
C370   H372    1.118   .     S
C370   C373    1.525   .     S
C370   H371    1.111   .     S
C373   H375    1.109   .     S
C373   H374    1.111   .     S
C376   H379    1.111   .     S
C376   H378    1.108   .     S
C376   H377    1.111   .     S
C376   C607    1.528   .     S
O380   C381    1.422   .     S
C381   H383    1.111   .     S
C381   H382    1.111   .     S
C381   C384    1.537   .     S
C384   C387    1.527   .     S
C384   H386    1.111   .     S
C384   H385    1.104   .     S
C387   H388    1.111   .     S
C387   H389    1.110   .     S
C387   H468    1.111   .     S
C391   O440    1.282   .     A
C391   O437    1.282   .     A
C391   C400    1.418   .     S
C392   O438    1.283   .     A
C392   O439    1.281   .     A
C392   C399    1.418   .     S
C393   C418    1.396   .     A
C393   H425    1.084   .     S
C393   C1121   1.387   1_554 S
C394   H426    1.084   .     S
C394   C417    1.398   .     A
C394   C1122   1.388   .     S
C395   H427    1.084   .     S
C395   C400    1.397   .     A
C396   C399    1.397   .     A
C396   H428    1.084   .     S
C396   C242    1.369   1_655 S
C397   C399    1.396   .     A
C397   H429    1.083   .     S
C397   C239    1.369   1_655 S
C398   C400    1.396   .     A
C398   H430    1.083   .     S
C401   H431    1.081   .     S
C401   N436    1.367   .     A
C402   H432    1.081   .     S
C402   N435    1.366   .     A
C402   C637    1.415   .     S
C403   N436    1.366   .     A
C403   H433    1.081   .     S
C404   N435    1.366   .     A
C404   H434    1.081   .     S
C404   C635    1.415   .     S
C405   O441    1.283   .     A
C405   C410    1.429   .     S
C405   O444    1.286   .     A
C406   O443    1.287   .     A
C406   O442    1.286   .     A
C406   C409    1.437   .     S
C407   C417    1.380   .     A
C407   H421    1.086   .     S
C407   C409    1.395   .     A
C408   C410    1.391   .     A
C408   C418    1.381   .     A
C408   H422    1.086   .     S
C409   C411    1.407   .     A
C410   C412    1.404   .     A
C411   O447    1.392   .     S
C411   C413    1.407   .     A
C412   O458    1.389   .     S
C412   C414    1.400   .     A
C413   C419    1.405   .     A
C413   C415    1.415   .     A
C414   C416    1.415   .     A
C414   C420    1.404   .     A
C415   C417    1.408   .     A
C415   C1118   1.396   .     S
C416   C418    1.410   .     A
C416   C1117   1.396   1_554 S
C419   H423    1.080   .     S
C419   C1095   1.387   .     S
C420   H424    1.083   .     S
C420   C1096   1.388   1_554 S
N435   Zn445   2.009   .     S
N436   Zn446   2.009   .     S
O437   Zn445   1.998   .     S
O438   Zn446   1.998   .     S
O439   Zn445   1.997   .     S
O440   Zn446   1.997   .     S
O441   Zn445   2.020   .     S
O442   Zn446   2.020   .     S
O443   Zn445   2.007   .     S
O444   Zn446   2.007   .     S
O447   C448    1.423   .     S
C448   H450    1.118   .     S
C448   C451    1.525   .     S
C448   H449    1.111   .     S
C451   H453    1.109   .     S
C451   H452    1.111   .     S
C454   H457    1.111   .     S
C454   H456    1.108   .     S
C454   H455    1.111   .     S
C454   C685    1.528   .     S
O458   C459    1.422   .     S
C459   H461    1.111   .     S
C459   H460    1.111   .     S
C459   C462    1.537   .     S
C462   C465    1.527   .     S
C462   H464    1.111   .     S
C462   H463    1.104   .     S
C465   H466    1.111   .     S
C465   H467    1.110   .     S
C465   H312    1.111   1_655 S
C469   O518    1.282   .     A
C469   O515    1.282   .     A
C469   C478    1.418   .     S
C470   O516    1.283   .     A
C470   O517    1.281   .     A
C470   C477    1.418   .     S
C471   C496    1.396   .     A
C471   H503    1.084   .     S
C471   C1199   1.387   1_554 S
C472   H504    1.084   .     S
C472   C495    1.398   .     A
C472   C1200   1.388   .     S
C473   H505    1.084   .     S
C473   C478    1.397   .     A
C473   C631    1.369   1_455 S
C474   C477    1.397   .     A
C474   H506    1.084   .     S
C474   C554    1.369   .     S
C475   C477    1.396   .     A
C475   H507    1.083   .     S
C475   C551    1.369   .     S
C476   C478    1.396   .     A
C476   H508    1.083   .     S
C476   C630    1.369   1_455 S
C479   H509    1.081   .     S
C479   N514    1.367   .     A
C480   H510    1.081   .     S
C480   N513    1.366   .     A
C480   C13     1.415   1_565 S
C481   N514    1.366   .     A
C481   H511    1.081   .     S
C482   N513    1.366   .     A
C482   H512    1.081   .     S
C482   C11     1.415   1_565 S
C483   O519    1.283   .     A
C483   C488    1.429   .     S
C483   O522    1.286   .     A
C484   O521    1.287   .     A
C484   O520    1.286   .     A
C484   C487    1.437   .     S
C485   C495    1.380   .     A
C485   H499    1.086   .     S
C485   C487    1.395   .     A
C486   C488    1.391   .     A
C486   C496    1.381   .     A
C486   H500    1.086   .     S
C487   C489    1.407   .     A
C488   C490    1.404   .     A
C489   O525    1.392   .     S
C489   C491    1.407   .     A
C490   O536    1.389   .     S
C490   C492    1.400   .     A
C491   C497    1.405   .     A
C491   C493    1.415   .     A
C492   C494    1.415   .     A
C492   C498    1.404   .     A
C493   C495    1.408   .     A
C493   C1196   1.396   .     S
C494   C496    1.410   .     A
C494   C1195   1.396   1_554 S
C497   H501    1.080   .     S
C497   C1173   1.387   .     S
C498   H502    1.083   .     S
C498   C1174   1.388   1_554 S
N513   Zn523   2.009   .     S
N514   Zn524   2.009   .     S
O515   Zn523   1.998   .     S
O516   Zn524   1.998   .     S
O517   Zn523   1.997   .     S
O518   Zn524   1.997   .     S
O519   Zn523   2.020   .     S
O520   Zn524   2.020   .     S
O521   Zn523   2.007   .     S
O522   Zn524   2.007   .     S
O525   C526    1.423   .     S
C526   H528    1.118   .     S
C526   C529    1.525   .     S
C526   H527    1.111   .     S
C529   H531    1.109   .     S
C529   H530    1.111   .     S
C532   H535    1.111   .     S
C532   H534    1.108   .     S
C532   H533    1.111   .     S
C532   C61     1.528   1_565 S
O536   C537    1.422   .     S
C537   H539    1.111   .     S
C537   H538    1.111   .     S
C537   C540    1.537   .     S
C540   C543    1.527   .     S
C540   H542    1.111   .     S
C540   H541    1.104   .     S
C543   H544    1.111   .     S
C543   H545    1.110   .     S
C543   H624    1.111   .     S
H546   C699    1.111   1_455 S
C547   O596    1.282   .     A
C547   O593    1.282   .     A
C547   C556    1.418   .     S
C548   O594    1.283   .     A
C548   O595    1.281   .     A
C548   C555    1.418   .     S
C549   C574    1.396   .     A
C549   H581    1.084   .     S
C549   C1277   1.387   1_554 S
C550   H582    1.084   .     S
C550   C573    1.398   .     A
C550   C1278   1.388   .     S
C551   H583    1.084   .     S
C551   C556    1.397   .     A
C552   C555    1.397   .     A
C552   H584    1.084   .     S
C552   C632    1.369   .     S
C553   C555    1.396   .     A
C553   H585    1.083   .     S
C553   C629    1.369   .     S
C554   C556    1.396   .     A
C554   H586    1.083   .     S
C557   H587    1.081   .     S
C557   N592    1.367   .     A
C558   H588    1.081   .     S
C558   N591    1.366   .     A
C558   C91     1.415   1_565 S
C559   N592    1.366   .     A
C559   H589    1.081   .     S
C560   N591    1.366   .     A
C560   H590    1.081   .     S
C560   C89     1.415   1_565 S
C561   O597    1.283   .     A
C561   C566    1.429   .     S
C561   O600    1.286   .     A
C562   O599    1.287   .     A
C562   O598    1.286   .     A
C562   C565    1.437   .     S
C563   C573    1.380   .     A
C563   H577    1.086   .     S
C563   C565    1.395   .     A
C564   C566    1.391   .     A
C564   C574    1.381   .     A
C564   H578    1.086   .     S
C565   C567    1.407   .     A
C566   C568    1.404   .     A
C567   O603    1.392   .     S
C567   C569    1.407   .     A
C568   O614    1.389   .     S
C568   C570    1.400   .     A
C569   C575    1.405   .     A
C569   C571    1.415   .     A
C570   C572    1.415   .     A
C570   C576    1.404   .     A
C571   C573    1.408   .     A
C571   C1274   1.396   .     S
C572   C574    1.410   .     A
C572   C1273   1.396   1_554 S
C575   H579    1.080   .     S
C575   C1251   1.387   .     S
C576   H580    1.083   .     S
C576   C1252   1.388   1_554 S
N591   Zn601   2.009   .     S
N592   Zn602   2.009   .     S
O593   Zn601   1.998   .     S
O594   Zn602   1.998   .     S
O595   Zn601   1.997   .     S
O596   Zn602   1.997   .     S
O597   Zn601   2.020   .     S
O598   Zn602   2.020   .     S
O599   Zn601   2.007   .     S
O600   Zn602   2.007   .     S
O603   C604    1.423   .     S
C604   H606    1.118   .     S
C604   C607    1.525   .     S
C604   H605    1.111   .     S
C607   H609    1.109   .     S
C607   H608    1.111   .     S
C610   H613    1.111   .     S
C610   H612    1.108   .     S
C610   H611    1.111   .     S
C610   C139    1.528   1_565 S
O614   C615    1.422   .     S
C615   H617    1.111   .     S
C615   H616    1.111   .     S
C615   C618    1.537   .     S
C618   C621    1.527   .     S
C618   H620    1.111   .     S
C618   H619    1.104   .     S
C621   H622    1.111   .     S
C621   H623    1.110   .     S
C621   H702    1.111   .     S
C625   O674    1.282   .     A
C625   O671    1.282   .     A
C625   C634    1.418   .     S
C626   O672    1.283   .     A
C626   O673    1.281   .     A
C626   C633    1.418   .     S
C627   C652    1.396   .     A
C627   H659    1.084   .     S
C627   C1355   1.387   1_554 S
C628   H660    1.084   .     S
C628   C651    1.398   .     A
C628   C1356   1.388   .     S
C629   H661    1.084   .     S
C629   C634    1.397   .     A
C630   C633    1.397   .     A
C630   H662    1.084   .     S
C630   C476    1.369   1_655 S
C631   C633    1.396   .     A
C631   H663    1.083   .     S
C631   C473    1.369   1_655 S
C632   C634    1.396   .     A
C632   H664    1.083   .     S
C635   H665    1.081   .     S
C635   N670    1.367   .     A
C636   H666    1.081   .     S
C636   N669    1.366   .     A
C636   C169    1.415   1_565 S
C637   N670    1.366   .     A
C637   H667    1.081   .     S
C638   N669    1.366   .     A
C638   H668    1.081   .     S
C638   C167    1.415   1_565 S
C639   O675    1.283   .     A
C639   C644    1.429   .     S
C639   O678    1.286   .     A
C640   O677    1.287   .     A
C640   O676    1.286   .     A
C640   C643    1.437   .     S
C641   C651    1.380   .     A
C641   H655    1.086   .     S
C641   C643    1.395   .     A
C642   C644    1.391   .     A
C642   C652    1.381   .     A
C642   H656    1.086   .     S
C643   C645    1.407   .     A
C644   C646    1.404   .     A
C645   O681    1.392   .     S
C645   C647    1.407   .     A
C646   O692    1.389   .     S
C646   C648    1.400   .     A
C647   C653    1.405   .     A
C647   C649    1.415   .     A
C648   C650    1.415   .     A
C648   C654    1.404   .     A
C649   C651    1.408   .     A
C649   C1352   1.396   .     S
C650   C652    1.410   .     A
C650   C1351   1.396   1_554 S
C653   H657    1.080   .     S
C653   C1329   1.387   .     S
C654   H658    1.083   .     S
C654   C1330   1.388   1_554 S
N669   Zn679   2.009   .     S
N670   Zn680   2.009   .     S
O671   Zn679   1.998   .     S
O672   Zn680   1.998   .     S
O673   Zn679   1.997   .     S
O674   Zn680   1.997   .     S
O675   Zn679   2.020   .     S
O676   Zn680   2.020   .     S
O677   Zn679   2.007   .     S
O678   Zn680   2.007   .     S
O681   C682    1.423   .     S
C682   H684    1.118   .     S
C682   C685    1.525   .     S
C682   H683    1.111   .     S
C685   H687    1.109   .     S
C685   H686    1.111   .     S
C688   H691    1.111   .     S
C688   H690    1.108   .     S
C688   H689    1.111   .     S
C688   C217    1.528   1_565 S
O692   C693    1.422   .     S
C693   H695    1.111   .     S
C693   H694    1.111   .     S
C693   C696    1.537   .     S
C696   C699    1.527   .     S
C696   H698    1.111   .     S
C696   H697    1.104   .     S
C699   H700    1.111   .     S
C699   H701    1.110   .     S
C699   H546    1.111   1_655 S
C703   O752    1.282   .     A
C703   O749    1.282   .     A
C703   C712    1.418   .     S
C704   O750    1.283   .     A
C704   O751    1.281   .     A
C704   C711    1.418   .     S
C705   C730    1.396   .     A
C705   H737    1.084   .     S
C706   H738    1.084   .     S
C706   C729    1.398   .     A
C706   C30     1.388   1_556 S
C707   H739    1.084   .     S
C707   C712    1.397   .     A
C707   C865    1.369   1_455 S
C708   C711    1.397   .     A
C708   H740    1.084   .     S
C708   C788    1.369   .     S
C709   C711    1.396   .     A
C709   H741    1.083   .     S
C709   C785    1.369   .     S
C710   C712    1.396   .     A
C710   H742    1.083   .     S
C710   C864    1.369   1_455 S
C713   H743    1.081   .     S
C713   N748    1.367   .     A
C713   C1184   1.415   1_545 S
C714   H744    1.081   .     S
C714   N747    1.366   .     A
C714   C949    1.415   .     S
C715   N748    1.366   .     A
C715   H745    1.081   .     S
C715   C1182   1.415   1_545 S
C716   N747    1.366   .     A
C716   H746    1.081   .     S
C716   C947    1.415   .     S
C717   O753    1.283   .     A
C717   C722    1.429   .     S
C717   O756    1.286   .     A
C718   O755    1.287   .     A
C718   O754    1.286   .     A
C718   C721    1.437   .     S
C719   C729    1.380   .     A
C719   H733    1.086   .     S
C719   C721    1.395   .     A
C720   C722    1.391   .     A
C720   C730    1.381   .     A
C720   H734    1.086   .     S
C721   C723    1.407   .     A
C722   C724    1.404   .     A
C723   O759    1.392   .     S
C723   C725    1.407   .     A
C724   O770    1.389   .     S
C724   C726    1.400   .     A
C725   C731    1.405   .     A
C725   C727    1.415   .     A
C726   C728    1.415   .     A
C726   C732    1.404   .     A
C727   C729    1.408   .     A
C727   C26     1.396   1_556 S
C728   C730    1.410   .     A
C731   H735    1.080   .     S
C731   C3      1.387   1_556 S
C732   H736    1.083   .     S
N747   Zn757   2.009   .     S
N748   Zn758   2.009   .     S
O749   Zn757   1.998   .     S
O750   Zn758   1.998   .     S
O751   Zn757   1.997   .     S
O752   Zn758   1.997   .     S
O753   Zn757   2.020   .     S
O754   Zn758   2.020   .     S
O755   Zn757   2.007   .     S
O756   Zn758   2.007   .     S
O759   C760    1.423   .     S
C760   H762    1.118   .     S
C760   C763    1.525   .     S
C760   H761    1.111   .     S
C763   H765    1.109   .     S
C763   H764    1.111   .     S
C763   C1234   1.528   1_545 S
C766   H769    1.111   .     S
C766   H768    1.108   .     S
C766   H767    1.111   .     S
C766   C997    1.528   .     S
O770   C771    1.422   .     S
C771   H773    1.111   .     S
C771   H772    1.111   .     S
C771   C774    1.537   .     S
C774   C777    1.527   .     S
C774   H776    1.111   .     S
C774   H775    1.104   .     S
C777   H778    1.111   .     S
C777   H779    1.110   .     S
C777   H858    1.111   .     S
H780   C933    1.111   1_455 S
C781   O830    1.282   .     A
C781   O827    1.282   .     A
C781   C790    1.418   .     S
C782   O828    1.283   .     A
C782   O829    1.281   .     A
C782   C789    1.418   .     S
C783   C808    1.396   .     A
C783   H815    1.084   .     S
C784   H816    1.084   .     S
C784   C807    1.398   .     A
C784   C108    1.388   1_556 S
C785   H817    1.084   .     S
C785   C790    1.397   .     A
C786   C789    1.397   .     A
C786   H818    1.084   .     S
C786   C866    1.369   .     S
C787   C789    1.396   .     A
C787   H819    1.083   .     S
C787   C863    1.369   .     S
C788   C790    1.396   .     A
C788   H820    1.083   .     S
C791   H821    1.081   .     S
C791   N826    1.367   .     A
C791   C1262   1.415   1_545 S
C792   H822    1.081   .     S
C792   N825    1.366   .     A
C792   C1027   1.415   .     S
C793   N826    1.366   .     A
C793   H823    1.081   .     S
C793   C1260   1.415   1_545 S
C794   N825    1.366   .     A
C794   H824    1.081   .     S
C794   C1025   1.415   .     S
C795   O831    1.283   .     A
C795   C800    1.429   .     S
C795   O834    1.286   .     A
C796   O833    1.287   .     A
C796   O832    1.286   .     A
C796   C799    1.437   .     S
C797   C807    1.380   .     A
C797   H811    1.086   .     S
C797   C799    1.395   .     A
C798   C800    1.391   .     A
C798   C808    1.381   .     A
C798   H812    1.086   .     S
C799   C801    1.407   .     A
C800   C802    1.404   .     A
C801   O837    1.392   .     S
C801   C803    1.407   .     A
C802   O848    1.389   .     S
C802   C804    1.400   .     A
C803   C809    1.405   .     A
C803   C805    1.415   .     A
C804   C806    1.415   .     A
C804   C810    1.404   .     A
C805   C807    1.408   .     A
C805   C104    1.396   1_556 S
C806   C808    1.410   .     A
C809   H813    1.080   .     S
C809   C81     1.387   1_556 S
C810   H814    1.083   .     S
N825   Zn835   2.009   .     S
N826   Zn836   2.009   .     S
O827   Zn835   1.998   .     S
O828   Zn836   1.998   .     S
O829   Zn835   1.997   .     S
O830   Zn836   1.997   .     S
O831   Zn835   2.020   .     S
O832   Zn836   2.020   .     S
O833   Zn835   2.007   .     S
O834   Zn836   2.007   .     S
O837   C838    1.423   .     S
C838   H840    1.118   .     S
C838   C841    1.525   .     S
C838   H839    1.111   .     S
C841   H843    1.109   .     S
C841   H842    1.111   .     S
C841   C1312   1.528   1_545 S
C844   H847    1.111   .     S
C844   H846    1.108   .     S
C844   H845    1.111   .     S
C844   C1075   1.528   .     S
O848   C849    1.422   .     S
C849   H851    1.111   .     S
C849   H850    1.111   .     S
C849   C852    1.537   .     S
C852   C855    1.527   .     S
C852   H854    1.111   .     S
C852   H853    1.104   .     S
C855   H856    1.111   .     S
C855   H857    1.110   .     S
C855   H936    1.111   .     S
C859   O908    1.282   .     A
C859   O905    1.282   .     A
C859   C868    1.418   .     S
C860   O906    1.283   .     A
C860   O907    1.281   .     A
C860   C867    1.418   .     S
C861   C886    1.396   .     A
C861   H893    1.084   .     S
C862   H894    1.084   .     S
C862   C885    1.398   .     A
C862   C186    1.388   1_556 S
C863   H895    1.084   .     S
C863   C868    1.397   .     A
C864   C867    1.397   .     A
C864   H896    1.084   .     S
C864   C710    1.369   1_655 S
C865   C867    1.396   .     A
C865   H897    1.083   .     S
C865   C707    1.369   1_655 S
C866   C868    1.396   .     A
C866   H898    1.083   .     S
C869   H899    1.081   .     S
C869   N904    1.367   .     A
C869   C1340   1.415   1_545 S
C870   H900    1.081   .     S
C870   N903    1.366   .     A
C870   C1105   1.415   .     S
C871   N904    1.366   .     A
C871   H901    1.081   .     S
C871   C1338   1.415   1_545 S
C872   N903    1.366   .     A
C872   H902    1.081   .     S
C872   C1103   1.415   .     S
C873   O909    1.283   .     A
C873   C878    1.429   .     S
C873   O912    1.286   .     A
C874   O911    1.287   .     A
C874   O910    1.286   .     A
C874   C877    1.437   .     S
C875   C885    1.380   .     A
C875   H889    1.086   .     S
C875   C877    1.395   .     A
C876   C878    1.391   .     A
C876   C886    1.381   .     A
C876   H890    1.086   .     S
C877   C879    1.407   .     A
C878   C880    1.404   .     A
C879   O915    1.392   .     S
C879   C881    1.407   .     A
C880   O926    1.389   .     S
C880   C882    1.400   .     A
C881   C887    1.405   .     A
C881   C883    1.415   .     A
C882   C884    1.415   .     A
C882   C888    1.404   .     A
C883   C885    1.408   .     A
C883   C182    1.396   1_556 S
C884   C886    1.410   .     A
C887   H891    1.080   .     S
C887   C159    1.387   1_556 S
C888   H892    1.083   .     S
N903   Zn913   2.009   .     S
N904   Zn914   2.009   .     S
O905   Zn913   1.998   .     S
O906   Zn914   1.998   .     S
O907   Zn913   1.997   .     S
O908   Zn914   1.997   .     S
O909   Zn913   2.020   .     S
O910   Zn914   2.020   .     S
O911   Zn913   2.007   .     S
O912   Zn914   2.007   .     S
O915   C916    1.423   .     S
C916   H918    1.118   .     S
C916   C919    1.525   .     S
C916   H917    1.111   .     S
C919   H921    1.109   .     S
C919   H920    1.111   .     S
C919   C1390   1.528   1_545 S
C922   H925    1.111   .     S
C922   H924    1.108   .     S
C922   H923    1.111   .     S
C922   C1153   1.528   .     S
O926   C927    1.422   .     S
C927   H929    1.111   .     S
C927   H928    1.111   .     S
C927   C930    1.537   .     S
C930   C933    1.527   .     S
C930   H932    1.111   .     S
C930   H931    1.104   .     S
C933   H934    1.111   .     S
C933   H935    1.110   .     S
C933   H780    1.111   1_655 S
C937   O986    1.282   .     A
C937   O983    1.282   .     A
C937   C946    1.418   .     S
C938   O984    1.283   .     A
C938   O985    1.281   .     A
C938   C945    1.418   .     S
C939   C964    1.396   .     A
C939   H971    1.084   .     S
C940   H972    1.084   .     S
C940   C963    1.398   .     A
C940   C264    1.388   1_556 S
C941   H973    1.084   .     S
C941   C946    1.397   .     A
C941   C1099   1.369   1_455 S
C942   C945    1.397   .     A
C942   H974    1.084   .     S
C942   C1022   1.369   .     S
C943   C945    1.396   .     A
C943   H975    1.083   .     S
C943   C1019   1.369   .     S
C944   C946    1.396   .     A
C944   H976    1.083   .     S
C944   C1098   1.369   1_455 S
C947   H977    1.081   .     S
C947   N982    1.367   .     A
C948   H978    1.081   .     S
C948   N981    1.366   .     A
C948   C1183   1.415   .     S
C949   N982    1.366   .     A
C949   H979    1.081   .     S
C950   N981    1.366   .     A
C950   H980    1.081   .     S
C950   C1181   1.415   .     S
C951   O987    1.283   .     A
C951   C956    1.429   .     S
C951   O990    1.286   .     A
C952   O989    1.287   .     A
C952   O988    1.286   .     A
C952   C955    1.437   .     S
C953   C963    1.380   .     A
C953   H967    1.086   .     S
C953   C955    1.395   .     A
C954   C956    1.391   .     A
C954   C964    1.381   .     A
C954   H968    1.086   .     S
C955   C957    1.407   .     A
C956   C958    1.404   .     A
C957   O993    1.392   .     S
C957   C959    1.407   .     A
C958   O1004   1.389   .     S
C958   C960    1.400   .     A
C959   C965    1.405   .     A
C959   C961    1.415   .     A
C960   C962    1.415   .     A
C960   C966    1.404   .     A
C961   C963    1.408   .     A
C961   C260    1.396   1_556 S
C962   C964    1.410   .     A
C965   H969    1.080   .     S
C965   C237    1.387   1_556 S
C966   H970    1.083   .     S
N981   Zn991   2.009   .     S
N982   Zn992   2.009   .     S
O983   Zn991   1.998   .     S
O984   Zn992   1.998   .     S
O985   Zn991   1.997   .     S
O986   Zn992   1.997   .     S
O987   Zn991   2.020   .     S
O988   Zn992   2.020   .     S
O989   Zn991   2.007   .     S
O990   Zn992   2.007   .     S
O993   C994    1.423   .     S
C994   H996    1.118   .     S
C994   C997    1.525   .     S
C994   H995    1.111   .     S
C997   H999    1.109   .     S
C997   H998    1.111   .     S
C1000  H1003   1.111   .     S
C1000  H1002   1.108   .     S
C1000  H1001   1.111   .     S
C1000  C1231   1.528   .     S
O1004  C1005   1.422   .     S
C1005  H1007   1.111   .     S
C1005  H1006   1.111   .     S
C1005  C1008   1.537   .     S
C1008  C1011   1.527   .     S
C1008  H1010   1.111   .     S
C1008  H1009   1.104   .     S
C1011  H1012   1.111   .     S
C1011  H1013   1.110   .     S
C1011  H1092   1.111   .     S
H1014  C1167   1.111   1_455 S
C1015  O1064   1.282   .     A
C1015  O1061   1.282   .     A
C1015  C1024   1.418   .     S
C1016  O1062   1.283   .     A
C1016  O1063   1.281   .     A
C1016  C1023   1.418   .     S
C1017  C1042   1.396   .     A
C1017  H1049   1.084   .     S
C1018  H1050   1.084   .     S
C1018  C1041   1.398   .     A
C1018  C342    1.388   1_556 S
C1019  H1051   1.084   .     S
C1019  C1024   1.397   .     A
C1020  C1023   1.397   .     A
C1020  H1052   1.084   .     S
C1020  C1100   1.369   .     S
C1021  C1023   1.396   .     A
C1021  H1053   1.083   .     S
C1021  C1097   1.369   .     S
C1022  C1024   1.396   .     A
C1022  H1054   1.083   .     S
C1025  H1055   1.081   .     S
C1025  N1060   1.367   .     A
C1026  H1056   1.081   .     S
C1026  N1059   1.366   .     A
C1026  C1261   1.415   .     S
C1027  N1060   1.366   .     A
C1027  H1057   1.081   .     S
C1028  N1059   1.366   .     A
C1028  H1058   1.081   .     S
C1028  C1259   1.415   .     S
C1029  O1065   1.283   .     A
C1029  C1034   1.429   .     S
C1029  O1068   1.286   .     A
C1030  O1067   1.287   .     A
C1030  O1066   1.286   .     A
C1030  C1033   1.437   .     S
C1031  C1041   1.380   .     A
C1031  H1045   1.086   .     S
C1031  C1033   1.395   .     A
C1032  C1034   1.391   .     A
C1032  C1042   1.381   .     A
C1032  H1046   1.086   .     S
C1033  C1035   1.407   .     A
C1034  C1036   1.404   .     A
C1035  O1071   1.392   .     S
C1035  C1037   1.407   .     A
C1036  O1082   1.389   .     S
C1036  C1038   1.400   .     A
C1037  C1043   1.405   .     A
C1037  C1039   1.415   .     A
C1038  C1040   1.415   .     A
C1038  C1044   1.404   .     A
C1039  C1041   1.408   .     A
C1039  C338    1.396   1_556 S
C1040  C1042   1.410   .     A
C1043  H1047   1.080   .     S
C1043  C315    1.387   1_556 S
C1044  H1048   1.083   .     S
N1059  Zn1069  2.009   .     S
N1060  Zn1070  2.009   .     S
O1061  Zn1069  1.998   .     S
O1062  Zn1070  1.998   .     S
O1063  Zn1069  1.997   .     S
O1064  Zn1070  1.997   .     S
O1065  Zn1069  2.020   .     S
O1066  Zn1070  2.020   .     S
O1067  Zn1069  2.007   .     S
O1068  Zn1070  2.007   .     S
O1071  C1072   1.423   .     S
C1072  H1074   1.118   .     S
C1072  C1075   1.525   .     S
C1072  H1073   1.111   .     S
C1075  H1077   1.109   .     S
C1075  H1076   1.111   .     S
C1078  H1081   1.111   .     S
C1078  H1080   1.108   .     S
C1078  H1079   1.111   .     S
C1078  C1309   1.528   .     S
O1082  C1083   1.422   .     S
C1083  H1085   1.111   .     S
C1083  H1084   1.111   .     S
C1083  C1086   1.537   .     S
C1086  C1089   1.527   .     S
C1086  H1088   1.111   .     S
C1086  H1087   1.104   .     S
C1089  H1090   1.111   .     S
C1089  H1091   1.110   .     S
C1089  H1170   1.111   .     S
C1093  O1142   1.282   .     A
C1093  O1139   1.282   .     A
C1093  C1102   1.418   .     S
C1094  O1140   1.283   .     A
C1094  O1141   1.281   .     A
C1094  C1101   1.418   .     S
C1095  C1120   1.396   .     A
C1095  H1127   1.084   .     S
C1096  H1128   1.084   .     S
C1096  C1119   1.398   .     A
C1096  C420    1.388   1_556 S
C1097  H1129   1.084   .     S
C1097  C1102   1.397   .     A
C1098  C1101   1.397   .     A
C1098  H1130   1.084   .     S
C1098  C944    1.369   1_655 S
C1099  C1101   1.396   .     A
C1099  H1131   1.083   .     S
C1099  C941    1.369   1_655 S
C1100  C1102   1.396   .     A
C1100  H1132   1.083   .     S
C1103  H1133   1.081   .     S
C1103  N1138   1.367   .     A
C1104  H1134   1.081   .     S
C1104  N1137   1.366   .     A
C1104  C1339   1.415   .     S
C1105  N1138   1.366   .     A
C1105  H1135   1.081   .     S
C1106  N1137   1.366   .     A
C1106  H1136   1.081   .     S
C1106  C1337   1.415   .     S
C1107  O1143   1.283   .     A
C1107  C1112   1.429   .     S
C1107  O1146   1.286   .     A
C1108  O1145   1.287   .     A
C1108  O1144   1.286   .     A
C1108  C1111   1.437   .     S
C1109  C1119   1.380   .     A
C1109  H1123   1.086   .     S
C1109  C1111   1.395   .     A
C1110  C1112   1.391   .     A
C1110  C1120   1.381   .     A
C1110  H1124   1.086   .     S
C1111  C1113   1.407   .     A
C1112  C1114   1.404   .     A
C1113  O1149   1.392   .     S
C1113  C1115   1.407   .     A
C1114  O1160   1.389   .     S
C1114  C1116   1.400   .     A
C1115  C1121   1.405   .     A
C1115  C1117   1.415   .     A
C1116  C1118   1.415   .     A
C1116  C1122   1.404   .     A
C1117  C1119   1.408   .     A
C1117  C416    1.396   1_556 S
C1118  C1120   1.410   .     A
C1121  H1125   1.080   .     S
C1121  C393    1.387   1_556 S
C1122  H1126   1.083   .     S
N1137  Zn1147  2.009   .     S
N1138  Zn1148  2.009   .     S
O1139  Zn1147  1.998   .     S
O1140  Zn1148  1.998   .     S
O1141  Zn1147  1.997   .     S
O1142  Zn1148  1.997   .     S
O1143  Zn1147  2.020   .     S
O1144  Zn1148  2.020   .     S
O1145  Zn1147  2.007   .     S
O1146  Zn1148  2.007   .     S
O1149  C1150   1.423   .     S
C1150  H1152   1.118   .     S
C1150  C1153   1.525   .     S
C1150  H1151   1.111   .     S
C1153  H1155   1.109   .     S
C1153  H1154   1.111   .     S
C1156  H1159   1.111   .     S
C1156  H1158   1.108   .     S
C1156  H1157   1.111   .     S
C1156  C1387   1.528   .     S
O1160  C1161   1.422   .     S
C1161  H1163   1.111   .     S
C1161  H1162   1.111   .     S
C1161  C1164   1.537   .     S
C1164  C1167   1.527   .     S
C1164  H1166   1.111   .     S
C1164  H1165   1.104   .     S
C1167  H1168   1.111   .     S
C1167  H1169   1.110   .     S
C1167  H1014   1.111   1_655 S
C1171  O1220   1.282   .     A
C1171  O1217   1.282   .     A
C1171  C1180   1.418   .     S
C1172  O1218   1.283   .     A
C1172  O1219   1.281   .     A
C1172  C1179   1.418   .     S
C1173  C1198   1.396   .     A
C1173  H1205   1.084   .     S
C1174  H1206   1.084   .     S
C1174  C1197   1.398   .     A
C1174  C498    1.388   1_556 S
C1175  H1207   1.084   .     S
C1175  C1180   1.397   .     A
C1175  C1333   1.369   1_455 S
C1176  C1179   1.397   .     A
C1176  H1208   1.084   .     S
C1176  C1256   1.369   .     S
C1177  C1179   1.396   .     A
C1177  H1209   1.083   .     S
C1177  C1253   1.369   .     S
C1178  C1180   1.396   .     A
C1178  H1210   1.083   .     S
C1178  C1332   1.369   1_455 S
C1181  H1211   1.081   .     S
C1181  N1216   1.367   .     A
C1182  H1212   1.081   .     S
C1182  N1215   1.366   .     A
C1182  C715    1.415   1_565 S
C1183  N1216   1.366   .     A
C1183  H1213   1.081   .     S
C1184  N1215   1.366   .     A
C1184  H1214   1.081   .     S
C1184  C713    1.415   1_565 S
C1185  O1221   1.283   .     A
C1185  C1190   1.429   .     S
C1185  O1224   1.286   .     A
C1186  O1223   1.287   .     A
C1186  O1222   1.286   .     A
C1186  C1189   1.437   .     S
C1187  C1197   1.380   .     A
C1187  H1201   1.086   .     S
C1187  C1189   1.395   .     A
C1188  C1190   1.391   .     A
C1188  C1198   1.381   .     A
C1188  H1202   1.086   .     S
C1189  C1191   1.407   .     A
C1190  C1192   1.404   .     A
C1191  O1227   1.392   .     S
C1191  C1193   1.407   .     A
C1192  O1238   1.389   .     S
C1192  C1194   1.400   .     A
C1193  C1199   1.405   .     A
C1193  C1195   1.415   .     A
C1194  C1196   1.415   .     A
C1194  C1200   1.404   .     A
C1195  C1197   1.408   .     A
C1195  C494    1.396   1_556 S
C1196  C1198   1.410   .     A
C1199  H1203   1.080   .     S
C1199  C471    1.387   1_556 S
C1200  H1204   1.083   .     S
N1215  Zn1225  2.009   .     S
N1216  Zn1226  2.009   .     S
O1217  Zn1225  1.998   .     S
O1218  Zn1226  1.998   .     S
O1219  Zn1225  1.997   .     S
O1220  Zn1226  1.997   .     S
O1221  Zn1225  2.020   .     S
O1222  Zn1226  2.020   .     S
O1223  Zn1225  2.007   .     S
O1224  Zn1226  2.007   .     S
O1227  C1228   1.423   .     S
C1228  H1230   1.118   .     S
C1228  C1231   1.525   .     S
C1228  H1229   1.111   .     S
C1231  H1233   1.109   .     S
C1231  H1232   1.111   .     S
C1234  H1237   1.111   .     S
C1234  H1236   1.108   .     S
C1234  H1235   1.111   .     S
C1234  C763    1.528   1_565 S
O1238  C1239   1.422   .     S
C1239  H1241   1.111   .     S
C1239  H1240   1.111   .     S
C1239  C1242   1.537   .     S
C1242  C1245   1.527   .     S
C1242  H1244   1.111   .     S
C1242  H1243   1.104   .     S
C1245  H1246   1.111   .     S
C1245  H1247   1.110   .     S
C1245  H1326   1.111   .     S
H1248  C1401   1.111   1_455 S
C1249  O1298   1.282   .     A
C1249  O1295   1.282   .     A
C1249  C1258   1.418   .     S
C1250  O1296   1.283   .     A
C1250  O1297   1.281   .     A
C1250  C1257   1.418   .     S
C1251  C1276   1.396   .     A
C1251  H1283   1.084   .     S
C1252  H1284   1.084   .     S
C1252  C1275   1.398   .     A
C1252  C576    1.388   1_556 S
C1253  H1285   1.084   .     S
C1253  C1258   1.397   .     A
C1254  C1257   1.397   .     A
C1254  H1286   1.084   .     S
C1254  C1334   1.369   .     S
C1255  C1257   1.396   .     A
C1255  H1287   1.083   .     S
C1255  C1331   1.369   .     S
C1256  C1258   1.396   .     A
C1256  H1288   1.083   .     S
C1259  H1289   1.081   .     S
C1259  N1294   1.367   .     A
C1260  H1290   1.081   .     S
C1260  N1293   1.366   .     A
C1260  C793    1.415   1_565 S
C1261  N1294   1.366   .     A
C1261  H1291   1.081   .     S
C1262  N1293   1.366   .     A
C1262  H1292   1.081   .     S
C1262  C791    1.415   1_565 S
C1263  O1299   1.283   .     A
C1263  C1268   1.429   .     S
C1263  O1302   1.286   .     A
C1264  O1301   1.287   .     A
C1264  O1300   1.286   .     A
C1264  C1267   1.437   .     S
C1265  C1275   1.380   .     A
C1265  H1279   1.086   .     S
C1265  C1267   1.395   .     A
C1266  C1268   1.391   .     A
C1266  C1276   1.381   .     A
C1266  H1280   1.086   .     S
C1267  C1269   1.407   .     A
C1268  C1270   1.404   .     A
C1269  O1305   1.392   .     S
C1269  C1271   1.407   .     A
C1270  O1316   1.389   .     S
C1270  C1272   1.400   .     A
C1271  C1277   1.405   .     A
C1271  C1273   1.415   .     A
C1272  C1274   1.415   .     A
C1272  C1278   1.404   .     A
C1273  C1275   1.408   .     A
C1273  C572    1.396   1_556 S
C1274  C1276   1.410   .     A
C1277  H1281   1.080   .     S
C1277  C549    1.387   1_556 S
C1278  H1282   1.083   .     S
N1293  Zn1303  2.009   .     S
N1294  Zn1304  2.009   .     S
O1295  Zn1303  1.998   .     S
O1296  Zn1304  1.998   .     S
O1297  Zn1303  1.997   .     S
O1298  Zn1304  1.997   .     S
O1299  Zn1303  2.020   .     S
O1300  Zn1304  2.020   .     S
O1301  Zn1303  2.007   .     S
O1302  Zn1304  2.007   .     S
O1305  C1306   1.423   .     S
C1306  H1308   1.118   .     S
C1306  C1309   1.525   .     S
C1306  H1307   1.111   .     S
C1309  H1311   1.109   .     S
C1309  H1310   1.111   .     S
C1312  H1315   1.111   .     S
C1312  H1314   1.108   .     S
C1312  H1313   1.111   .     S
C1312  C841    1.528   1_565 S
O1316  C1317   1.422   .     S
C1317  H1319   1.111   .     S
C1317  H1318   1.111   .     S
C1317  C1320   1.537   .     S
C1320  C1323   1.527   .     S
C1320  H1322   1.111   .     S
C1320  H1321   1.104   .     S
C1323  H1324   1.111   .     S
C1323  H1325   1.110   .     S
C1323  H1404   1.111   .     S
C1327  O1376   1.282   .     A
C1327  O1373   1.282   .     A
C1327  C1336   1.418   .     S
C1328  O1374   1.283   .     A
C1328  O1375   1.281   .     A
C1328  C1335   1.418   .     S
C1329  C1354   1.396   .     A
C1329  H1361   1.084   .     S
C1330  H1362   1.084   .     S
C1330  C1353   1.398   .     A
C1330  C654    1.388   1_556 S
C1331  H1363   1.084   .     S
C1331  C1336   1.397   .     A
C1332  C1335   1.397   .     A
C1332  H1364   1.084   .     S
C1332  C1178   1.369   1_655 S
C1333  C1335   1.396   .     A
C1333  H1365   1.083   .     S
C1333  C1175   1.369   1_655 S
C1334  C1336   1.396   .     A
C1334  H1366   1.083   .     S
C1337  H1367   1.081   .     S
C1337  N1372   1.367   .     A
C1338  H1368   1.081   .     S
C1338  N1371   1.366   .     A
C1338  C871    1.415   1_565 S
C1339  N1372   1.366   .     A
C1339  H1369   1.081   .     S
C1340  N1371   1.366   .     A
C1340  H1370   1.081   .     S
C1340  C869    1.415   1_565 S
C1341  O1377   1.283   .     A
C1341  C1346   1.429   .     S
C1341  O1380   1.286   .     A
C1342  O1379   1.287   .     A
C1342  O1378   1.286   .     A
C1342  C1345   1.437   .     S
C1343  C1353   1.380   .     A
C1343  H1357   1.086   .     S
C1343  C1345   1.395   .     A
C1344  C1346   1.391   .     A
C1344  C1354   1.381   .     A
C1344  H1358   1.086   .     S
C1345  C1347   1.407   .     A
C1346  C1348   1.404   .     A
C1347  O1383   1.392   .     S
C1347  C1349   1.407   .     A
C1348  O1394   1.389   .     S
C1348  C1350   1.400   .     A
C1349  C1355   1.405   .     A
C1349  C1351   1.415   .     A
C1350  C1352   1.415   .     A
C1350  C1356   1.404   .     A
C1351  C1353   1.408   .     A
C1351  C650    1.396   1_556 S
C1352  C1354   1.410   .     A
C1355  H1359   1.080   .     S
C1355  C627    1.387   1_556 S
C1356  H1360   1.083   .     S
N1371  Zn1381  2.009   .     S
N1372  Zn1382  2.009   .     S
O1373  Zn1381  1.998   .     S
O1374  Zn1382  1.998   .     S
O1375  Zn1381  1.997   .     S
O1376  Zn1382  1.997   .     S
O1377  Zn1381  2.020   .     S
O1378  Zn1382  2.020   .     S
O1379  Zn1381  2.007   .     S
O1380  Zn1382  2.007   .     S
O1383  C1384   1.423   .     S
C1384  H1386   1.118   .     S
C1384  C1387   1.525   .     S
C1384  H1385   1.111   .     S
C1387  H1389   1.109   .     S
C1387  H1388   1.111   .     S
C1390  H1393   1.111   .     S
C1390  H1392   1.108   .     S
C1390  H1391   1.111   .     S
C1390  C919    1.528   1_565 S
O1394  C1395   1.422   .     S
C1395  H1397   1.111   .     S
C1395  H1396   1.111   .     S
C1395  C1398   1.537   .     S
C1398  C1401   1.527   .     S
C1398  H1400   1.111   .     S
C1398  H1399   1.104   .     S
C1401  H1402   1.111   .     S
C1401  H1403   1.110   .     S
C1401  H1248   1.111   1_655 S
