data_str_m3_o1_o2_pcu_sym.91
_audit_creation_date              2020-01-03
_audit_creation_method            'Materials Studio'
_symmetry_space_group_name_H-M    'P1'
_symmetry_Int_Tables_number       1
_symmetry_cell_setting            triclinic
loop_
_symmetry_equiv_pos_as_xyz
  x,y,z
_cell_length_a                    32.1254
_cell_length_b                    29.4261
_cell_length_c                    30.1547
_cell_angle_alpha                 89.7009
_cell_angle_beta                  90.6564
_cell_angle_gamma                 88.3787
loop_
_atom_site_label
_atom_site_type_symbol
_atom_site_fract_x
_atom_site_fract_y
_atom_site_fract_z
_atom_site_U_iso_or_equiv
_atom_site_adp_type
_atom_site_occupancy
C1     C     0.08664   0.16744   0.24947   0.00000  Uiso   1.00
C2     C     0.31112   0.19663   0.27833   0.00000  Uiso   1.00
C3     C     0.31261   0.13485   0.22317   0.00000  Uiso   1.00
C4     C     0.02062   0.20003   0.27515   0.00000  Uiso   1.00
C5     C     0.17346   0.20872   0.04607   0.00000  Uiso   1.00
C6     C     0.20314   0.13807   0.45124   0.00000  Uiso   1.00
C7     C     0.14833   0.19646   0.45367   0.00000  Uiso   1.00
C8     C     0.18495   0.12715   0.04681   0.00000  Uiso   1.00
C9     C     0.16779   0.20872   0.09149   0.00000  Uiso   1.00
C10    C     0.19901   0.13574   0.40529   0.00000  Uiso   1.00
C11    C     0.14550   0.19697   0.40790   0.00000  Uiso   1.00
C12    C     0.24669   0.16600   0.25041   0.00000  Uiso   1.00
C13    C     0.18212   0.12636   0.09266   0.00000  Uiso   1.00
C14    C     0.17179   0.16715   0.11544   0.00000  Uiso   1.00
C15    C     0.17031   0.16603   0.38372   0.00000  Uiso   1.00
C16    C     0.17974   0.16799   0.02349   0.00000  Uiso   1.00
C17    C     0.17767   0.16795   0.47534   0.00000  Uiso   1.00
C18    C     0.29095   0.16468   0.25169   0.00000  Uiso   1.00
C19    C     0.04238   0.16935   0.24760   0.00000  Uiso   1.00
C20    C     0.11424   0.26399   0.10979   0.00000  Uiso   1.00
C21    C     0.26370   0.08887   0.39605   0.00000  Uiso   1.00
C22    C     0.12924   0.27383   0.38462   0.00000  Uiso   1.00
C23    C     0.16765   0.16678   0.16365   0.00000  Uiso   1.00
C24    C     0.16004   0.05149   0.11351   0.00000  Uiso   1.00
C25    C     0.05418   0.13869   0.14789   0.00000  Uiso   1.00
C26    C     0.27716   0.20365   0.34924   0.00000  Uiso   1.00
C27    C     0.28759   0.05845   0.21404   0.00000  Uiso   1.00
C28    C     0.04535   0.27691   0.27846   0.00000  Uiso   1.00
C29    C     0.16724   0.16647   0.33600   0.00000  Uiso   1.00
C30    C     0.19484   0.02301   0.27525   0.00000  Uiso   1.00
C31    C     0.13838   0.31032   0.22497   0.00000  Uiso   1.00
C32    C     0.13822   0.02501   0.22513   0.00000  Uiso   1.00
C33    C     0.19483   0.30831   0.27528   0.00000  Uiso   1.00
C34    C     0.02216   0.13854   0.21986   0.00000  Uiso   1.00
H35    H     0.17114   0.24075   0.02818   0.00000  Uiso   1.00
H36    H     0.10381   0.26739   0.07462   0.00000  Uiso   1.00
H37    H     0.10904   0.29729   0.12620   0.00000  Uiso   1.00
H38    H     0.09533   0.23841   0.12688   0.00000  Uiso   1.00
H39    H     0.20497   0.07613   0.36947   0.00000  Uiso   1.00
H40    H     0.26158   0.06404   0.42375   0.00000  Uiso   1.00
H41    H     0.28141   0.11878   0.40698   0.00000  Uiso   1.00
H42    H     0.28086   0.07221   0.36852   0.00000  Uiso   1.00
H43    H     0.08660   0.22480   0.39892   0.00000  Uiso   1.00
H44    H     0.13151   0.28810   0.41859   0.00000  Uiso   1.00
H45    H     0.10606   0.29464   0.36529   0.00000  Uiso   1.00
H46    H     0.22565   0.11616   0.46842   0.00000  Uiso   1.00
H47    H     0.15991   0.27602   0.36822   0.00000  Uiso   1.00
H48    H     0.22082   0.07127   0.10703   0.00000  Uiso   1.00
H49    H     0.15536   0.03972   0.07890   0.00000  Uiso   1.00
H50    H     0.13030   0.06590   0.12632   0.00000  Uiso   1.00
H51    H     0.16957   0.02181   0.13447   0.00000  Uiso   1.00
H52    H     0.03467   0.08118   0.18083   0.00000  Uiso   1.00
H53    H     0.02481   0.15009   0.13089   0.00000  Uiso   1.00
H54    H     0.07248   0.11704   0.12481   0.00000  Uiso   1.00
H55    H     0.07277   0.16870   0.15629   0.00000  Uiso   1.00
H56    H     0.29831   0.25755   0.31209   0.00000  Uiso   1.00
H57    H     0.12728   0.21840   0.47221   0.00000  Uiso   1.00
H58    H     0.30573   0.19567   0.36922   0.00000  Uiso   1.00
H59    H     0.26042   0.17197   0.34268   0.00000  Uiso   1.00
H60    H     0.25636   0.22684   0.36840   0.00000  Uiso   1.00
H61    H     0.29902   0.10404   0.16291   0.00000  Uiso   1.00
H62    H     0.31783   0.03949   0.21193   0.00000  Uiso   1.00
H63    H     0.26380   0.03975   0.19503   0.00000  Uiso   1.00
H64    H     0.27822   0.05963   0.24934   0.00000  Uiso   1.00
H65    H     0.03345   0.23573   0.33297   0.00000  Uiso   1.00
H66    H     0.01582   0.29709   0.28110   0.00000  Uiso   1.00
H67    H     0.05263   0.27275   0.24278   0.00000  Uiso   1.00
H68    H     0.19038   0.09538   0.02957   0.00000  Uiso   1.00
H69    H     0.07060   0.29620   0.29434   0.00000  Uiso   1.00
H70    H     0.21732   0.04045   0.29541   0.00000  Uiso   1.00
H71    H     0.11579   0.29282   0.20509   0.00000  Uiso   1.00
H72    H     0.11541   0.04404   0.20536   0.00000  Uiso   1.00
H73    H     0.21724   0.28927   0.29554   0.00000  Uiso   1.00
H74    H     0.17659   0.27681   0.10202   0.00000  Uiso   1.00
N75    N     0.16667   0.28573   0.25000   0.00000  Uiso   1.00
N76    N     0.04222   0.23312   0.30029   0.00000  Uiso   1.00
N77    N     0.16667   0.04760   0.25000   0.00000  Uiso   1.00
N78    N     0.15795   0.25090   0.11235   0.00000  Uiso   1.00
N79    N     0.22243   0.10277   0.38049   0.00000  Uiso   1.00
N80    N     0.11623   0.22716   0.38643   0.00000  Uiso   1.00
N81    N     0.19210   0.08495   0.11553   0.00000  Uiso   1.00
N82    N     0.04513   0.11316   0.18759   0.00000  Uiso   1.00
N83    N     0.28787   0.22513   0.30790   0.00000  Uiso   1.00
N84    N     0.29065   0.10390   0.19581   0.00000  Uiso   1.00
O85    O     0.10559   0.20487   0.25000   0.00000  Uiso   1.00
O86    O     0.22774   0.12846   0.25001   0.00000  Uiso   1.00
O87    O     0.22774   0.20487   0.25001   0.00000  Uiso   1.00
O88    O     0.10559   0.12846   0.25000   0.00000  Uiso   1.00
O89    O     0.16666   0.20489   0.18453   0.00000  Uiso   1.00
O90    O     0.16667   0.12845   0.31547   0.00000  Uiso   1.00
O91    O     0.16667   0.20489   0.31547   0.00000  Uiso   1.00
O92    O     0.16666   0.12845   0.18453   0.00000  Uiso   1.00
Zn93   Zn    0.16667   0.21771   0.25000   0.00000  Uiso   1.00
Zn94   Zn    0.16667   0.11563   0.25000   0.00000  Uiso   1.00
C95    C     0.41998   0.16744   0.24947   0.00000  Uiso   1.00
C96    C     0.64445   0.19663   0.27833   0.00000  Uiso   1.00
C97    C     0.64595   0.13485   0.22317   0.00000  Uiso   1.00
C98    C     0.35396   0.20003   0.27515   0.00000  Uiso   1.00
C99    C     0.50680   0.20872   0.04607   0.00000  Uiso   1.00
C100   C     0.53648   0.13807   0.45124   0.00000  Uiso   1.00
C101   C     0.48166   0.19646   0.45367   0.00000  Uiso   1.00
C102   C     0.51828   0.12715   0.04681   0.00000  Uiso   1.00
C103   C     0.50112   0.20872   0.09149   0.00000  Uiso   1.00
C104   C     0.53234   0.13574   0.40529   0.00000  Uiso   1.00
C105   C     0.47883   0.19697   0.40790   0.00000  Uiso   1.00
C106   C     0.58002   0.16600   0.25041   0.00000  Uiso   1.00
C107   C     0.51545   0.12636   0.09266   0.00000  Uiso   1.00
C108   C     0.50512   0.16715   0.11544   0.00000  Uiso   1.00
C109   C     0.50364   0.16603   0.38372   0.00000  Uiso   1.00
C110   C     0.51307   0.16799   0.02349   0.00000  Uiso   1.00
C111   C     0.51100   0.16795   0.47534   0.00000  Uiso   1.00
C112   C     0.62428   0.16468   0.25169   0.00000  Uiso   1.00
C113   C     0.37572   0.16935   0.24760   0.00000  Uiso   1.00
C114   C     0.44757   0.26399   0.10979   0.00000  Uiso   1.00
C115   C     0.59703   0.08887   0.39605   0.00000  Uiso   1.00
C116   C     0.46257   0.27383   0.38462   0.00000  Uiso   1.00
C117   C     0.50098   0.16678   0.16365   0.00000  Uiso   1.00
C118   C     0.49337   0.05149   0.11351   0.00000  Uiso   1.00
C119   C     0.38751   0.13869   0.14789   0.00000  Uiso   1.00
C120   C     0.61049   0.20365   0.34924   0.00000  Uiso   1.00
C121   C     0.62093   0.05845   0.21404   0.00000  Uiso   1.00
C122   C     0.37869   0.27691   0.27846   0.00000  Uiso   1.00
C123   C     0.50058   0.16647   0.33600   0.00000  Uiso   1.00
C124   C     0.52817   0.02301   0.27525   0.00000  Uiso   1.00
C125   C     0.47171   0.31032   0.22497   0.00000  Uiso   1.00
C126   C     0.47155   0.02501   0.22513   0.00000  Uiso   1.00
C127   C     0.52816   0.30831   0.27528   0.00000  Uiso   1.00
C128   C     0.35549   0.13854   0.21986   0.00000  Uiso   1.00
H129   H     0.50447   0.24075   0.02818   0.00000  Uiso   1.00
H130   H     0.43714   0.26739   0.07462   0.00000  Uiso   1.00
H131   H     0.44237   0.29729   0.12620   0.00000  Uiso   1.00
H132   H     0.42867   0.23841   0.12688   0.00000  Uiso   1.00
H133   H     0.53830   0.07613   0.36947   0.00000  Uiso   1.00
H134   H     0.59491   0.06404   0.42375   0.00000  Uiso   1.00
H135   H     0.61475   0.11878   0.40698   0.00000  Uiso   1.00
H136   H     0.61420   0.07221   0.36852   0.00000  Uiso   1.00
H137   H     0.41993   0.22480   0.39892   0.00000  Uiso   1.00
H138   H     0.46485   0.28810   0.41859   0.00000  Uiso   1.00
H139   H     0.43939   0.29464   0.36529   0.00000  Uiso   1.00
H140   H     0.55898   0.11616   0.46842   0.00000  Uiso   1.00
H141   H     0.49325   0.27602   0.36822   0.00000  Uiso   1.00
H142   H     0.55415   0.07127   0.10703   0.00000  Uiso   1.00
H143   H     0.48869   0.03972   0.07890   0.00000  Uiso   1.00
H144   H     0.46363   0.06590   0.12632   0.00000  Uiso   1.00
H145   H     0.50290   0.02181   0.13447   0.00000  Uiso   1.00
H146   H     0.36800   0.08118   0.18083   0.00000  Uiso   1.00
H147   H     0.35814   0.15009   0.13089   0.00000  Uiso   1.00
H148   H     0.40581   0.11704   0.12481   0.00000  Uiso   1.00
H149   H     0.40610   0.16870   0.15629   0.00000  Uiso   1.00
H150   H     0.63164   0.25755   0.31209   0.00000  Uiso   1.00
H151   H     0.46061   0.21840   0.47221   0.00000  Uiso   1.00
H152   H     0.63906   0.19567   0.36922   0.00000  Uiso   1.00
H153   H     0.59375   0.17197   0.34268   0.00000  Uiso   1.00
H154   H     0.58969   0.22684   0.36840   0.00000  Uiso   1.00
H155   H     0.63235   0.10404   0.16291   0.00000  Uiso   1.00
H156   H     0.65117   0.03949   0.21193   0.00000  Uiso   1.00
H157   H     0.59713   0.03975   0.19503   0.00000  Uiso   1.00
H158   H     0.61156   0.05963   0.24934   0.00000  Uiso   1.00
H159   H     0.36679   0.23573   0.33297   0.00000  Uiso   1.00
H160   H     0.34915   0.29709   0.28110   0.00000  Uiso   1.00
H161   H     0.38597   0.27275   0.24278   0.00000  Uiso   1.00
H162   H     0.52371   0.09538   0.02957   0.00000  Uiso   1.00
H163   H     0.40393   0.29620   0.29434   0.00000  Uiso   1.00
H164   H     0.55065   0.04045   0.29541   0.00000  Uiso   1.00
H165   H     0.44912   0.29282   0.20509   0.00000  Uiso   1.00
H166   H     0.44875   0.04404   0.20536   0.00000  Uiso   1.00
H167   H     0.55057   0.28927   0.29554   0.00000  Uiso   1.00
H168   H     0.50992   0.27681   0.10202   0.00000  Uiso   1.00
N169   N     0.50000   0.28573   0.25000   0.00000  Uiso   1.00
N170   N     0.37555   0.23312   0.30029   0.00000  Uiso   1.00
N171   N     0.50000   0.04760   0.25000   0.00000  Uiso   1.00
N172   N     0.49129   0.25090   0.11235   0.00000  Uiso   1.00
N173   N     0.55577   0.10277   0.38049   0.00000  Uiso   1.00
N174   N     0.44956   0.22716   0.38643   0.00000  Uiso   1.00
N175   N     0.52543   0.08495   0.11553   0.00000  Uiso   1.00
N176   N     0.37846   0.11316   0.18759   0.00000  Uiso   1.00
N177   N     0.62120   0.22513   0.30790   0.00000  Uiso   1.00
N178   N     0.62399   0.10390   0.19581   0.00000  Uiso   1.00
O179   O     0.43892   0.20487   0.25000   0.00000  Uiso   1.00
O180   O     0.56108   0.12846   0.25001   0.00000  Uiso   1.00
O181   O     0.56108   0.20487   0.25001   0.00000  Uiso   1.00
O182   O     0.43892   0.12846   0.25000   0.00000  Uiso   1.00
O183   O     0.50000   0.20489   0.18453   0.00000  Uiso   1.00
O184   O     0.50000   0.12845   0.31547   0.00000  Uiso   1.00
O185   O     0.50000   0.20489   0.31547   0.00000  Uiso   1.00
O186   O     0.50000   0.12845   0.18453   0.00000  Uiso   1.00
Zn187  Zn    0.50000   0.21771   0.25000   0.00000  Uiso   1.00
Zn188  Zn    0.50000   0.11563   0.25000   0.00000  Uiso   1.00
C189   C     0.75331   0.16744   0.24947   0.00000  Uiso   1.00
C190   C     0.97778   0.19663   0.27833   0.00000  Uiso   1.00
C191   C     0.97928   0.13485   0.22317   0.00000  Uiso   1.00
C192   C     0.68729   0.20003   0.27515   0.00000  Uiso   1.00
C193   C     0.84013   0.20872   0.04607   0.00000  Uiso   1.00
C194   C     0.86981   0.13807   0.45124   0.00000  Uiso   1.00
C195   C     0.81499   0.19646   0.45367   0.00000  Uiso   1.00
C196   C     0.85161   0.12715   0.04681   0.00000  Uiso   1.00
C197   C     0.83445   0.20872   0.09149   0.00000  Uiso   1.00
C198   C     0.86567   0.13574   0.40529   0.00000  Uiso   1.00
C199   C     0.81217   0.19697   0.40790   0.00000  Uiso   1.00
C200   C     0.91335   0.16600   0.25041   0.00000  Uiso   1.00
C201   C     0.84879   0.12636   0.09266   0.00000  Uiso   1.00
C202   C     0.83845   0.16715   0.11544   0.00000  Uiso   1.00
C203   C     0.83698   0.16603   0.38372   0.00000  Uiso   1.00
C204   C     0.84640   0.16799   0.02349   0.00000  Uiso   1.00
C205   C     0.84433   0.16795   0.47534   0.00000  Uiso   1.00
C206   C     0.95761   0.16468   0.25169   0.00000  Uiso   1.00
C207   C     0.70905   0.16935   0.24760   0.00000  Uiso   1.00
C208   C     0.78091   0.26399   0.10979   0.00000  Uiso   1.00
C209   C     0.93036   0.08887   0.39605   0.00000  Uiso   1.00
C210   C     0.79590   0.27383   0.38462   0.00000  Uiso   1.00
C211   C     0.83431   0.16678   0.16365   0.00000  Uiso   1.00
C212   C     0.82670   0.05149   0.11351   0.00000  Uiso   1.00
C213   C     0.72084   0.13869   0.14789   0.00000  Uiso   1.00
C214   C     0.94383   0.20365   0.34924   0.00000  Uiso   1.00
C215   C     0.95426   0.05845   0.21404   0.00000  Uiso   1.00
C216   C     0.71202   0.27691   0.27846   0.00000  Uiso   1.00
C217   C     0.83391   0.16647   0.33600   0.00000  Uiso   1.00
C218   C     0.86151   0.02301   0.27525   0.00000  Uiso   1.00
C219   C     0.80504   0.31032   0.22497   0.00000  Uiso   1.00
C220   C     0.80489   0.02501   0.22513   0.00000  Uiso   1.00
C221   C     0.86149   0.30831   0.27528   0.00000  Uiso   1.00
C222   C     0.68882   0.13854   0.21986   0.00000  Uiso   1.00
H223   H     0.83780   0.24075   0.02818   0.00000  Uiso   1.00
H224   H     0.77047   0.26739   0.07462   0.00000  Uiso   1.00
H225   H     0.77570   0.29729   0.12620   0.00000  Uiso   1.00
H226   H     0.76200   0.23841   0.12688   0.00000  Uiso   1.00
H227   H     0.87164   0.07613   0.36947   0.00000  Uiso   1.00
H228   H     0.92824   0.06404   0.42375   0.00000  Uiso   1.00
H229   H     0.94808   0.11878   0.40698   0.00000  Uiso   1.00
H230   H     0.94753   0.07221   0.36852   0.00000  Uiso   1.00
H231   H     0.75327   0.22480   0.39892   0.00000  Uiso   1.00
H232   H     0.79818   0.28810   0.41859   0.00000  Uiso   1.00
H233   H     0.77273   0.29464   0.36529   0.00000  Uiso   1.00
H234   H     0.89231   0.11616   0.46842   0.00000  Uiso   1.00
H235   H     0.82658   0.27602   0.36822   0.00000  Uiso   1.00
H236   H     0.88748   0.07127   0.10703   0.00000  Uiso   1.00
H237   H     0.82202   0.03972   0.07890   0.00000  Uiso   1.00
H238   H     0.79696   0.06590   0.12632   0.00000  Uiso   1.00
H239   H     0.83624   0.02181   0.13447   0.00000  Uiso   1.00
H240   H     0.70133   0.08118   0.18083   0.00000  Uiso   1.00
H241   H     0.69148   0.15009   0.13089   0.00000  Uiso   1.00
H242   H     0.73915   0.11704   0.12481   0.00000  Uiso   1.00
H243   H     0.73944   0.16870   0.15629   0.00000  Uiso   1.00
H244   H     0.96498   0.25755   0.31209   0.00000  Uiso   1.00
H245   H     0.79395   0.21840   0.47221   0.00000  Uiso   1.00
H246   H     0.97239   0.19567   0.36922   0.00000  Uiso   1.00
H247   H     0.92709   0.17197   0.34268   0.00000  Uiso   1.00
H248   H     0.92302   0.22684   0.36840   0.00000  Uiso   1.00
H249   H     0.96569   0.10404   0.16291   0.00000  Uiso   1.00
H250   H     0.98450   0.03949   0.21193   0.00000  Uiso   1.00
H251   H     0.93047   0.03975   0.19503   0.00000  Uiso   1.00
H252   H     0.94489   0.05963   0.24934   0.00000  Uiso   1.00
H253   H     0.70012   0.23573   0.33297   0.00000  Uiso   1.00
H254   H     0.68249   0.29709   0.28110   0.00000  Uiso   1.00
H255   H     0.71930   0.27275   0.24278   0.00000  Uiso   1.00
H256   H     0.85704   0.09538   0.02957   0.00000  Uiso   1.00
H257   H     0.73727   0.29620   0.29434   0.00000  Uiso   1.00
H258   H     0.88398   0.04045   0.29541   0.00000  Uiso   1.00
H259   H     0.78246   0.29282   0.20509   0.00000  Uiso   1.00
H260   H     0.78208   0.04404   0.20536   0.00000  Uiso   1.00
H261   H     0.88390   0.28927   0.29554   0.00000  Uiso   1.00
H262   H     0.84325   0.27681   0.10202   0.00000  Uiso   1.00
N263   N     0.83333   0.28573   0.25000   0.00000  Uiso   1.00
N264   N     0.70888   0.23312   0.30029   0.00000  Uiso   1.00
N265   N     0.83333   0.04760   0.25000   0.00000  Uiso   1.00
N266   N     0.82462   0.25090   0.11235   0.00000  Uiso   1.00
N267   N     0.88910   0.10277   0.38049   0.00000  Uiso   1.00
N268   N     0.78289   0.22716   0.38643   0.00000  Uiso   1.00
N269   N     0.85876   0.08495   0.11553   0.00000  Uiso   1.00
N270   N     0.71179   0.11316   0.18759   0.00000  Uiso   1.00
N271   N     0.95453   0.22513   0.30790   0.00000  Uiso   1.00
N272   N     0.95732   0.10390   0.19581   0.00000  Uiso   1.00
O273   O     0.77226   0.20487   0.25000   0.00000  Uiso   1.00
O274   O     0.89441   0.12846   0.25001   0.00000  Uiso   1.00
O275   O     0.89441   0.20487   0.25001   0.00000  Uiso   1.00
O276   O     0.77226   0.12846   0.25000   0.00000  Uiso   1.00
O277   O     0.83333   0.20489   0.18453   0.00000  Uiso   1.00
O278   O     0.83334   0.12845   0.31547   0.00000  Uiso   1.00
O279   O     0.83334   0.20489   0.31547   0.00000  Uiso   1.00
O280   O     0.83333   0.12845   0.18453   0.00000  Uiso   1.00
Zn281  Zn    0.83333   0.21771   0.25000   0.00000  Uiso   1.00
Zn282  Zn    0.83333   0.11563   0.25000   0.00000  Uiso   1.00
C283   C     0.08664   0.50077   0.24947   0.00000  Uiso   1.00
C284   C     0.31112   0.52996   0.27833   0.00000  Uiso   1.00
C285   C     0.31261   0.46818   0.22317   0.00000  Uiso   1.00
C286   C     0.02062   0.53336   0.27515   0.00000  Uiso   1.00
C287   C     0.17346   0.54205   0.04607   0.00000  Uiso   1.00
C288   C     0.20314   0.47140   0.45124   0.00000  Uiso   1.00
C289   C     0.14833   0.52979   0.45367   0.00000  Uiso   1.00
C290   C     0.18495   0.46048   0.04681   0.00000  Uiso   1.00
C291   C     0.16779   0.54206   0.09149   0.00000  Uiso   1.00
C292   C     0.19901   0.46908   0.40529   0.00000  Uiso   1.00
C293   C     0.14550   0.53031   0.40790   0.00000  Uiso   1.00
C294   C     0.24669   0.49933   0.25041   0.00000  Uiso   1.00
C295   C     0.18212   0.45970   0.09266   0.00000  Uiso   1.00
C296   C     0.17179   0.50048   0.11544   0.00000  Uiso   1.00
C297   C     0.17031   0.49936   0.38372   0.00000  Uiso   1.00
C298   C     0.17974   0.50132   0.02349   0.00000  Uiso   1.00
C299   C     0.17767   0.50129   0.47534   0.00000  Uiso   1.00
C300   C     0.29095   0.49801   0.25169   0.00000  Uiso   1.00
C301   C     0.04238   0.50268   0.24760   0.00000  Uiso   1.00
C302   C     0.11424   0.59733   0.10979   0.00000  Uiso   1.00
C303   C     0.26370   0.42220   0.39605   0.00000  Uiso   1.00
C304   C     0.12924   0.60716   0.38462   0.00000  Uiso   1.00
C305   C     0.16765   0.50012   0.16365   0.00000  Uiso   1.00
C306   C     0.16004   0.38483   0.11351   0.00000  Uiso   1.00
C307   C     0.05418   0.47203   0.14789   0.00000  Uiso   1.00
C308   C     0.27716   0.53698   0.34924   0.00000  Uiso   1.00
C309   C     0.28759   0.39179   0.21404   0.00000  Uiso   1.00
C310   C     0.04535   0.61024   0.27846   0.00000  Uiso   1.00
C311   C     0.16724   0.49980   0.33600   0.00000  Uiso   1.00
C312   C     0.19484   0.35634   0.27525   0.00000  Uiso   1.00
C313   C     0.13838   0.64366   0.22497   0.00000  Uiso   1.00
C314   C     0.13822   0.35834   0.22513   0.00000  Uiso   1.00
C315   C     0.19483   0.64165   0.27528   0.00000  Uiso   1.00
C316   C     0.02216   0.47187   0.21986   0.00000  Uiso   1.00
H317   H     0.17114   0.57409   0.02818   0.00000  Uiso   1.00
H318   H     0.10381   0.60072   0.07462   0.00000  Uiso   1.00
H319   H     0.10904   0.63063   0.12620   0.00000  Uiso   1.00
H320   H     0.09533   0.57175   0.12688   0.00000  Uiso   1.00
H321   H     0.20497   0.40947   0.36947   0.00000  Uiso   1.00
H322   H     0.26158   0.39737   0.42375   0.00000  Uiso   1.00
H323   H     0.28141   0.45211   0.40698   0.00000  Uiso   1.00
H324   H     0.28086   0.40555   0.36852   0.00000  Uiso   1.00
H325   H     0.08660   0.55814   0.39892   0.00000  Uiso   1.00
H326   H     0.13151   0.62144   0.41859   0.00000  Uiso   1.00
H327   H     0.10606   0.62797   0.36529   0.00000  Uiso   1.00
H328   H     0.22565   0.44950   0.46842   0.00000  Uiso   1.00
H329   H     0.15991   0.60936   0.36822   0.00000  Uiso   1.00
H330   H     0.22082   0.40460   0.10703   0.00000  Uiso   1.00
H331   H     0.15536   0.37306   0.07890   0.00000  Uiso   1.00
H332   H     0.13030   0.39924   0.12632   0.00000  Uiso   1.00
H333   H     0.16957   0.35514   0.13447   0.00000  Uiso   1.00
H334   H     0.03467   0.41451   0.18083   0.00000  Uiso   1.00
H335   H     0.02481   0.48343   0.13089   0.00000  Uiso   1.00
H336   H     0.07248   0.45037   0.12481   0.00000  Uiso   1.00
H337   H     0.07277   0.50203   0.15629   0.00000  Uiso   1.00
H338   H     0.29831   0.59089   0.31209   0.00000  Uiso   1.00
H339   H     0.12728   0.55173   0.47221   0.00000  Uiso   1.00
H340   H     0.30573   0.52900   0.36922   0.00000  Uiso   1.00
H341   H     0.26042   0.50530   0.34268   0.00000  Uiso   1.00
H342   H     0.25636   0.56017   0.36840   0.00000  Uiso   1.00
H343   H     0.29902   0.43737   0.16291   0.00000  Uiso   1.00
H344   H     0.31783   0.37282   0.21193   0.00000  Uiso   1.00
H345   H     0.26380   0.37308   0.19503   0.00000  Uiso   1.00
H346   H     0.27822   0.39296   0.24934   0.00000  Uiso   1.00
H347   H     0.03345   0.56906   0.33297   0.00000  Uiso   1.00
H348   H     0.01582   0.63042   0.28110   0.00000  Uiso   1.00
H349   H     0.05263   0.60609   0.24278   0.00000  Uiso   1.00
H350   H     0.19038   0.42872   0.02957   0.00000  Uiso   1.00
H351   H     0.07060   0.62953   0.29434   0.00000  Uiso   1.00
H352   H     0.21732   0.37379   0.29541   0.00000  Uiso   1.00
H353   H     0.11579   0.62616   0.20509   0.00000  Uiso   1.00
H354   H     0.11541   0.37737   0.20536   0.00000  Uiso   1.00
H355   H     0.21724   0.62260   0.29554   0.00000  Uiso   1.00
H356   H     0.17659   0.61015   0.10202   0.00000  Uiso   1.00
N357   N     0.16667   0.61907   0.25000   0.00000  Uiso   1.00
N358   N     0.04222   0.56645   0.30029   0.00000  Uiso   1.00
N359   N     0.16667   0.38093   0.25000   0.00000  Uiso   1.00
N360   N     0.15795   0.58424   0.11235   0.00000  Uiso   1.00
N361   N     0.22243   0.43610   0.38049   0.00000  Uiso   1.00
N362   N     0.11623   0.56049   0.38643   0.00000  Uiso   1.00
N363   N     0.19210   0.41829   0.11553   0.00000  Uiso   1.00
N364   N     0.04513   0.44649   0.18759   0.00000  Uiso   1.00
N365   N     0.28787   0.55846   0.30790   0.00000  Uiso   1.00
N366   N     0.29065   0.43723   0.19581   0.00000  Uiso   1.00
O367   O     0.10559   0.53821   0.25000   0.00000  Uiso   1.00
O368   O     0.22774   0.46179   0.25001   0.00000  Uiso   1.00
O369   O     0.22774   0.53821   0.25001   0.00000  Uiso   1.00
O370   O     0.10559   0.46179   0.25000   0.00000  Uiso   1.00
O371   O     0.16666   0.53822   0.18453   0.00000  Uiso   1.00
O372   O     0.16667   0.46178   0.31547   0.00000  Uiso   1.00
O373   O     0.16667   0.53822   0.31547   0.00000  Uiso   1.00
O374   O     0.16666   0.46178   0.18453   0.00000  Uiso   1.00
Zn375  Zn    0.16667   0.55104   0.25000   0.00000  Uiso   1.00
Zn376  Zn    0.16667   0.44896   0.25000   0.00000  Uiso   1.00
C377   C     0.41998   0.50077   0.24947   0.00000  Uiso   1.00
C378   C     0.64445   0.52996   0.27833   0.00000  Uiso   1.00
C379   C     0.64595   0.46818   0.22317   0.00000  Uiso   1.00
C380   C     0.35396   0.53336   0.27515   0.00000  Uiso   1.00
C381   C     0.50680   0.54205   0.04607   0.00000  Uiso   1.00
C382   C     0.53648   0.47140   0.45124   0.00000  Uiso   1.00
C383   C     0.48166   0.52979   0.45367   0.00000  Uiso   1.00
C384   C     0.51828   0.46048   0.04681   0.00000  Uiso   1.00
C385   C     0.50112   0.54206   0.09149   0.00000  Uiso   1.00
C386   C     0.53234   0.46908   0.40529   0.00000  Uiso   1.00
C387   C     0.47883   0.53031   0.40790   0.00000  Uiso   1.00
C388   C     0.58002   0.49933   0.25041   0.00000  Uiso   1.00
C389   C     0.51545   0.45970   0.09266   0.00000  Uiso   1.00
C390   C     0.50512   0.50048   0.11544   0.00000  Uiso   1.00
C391   C     0.50364   0.49936   0.38372   0.00000  Uiso   1.00
C392   C     0.51307   0.50132   0.02349   0.00000  Uiso   1.00
C393   C     0.51100   0.50129   0.47534   0.00000  Uiso   1.00
C394   C     0.62428   0.49801   0.25169   0.00000  Uiso   1.00
C395   C     0.37572   0.50268   0.24760   0.00000  Uiso   1.00
C396   C     0.44757   0.59733   0.10979   0.00000  Uiso   1.00
C397   C     0.59703   0.42220   0.39605   0.00000  Uiso   1.00
C398   C     0.46257   0.60716   0.38462   0.00000  Uiso   1.00
C399   C     0.50098   0.50012   0.16365   0.00000  Uiso   1.00
C400   C     0.49337   0.38483   0.11351   0.00000  Uiso   1.00
C401   C     0.38751   0.47203   0.14789   0.00000  Uiso   1.00
C402   C     0.61049   0.53698   0.34924   0.00000  Uiso   1.00
C403   C     0.62093   0.39179   0.21404   0.00000  Uiso   1.00
C404   C     0.37869   0.61024   0.27846   0.00000  Uiso   1.00
C405   C     0.50058   0.49980   0.33600   0.00000  Uiso   1.00
C406   C     0.52817   0.35634   0.27525   0.00000  Uiso   1.00
C407   C     0.47171   0.64366   0.22497   0.00000  Uiso   1.00
C408   C     0.47155   0.35834   0.22513   0.00000  Uiso   1.00
C409   C     0.52816   0.64165   0.27528   0.00000  Uiso   1.00
C410   C     0.35549   0.47187   0.21986   0.00000  Uiso   1.00
H411   H     0.50447   0.57409   0.02818   0.00000  Uiso   1.00
H412   H     0.43714   0.60072   0.07462   0.00000  Uiso   1.00
H413   H     0.44237   0.63063   0.12620   0.00000  Uiso   1.00
H414   H     0.42867   0.57175   0.12688   0.00000  Uiso   1.00
H415   H     0.53830   0.40947   0.36947   0.00000  Uiso   1.00
H416   H     0.59491   0.39737   0.42375   0.00000  Uiso   1.00
H417   H     0.61475   0.45211   0.40698   0.00000  Uiso   1.00
H418   H     0.61420   0.40555   0.36852   0.00000  Uiso   1.00
H419   H     0.41993   0.55814   0.39892   0.00000  Uiso   1.00
H420   H     0.46485   0.62144   0.41859   0.00000  Uiso   1.00
H421   H     0.43939   0.62797   0.36529   0.00000  Uiso   1.00
H422   H     0.55898   0.44950   0.46842   0.00000  Uiso   1.00
H423   H     0.49325   0.60936   0.36822   0.00000  Uiso   1.00
H424   H     0.55415   0.40460   0.10703   0.00000  Uiso   1.00
H425   H     0.48869   0.37306   0.07890   0.00000  Uiso   1.00
H426   H     0.46363   0.39924   0.12632   0.00000  Uiso   1.00
H427   H     0.50290   0.35514   0.13447   0.00000  Uiso   1.00
H428   H     0.36800   0.41451   0.18083   0.00000  Uiso   1.00
H429   H     0.35814   0.48343   0.13089   0.00000  Uiso   1.00
H430   H     0.40581   0.45037   0.12481   0.00000  Uiso   1.00
H431   H     0.40610   0.50203   0.15629   0.00000  Uiso   1.00
H432   H     0.63164   0.59089   0.31209   0.00000  Uiso   1.00
H433   H     0.46061   0.55173   0.47221   0.00000  Uiso   1.00
H434   H     0.63906   0.52900   0.36922   0.00000  Uiso   1.00
H435   H     0.59375   0.50530   0.34268   0.00000  Uiso   1.00
H436   H     0.58969   0.56017   0.36840   0.00000  Uiso   1.00
H437   H     0.63235   0.43737   0.16291   0.00000  Uiso   1.00
H438   H     0.65117   0.37282   0.21193   0.00000  Uiso   1.00
H439   H     0.59713   0.37308   0.19503   0.00000  Uiso   1.00
H440   H     0.61156   0.39296   0.24934   0.00000  Uiso   1.00
H441   H     0.36679   0.56906   0.33297   0.00000  Uiso   1.00
H442   H     0.34915   0.63042   0.28110   0.00000  Uiso   1.00
H443   H     0.38597   0.60609   0.24278   0.00000  Uiso   1.00
H444   H     0.52371   0.42872   0.02957   0.00000  Uiso   1.00
H445   H     0.40393   0.62953   0.29434   0.00000  Uiso   1.00
H446   H     0.55065   0.37379   0.29541   0.00000  Uiso   1.00
H447   H     0.44912   0.62616   0.20509   0.00000  Uiso   1.00
H448   H     0.44875   0.37737   0.20536   0.00000  Uiso   1.00
H449   H     0.55057   0.62260   0.29554   0.00000  Uiso   1.00
H450   H     0.50992   0.61015   0.10202   0.00000  Uiso   1.00
N451   N     0.50000   0.61907   0.25000   0.00000  Uiso   1.00
N452   N     0.37555   0.56645   0.30029   0.00000  Uiso   1.00
N453   N     0.50000   0.38093   0.25000   0.00000  Uiso   1.00
N454   N     0.49129   0.58424   0.11235   0.00000  Uiso   1.00
N455   N     0.55577   0.43610   0.38049   0.00000  Uiso   1.00
N456   N     0.44956   0.56049   0.38643   0.00000  Uiso   1.00
N457   N     0.52543   0.41829   0.11553   0.00000  Uiso   1.00
N458   N     0.37846   0.44649   0.18759   0.00000  Uiso   1.00
N459   N     0.62120   0.55846   0.30790   0.00000  Uiso   1.00
N460   N     0.62399   0.43723   0.19581   0.00000  Uiso   1.00
O461   O     0.43892   0.53821   0.25000   0.00000  Uiso   1.00
O462   O     0.56108   0.46179   0.25001   0.00000  Uiso   1.00
O463   O     0.56108   0.53821   0.25001   0.00000  Uiso   1.00
O464   O     0.43892   0.46179   0.25000   0.00000  Uiso   1.00
O465   O     0.50000   0.53822   0.18453   0.00000  Uiso   1.00
O466   O     0.50000   0.46178   0.31547   0.00000  Uiso   1.00
O467   O     0.50000   0.53822   0.31547   0.00000  Uiso   1.00
O468   O     0.50000   0.46178   0.18453   0.00000  Uiso   1.00
Zn469  Zn    0.50000   0.55104   0.25000   0.00000  Uiso   1.00
Zn470  Zn    0.50000   0.44896   0.25000   0.00000  Uiso   1.00
C471   C     0.75331   0.50077   0.24947   0.00000  Uiso   1.00
C472   C     0.97778   0.52996   0.27833   0.00000  Uiso   1.00
C473   C     0.97928   0.46818   0.22317   0.00000  Uiso   1.00
C474   C     0.68729   0.53336   0.27515   0.00000  Uiso   1.00
C475   C     0.84013   0.54205   0.04607   0.00000  Uiso   1.00
C476   C     0.86981   0.47140   0.45124   0.00000  Uiso   1.00
C477   C     0.81499   0.52979   0.45367   0.00000  Uiso   1.00
C478   C     0.85161   0.46048   0.04681   0.00000  Uiso   1.00
C479   C     0.83445   0.54206   0.09149   0.00000  Uiso   1.00
C480   C     0.86567   0.46908   0.40529   0.00000  Uiso   1.00
C481   C     0.81217   0.53031   0.40790   0.00000  Uiso   1.00
C482   C     0.91335   0.49933   0.25041   0.00000  Uiso   1.00
C483   C     0.84879   0.45970   0.09266   0.00000  Uiso   1.00
C484   C     0.83845   0.50048   0.11544   0.00000  Uiso   1.00
C485   C     0.83698   0.49936   0.38372   0.00000  Uiso   1.00
C486   C     0.84640   0.50132   0.02349   0.00000  Uiso   1.00
C487   C     0.84433   0.50129   0.47534   0.00000  Uiso   1.00
C488   C     0.95761   0.49801   0.25169   0.00000  Uiso   1.00
C489   C     0.70905   0.50268   0.24760   0.00000  Uiso   1.00
C490   C     0.78091   0.59733   0.10979   0.00000  Uiso   1.00
C491   C     0.93036   0.42220   0.39605   0.00000  Uiso   1.00
C492   C     0.79590   0.60716   0.38462   0.00000  Uiso   1.00
C493   C     0.83431   0.50012   0.16365   0.00000  Uiso   1.00
C494   C     0.82670   0.38483   0.11351   0.00000  Uiso   1.00
C495   C     0.72084   0.47203   0.14789   0.00000  Uiso   1.00
C496   C     0.94383   0.53698   0.34924   0.00000  Uiso   1.00
C497   C     0.95426   0.39179   0.21404   0.00000  Uiso   1.00
C498   C     0.71202   0.61024   0.27846   0.00000  Uiso   1.00
C499   C     0.83391   0.49980   0.33600   0.00000  Uiso   1.00
C500   C     0.86151   0.35634   0.27525   0.00000  Uiso   1.00
C501   C     0.80504   0.64366   0.22497   0.00000  Uiso   1.00
C502   C     0.80489   0.35834   0.22513   0.00000  Uiso   1.00
C503   C     0.86149   0.64165   0.27528   0.00000  Uiso   1.00
C504   C     0.68882   0.47187   0.21986   0.00000  Uiso   1.00
H505   H     0.83780   0.57409   0.02818   0.00000  Uiso   1.00
H506   H     0.77047   0.60072   0.07462   0.00000  Uiso   1.00
H507   H     0.77570   0.63063   0.12620   0.00000  Uiso   1.00
H508   H     0.76200   0.57175   0.12688   0.00000  Uiso   1.00
H509   H     0.87164   0.40947   0.36947   0.00000  Uiso   1.00
H510   H     0.92824   0.39737   0.42375   0.00000  Uiso   1.00
H511   H     0.94808   0.45211   0.40698   0.00000  Uiso   1.00
H512   H     0.94753   0.40555   0.36852   0.00000  Uiso   1.00
H513   H     0.75327   0.55814   0.39892   0.00000  Uiso   1.00
H514   H     0.79818   0.62144   0.41859   0.00000  Uiso   1.00
H515   H     0.77273   0.62797   0.36529   0.00000  Uiso   1.00
H516   H     0.89231   0.44950   0.46842   0.00000  Uiso   1.00
H517   H     0.82658   0.60936   0.36822   0.00000  Uiso   1.00
H518   H     0.88748   0.40460   0.10703   0.00000  Uiso   1.00
H519   H     0.82202   0.37306   0.07890   0.00000  Uiso   1.00
H520   H     0.79696   0.39924   0.12632   0.00000  Uiso   1.00
H521   H     0.83624   0.35514   0.13447   0.00000  Uiso   1.00
H522   H     0.70133   0.41451   0.18083   0.00000  Uiso   1.00
H523   H     0.69148   0.48343   0.13089   0.00000  Uiso   1.00
H524   H     0.73915   0.45037   0.12481   0.00000  Uiso   1.00
H525   H     0.73944   0.50203   0.15629   0.00000  Uiso   1.00
H526   H     0.96498   0.59089   0.31209   0.00000  Uiso   1.00
H527   H     0.79395   0.55173   0.47221   0.00000  Uiso   1.00
H528   H     0.97239   0.52900   0.36922   0.00000  Uiso   1.00
H529   H     0.92709   0.50530   0.34268   0.00000  Uiso   1.00
H530   H     0.92302   0.56017   0.36840   0.00000  Uiso   1.00
H531   H     0.96569   0.43737   0.16291   0.00000  Uiso   1.00
H532   H     0.98450   0.37282   0.21193   0.00000  Uiso   1.00
H533   H     0.93047   0.37308   0.19503   0.00000  Uiso   1.00
H534   H     0.94489   0.39296   0.24934   0.00000  Uiso   1.00
H535   H     0.70012   0.56906   0.33297   0.00000  Uiso   1.00
H536   H     0.68249   0.63042   0.28110   0.00000  Uiso   1.00
H537   H     0.71930   0.60609   0.24278   0.00000  Uiso   1.00
H538   H     0.85704   0.42872   0.02957   0.00000  Uiso   1.00
H539   H     0.73727   0.62953   0.29434   0.00000  Uiso   1.00
H540   H     0.88398   0.37379   0.29541   0.00000  Uiso   1.00
H541   H     0.78246   0.62616   0.20509   0.00000  Uiso   1.00
H542   H     0.78208   0.37737   0.20536   0.00000  Uiso   1.00
H543   H     0.88390   0.62260   0.29554   0.00000  Uiso   1.00
H544   H     0.84325   0.61015   0.10202   0.00000  Uiso   1.00
N545   N     0.83333   0.61907   0.25000   0.00000  Uiso   1.00
N546   N     0.70888   0.56645   0.30029   0.00000  Uiso   1.00
N547   N     0.83333   0.38093   0.25000   0.00000  Uiso   1.00
N548   N     0.82462   0.58424   0.11235   0.00000  Uiso   1.00
N549   N     0.88910   0.43610   0.38049   0.00000  Uiso   1.00
N550   N     0.78289   0.56049   0.38643   0.00000  Uiso   1.00
N551   N     0.85876   0.41829   0.11553   0.00000  Uiso   1.00
N552   N     0.71179   0.44649   0.18759   0.00000  Uiso   1.00
N553   N     0.95453   0.55846   0.30790   0.00000  Uiso   1.00
N554   N     0.95732   0.43723   0.19581   0.00000  Uiso   1.00
O555   O     0.77226   0.53821   0.25000   0.00000  Uiso   1.00
O556   O     0.89441   0.46179   0.25001   0.00000  Uiso   1.00
O557   O     0.89441   0.53821   0.25001   0.00000  Uiso   1.00
O558   O     0.77226   0.46179   0.25000   0.00000  Uiso   1.00
O559   O     0.83333   0.53822   0.18453   0.00000  Uiso   1.00
O560   O     0.83334   0.46178   0.31547   0.00000  Uiso   1.00
O561   O     0.83334   0.53822   0.31547   0.00000  Uiso   1.00
O562   O     0.83333   0.46178   0.18453   0.00000  Uiso   1.00
Zn563  Zn    0.83333   0.55104   0.25000   0.00000  Uiso   1.00
Zn564  Zn    0.83333   0.44896   0.25000   0.00000  Uiso   1.00
C565   C     0.08664   0.83411   0.24947   0.00000  Uiso   1.00
C566   C     0.31112   0.86329   0.27833   0.00000  Uiso   1.00
C567   C     0.31261   0.80151   0.22317   0.00000  Uiso   1.00
C568   C     0.02062   0.86669   0.27515   0.00000  Uiso   1.00
C569   C     0.17346   0.87538   0.04607   0.00000  Uiso   1.00
C570   C     0.20314   0.80474   0.45124   0.00000  Uiso   1.00
C571   C     0.14833   0.86313   0.45367   0.00000  Uiso   1.00
C572   C     0.18495   0.79381   0.04681   0.00000  Uiso   1.00
C573   C     0.16779   0.87539   0.09149   0.00000  Uiso   1.00
C574   C     0.19901   0.80241   0.40529   0.00000  Uiso   1.00
C575   C     0.14550   0.86364   0.40790   0.00000  Uiso   1.00
C576   C     0.24669   0.83266   0.25041   0.00000  Uiso   1.00
C577   C     0.18212   0.79303   0.09266   0.00000  Uiso   1.00
C578   C     0.17179   0.83382   0.11544   0.00000  Uiso   1.00
C579   C     0.17031   0.83269   0.38372   0.00000  Uiso   1.00
C580   C     0.17974   0.83465   0.02349   0.00000  Uiso   1.00
C581   C     0.17767   0.83462   0.47534   0.00000  Uiso   1.00
C582   C     0.29095   0.83134   0.25169   0.00000  Uiso   1.00
C583   C     0.04238   0.83601   0.24760   0.00000  Uiso   1.00
C584   C     0.11424   0.93066   0.10979   0.00000  Uiso   1.00
C585   C     0.26370   0.75554   0.39605   0.00000  Uiso   1.00
C586   C     0.12924   0.94050   0.38462   0.00000  Uiso   1.00
C587   C     0.16765   0.83345   0.16365   0.00000  Uiso   1.00
C588   C     0.16004   0.71816   0.11351   0.00000  Uiso   1.00
C589   C     0.05418   0.80536   0.14789   0.00000  Uiso   1.00
C590   C     0.27716   0.87032   0.34924   0.00000  Uiso   1.00
C591   C     0.28759   0.72512   0.21404   0.00000  Uiso   1.00
C592   C     0.04535   0.94358   0.27846   0.00000  Uiso   1.00
C593   C     0.16724   0.83314   0.33600   0.00000  Uiso   1.00
C594   C     0.19484   0.68967   0.27525   0.00000  Uiso   1.00
C595   C     0.13838   0.97699   0.22497   0.00000  Uiso   1.00
C596   C     0.13822   0.69167   0.22513   0.00000  Uiso   1.00
C597   C     0.19483   0.97498   0.27528   0.00000  Uiso   1.00
C598   C     0.02216   0.80521   0.21986   0.00000  Uiso   1.00
H599   H     0.17114   0.90742   0.02818   0.00000  Uiso   1.00
H600   H     0.10381   0.93405   0.07462   0.00000  Uiso   1.00
H601   H     0.10904   0.96396   0.12620   0.00000  Uiso   1.00
H602   H     0.09533   0.90508   0.12688   0.00000  Uiso   1.00
H603   H     0.20497   0.74280   0.36947   0.00000  Uiso   1.00
H604   H     0.26158   0.73071   0.42375   0.00000  Uiso   1.00
H605   H     0.28141   0.78544   0.40698   0.00000  Uiso   1.00
H606   H     0.28086   0.73888   0.36852   0.00000  Uiso   1.00
H607   H     0.08660   0.89147   0.39892   0.00000  Uiso   1.00
H608   H     0.13151   0.95477   0.41859   0.00000  Uiso   1.00
H609   H     0.10606   0.96131   0.36529   0.00000  Uiso   1.00
H610   H     0.22565   0.78283   0.46842   0.00000  Uiso   1.00
H611   H     0.15991   0.94269   0.36822   0.00000  Uiso   1.00
H612   H     0.22082   0.73794   0.10703   0.00000  Uiso   1.00
H613   H     0.15536   0.70639   0.07890   0.00000  Uiso   1.00
H614   H     0.13030   0.73257   0.12632   0.00000  Uiso   1.00
H615   H     0.16957   0.68847   0.13447   0.00000  Uiso   1.00
H616   H     0.03467   0.74785   0.18083   0.00000  Uiso   1.00
H617   H     0.02481   0.81676   0.13089   0.00000  Uiso   1.00
H618   H     0.07248   0.78371   0.12481   0.00000  Uiso   1.00
H619   H     0.07277   0.83536   0.15629   0.00000  Uiso   1.00
H620   H     0.29831   0.92422   0.31209   0.00000  Uiso   1.00
H621   H     0.12728   0.88507   0.47221   0.00000  Uiso   1.00
H622   H     0.30573   0.86233   0.36922   0.00000  Uiso   1.00
H623   H     0.26042   0.83864   0.34268   0.00000  Uiso   1.00
H624   H     0.25636   0.89351   0.36840   0.00000  Uiso   1.00
H625   H     0.29902   0.77070   0.16291   0.00000  Uiso   1.00
H626   H     0.31783   0.70616   0.21193   0.00000  Uiso   1.00
H627   H     0.26380   0.70642   0.19503   0.00000  Uiso   1.00
H628   H     0.27822   0.72629   0.24934   0.00000  Uiso   1.00
H629   H     0.03345   0.90240   0.33297   0.00000  Uiso   1.00
H630   H     0.01582   0.96376   0.28110   0.00000  Uiso   1.00
H631   H     0.05263   0.93942   0.24278   0.00000  Uiso   1.00
H632   H     0.19038   0.76205   0.02957   0.00000  Uiso   1.00
H633   H     0.07060   0.96286   0.29434   0.00000  Uiso   1.00
H634   H     0.21732   0.70712   0.29541   0.00000  Uiso   1.00
H635   H     0.11579   0.95949   0.20509   0.00000  Uiso   1.00
H636   H     0.11541   0.71070   0.20536   0.00000  Uiso   1.00
H637   H     0.21724   0.95594   0.29554   0.00000  Uiso   1.00
H638   H     0.17659   0.94348   0.10202   0.00000  Uiso   1.00
N639   N     0.16667   0.95240   0.25000   0.00000  Uiso   1.00
N640   N     0.04222   0.89979   0.30029   0.00000  Uiso   1.00
N641   N     0.16667   0.71427   0.25000   0.00000  Uiso   1.00
N642   N     0.15795   0.91757   0.11235   0.00000  Uiso   1.00
N643   N     0.22243   0.76944   0.38049   0.00000  Uiso   1.00
N644   N     0.11623   0.89383   0.38643   0.00000  Uiso   1.00
N645   N     0.19210   0.75162   0.11553   0.00000  Uiso   1.00
N646   N     0.04513   0.77983   0.18759   0.00000  Uiso   1.00
N647   N     0.28787   0.89179   0.30790   0.00000  Uiso   1.00
N648   N     0.29065   0.77056   0.19581   0.00000  Uiso   1.00
O649   O     0.10559   0.87154   0.25000   0.00000  Uiso   1.00
O650   O     0.22774   0.79513   0.25001   0.00000  Uiso   1.00
O651   O     0.22774   0.87154   0.25001   0.00000  Uiso   1.00
O652   O     0.10559   0.79513   0.25000   0.00000  Uiso   1.00
O653   O     0.16666   0.87155   0.18453   0.00000  Uiso   1.00
O654   O     0.16667   0.79511   0.31547   0.00000  Uiso   1.00
O655   O     0.16667   0.87155   0.31547   0.00000  Uiso   1.00
O656   O     0.16666   0.79511   0.18453   0.00000  Uiso   1.00
Zn657  Zn    0.16667   0.88437   0.25000   0.00000  Uiso   1.00
Zn658  Zn    0.16667   0.78229   0.25000   0.00000  Uiso   1.00
C659   C     0.41998   0.83411   0.24947   0.00000  Uiso   1.00
C660   C     0.64445   0.86329   0.27833   0.00000  Uiso   1.00
C661   C     0.64595   0.80151   0.22317   0.00000  Uiso   1.00
C662   C     0.35396   0.86669   0.27515   0.00000  Uiso   1.00
C663   C     0.50680   0.87538   0.04607   0.00000  Uiso   1.00
C664   C     0.53648   0.80474   0.45124   0.00000  Uiso   1.00
C665   C     0.48166   0.86313   0.45367   0.00000  Uiso   1.00
C666   C     0.51828   0.79381   0.04681   0.00000  Uiso   1.00
C667   C     0.50112   0.87539   0.09149   0.00000  Uiso   1.00
C668   C     0.53234   0.80241   0.40529   0.00000  Uiso   1.00
C669   C     0.47883   0.86364   0.40790   0.00000  Uiso   1.00
C670   C     0.58002   0.83266   0.25041   0.00000  Uiso   1.00
C671   C     0.51545   0.79303   0.09266   0.00000  Uiso   1.00
C672   C     0.50512   0.83382   0.11544   0.00000  Uiso   1.00
C673   C     0.50364   0.83269   0.38372   0.00000  Uiso   1.00
C674   C     0.51307   0.83465   0.02349   0.00000  Uiso   1.00
C675   C     0.51100   0.83462   0.47534   0.00000  Uiso   1.00
C676   C     0.62428   0.83134   0.25169   0.00000  Uiso   1.00
C677   C     0.37572   0.83601   0.24760   0.00000  Uiso   1.00
C678   C     0.44757   0.93066   0.10979   0.00000  Uiso   1.00
C679   C     0.59703   0.75554   0.39605   0.00000  Uiso   1.00
C680   C     0.46257   0.94050   0.38462   0.00000  Uiso   1.00
C681   C     0.50098   0.83345   0.16365   0.00000  Uiso   1.00
C682   C     0.49337   0.71816   0.11351   0.00000  Uiso   1.00
C683   C     0.38751   0.80536   0.14789   0.00000  Uiso   1.00
C684   C     0.61049   0.87032   0.34924   0.00000  Uiso   1.00
C685   C     0.62093   0.72512   0.21404   0.00000  Uiso   1.00
C686   C     0.37869   0.94358   0.27846   0.00000  Uiso   1.00
C687   C     0.50058   0.83314   0.33600   0.00000  Uiso   1.00
C688   C     0.52817   0.68967   0.27525   0.00000  Uiso   1.00
C689   C     0.47171   0.97699   0.22497   0.00000  Uiso   1.00
C690   C     0.47155   0.69167   0.22513   0.00000  Uiso   1.00
C691   C     0.52816   0.97498   0.27528   0.00000  Uiso   1.00
C692   C     0.35549   0.80521   0.21986   0.00000  Uiso   1.00
H693   H     0.50447   0.90742   0.02818   0.00000  Uiso   1.00
H694   H     0.43714   0.93405   0.07462   0.00000  Uiso   1.00
H695   H     0.44237   0.96396   0.12620   0.00000  Uiso   1.00
H696   H     0.42867   0.90508   0.12688   0.00000  Uiso   1.00
H697   H     0.53830   0.74280   0.36947   0.00000  Uiso   1.00
H698   H     0.59491   0.73071   0.42375   0.00000  Uiso   1.00
H699   H     0.61475   0.78544   0.40698   0.00000  Uiso   1.00
H700   H     0.61420   0.73888   0.36852   0.00000  Uiso   1.00
H701   H     0.41993   0.89147   0.39892   0.00000  Uiso   1.00
H702   H     0.46485   0.95477   0.41859   0.00000  Uiso   1.00
H703   H     0.43939   0.96131   0.36529   0.00000  Uiso   1.00
H704   H     0.55898   0.78283   0.46842   0.00000  Uiso   1.00
H705   H     0.49325   0.94269   0.36822   0.00000  Uiso   1.00
H706   H     0.55415   0.73794   0.10703   0.00000  Uiso   1.00
H707   H     0.48869   0.70639   0.07890   0.00000  Uiso   1.00
H708   H     0.46363   0.73257   0.12632   0.00000  Uiso   1.00
H709   H     0.50290   0.68847   0.13447   0.00000  Uiso   1.00
H710   H     0.36800   0.74785   0.18083   0.00000  Uiso   1.00
H711   H     0.35814   0.81676   0.13089   0.00000  Uiso   1.00
H712   H     0.40581   0.78371   0.12481   0.00000  Uiso   1.00
H713   H     0.40610   0.83536   0.15629   0.00000  Uiso   1.00
H714   H     0.63164   0.92422   0.31209   0.00000  Uiso   1.00
H715   H     0.46061   0.88507   0.47221   0.00000  Uiso   1.00
H716   H     0.63906   0.86233   0.36922   0.00000  Uiso   1.00
H717   H     0.59375   0.83864   0.34268   0.00000  Uiso   1.00
H718   H     0.58969   0.89351   0.36840   0.00000  Uiso   1.00
H719   H     0.63235   0.77070   0.16291   0.00000  Uiso   1.00
H720   H     0.65117   0.70616   0.21193   0.00000  Uiso   1.00
H721   H     0.59713   0.70642   0.19503   0.00000  Uiso   1.00
H722   H     0.61156   0.72629   0.24934   0.00000  Uiso   1.00
H723   H     0.36679   0.90240   0.33297   0.00000  Uiso   1.00
H724   H     0.34915   0.96376   0.28110   0.00000  Uiso   1.00
H725   H     0.38597   0.93942   0.24278   0.00000  Uiso   1.00
H726   H     0.52371   0.76205   0.02957   0.00000  Uiso   1.00
H727   H     0.40393   0.96286   0.29434   0.00000  Uiso   1.00
H728   H     0.55065   0.70712   0.29541   0.00000  Uiso   1.00
H729   H     0.44912   0.95949   0.20509   0.00000  Uiso   1.00
H730   H     0.44875   0.71070   0.20536   0.00000  Uiso   1.00
H731   H     0.55057   0.95594   0.29554   0.00000  Uiso   1.00
H732   H     0.50992   0.94348   0.10202   0.00000  Uiso   1.00
N733   N     0.50000   0.95240   0.25000   0.00000  Uiso   1.00
N734   N     0.37555   0.89979   0.30029   0.00000  Uiso   1.00
N735   N     0.50000   0.71427   0.25000   0.00000  Uiso   1.00
N736   N     0.49129   0.91757   0.11235   0.00000  Uiso   1.00
N737   N     0.55577   0.76944   0.38049   0.00000  Uiso   1.00
N738   N     0.44956   0.89383   0.38643   0.00000  Uiso   1.00
N739   N     0.52543   0.75162   0.11553   0.00000  Uiso   1.00
N740   N     0.37846   0.77983   0.18759   0.00000  Uiso   1.00
N741   N     0.62120   0.89179   0.30790   0.00000  Uiso   1.00
N742   N     0.62399   0.77056   0.19581   0.00000  Uiso   1.00
O743   O     0.43892   0.87154   0.25000   0.00000  Uiso   1.00
O744   O     0.56108   0.79513   0.25001   0.00000  Uiso   1.00
O745   O     0.56108   0.87154   0.25001   0.00000  Uiso   1.00
O746   O     0.43892   0.79513   0.25000   0.00000  Uiso   1.00
O747   O     0.50000   0.87155   0.18453   0.00000  Uiso   1.00
O748   O     0.50000   0.79511   0.31547   0.00000  Uiso   1.00
O749   O     0.50000   0.87155   0.31547   0.00000  Uiso   1.00
O750   O     0.50000   0.79511   0.18453   0.00000  Uiso   1.00
Zn751  Zn    0.50000   0.88437   0.25000   0.00000  Uiso   1.00
Zn752  Zn    0.50000   0.78229   0.25000   0.00000  Uiso   1.00
C753   C     0.75331   0.83411   0.24947   0.00000  Uiso   1.00
C754   C     0.97778   0.86329   0.27833   0.00000  Uiso   1.00
C755   C     0.97928   0.80151   0.22317   0.00000  Uiso   1.00
C756   C     0.68729   0.86669   0.27515   0.00000  Uiso   1.00
C757   C     0.84013   0.87538   0.04607   0.00000  Uiso   1.00
C758   C     0.86981   0.80474   0.45124   0.00000  Uiso   1.00
C759   C     0.81499   0.86313   0.45367   0.00000  Uiso   1.00
C760   C     0.85161   0.79381   0.04681   0.00000  Uiso   1.00
C761   C     0.83445   0.87539   0.09149   0.00000  Uiso   1.00
C762   C     0.86567   0.80241   0.40529   0.00000  Uiso   1.00
C763   C     0.81217   0.86364   0.40790   0.00000  Uiso   1.00
C764   C     0.91335   0.83266   0.25041   0.00000  Uiso   1.00
C765   C     0.84879   0.79303   0.09266   0.00000  Uiso   1.00
C766   C     0.83845   0.83382   0.11544   0.00000  Uiso   1.00
C767   C     0.83698   0.83269   0.38372   0.00000  Uiso   1.00
C768   C     0.84640   0.83465   0.02349   0.00000  Uiso   1.00
C769   C     0.84433   0.83462   0.47534   0.00000  Uiso   1.00
C770   C     0.95761   0.83134   0.25169   0.00000  Uiso   1.00
C771   C     0.70905   0.83601   0.24760   0.00000  Uiso   1.00
C772   C     0.78091   0.93066   0.10979   0.00000  Uiso   1.00
C773   C     0.93036   0.75554   0.39605   0.00000  Uiso   1.00
C774   C     0.79590   0.94050   0.38462   0.00000  Uiso   1.00
C775   C     0.83431   0.83345   0.16365   0.00000  Uiso   1.00
C776   C     0.82670   0.71816   0.11351   0.00000  Uiso   1.00
C777   C     0.72084   0.80536   0.14789   0.00000  Uiso   1.00
C778   C     0.94383   0.87032   0.34924   0.00000  Uiso   1.00
C779   C     0.95426   0.72512   0.21404   0.00000  Uiso   1.00
C780   C     0.71202   0.94358   0.27846   0.00000  Uiso   1.00
C781   C     0.83391   0.83314   0.33600   0.00000  Uiso   1.00
C782   C     0.86151   0.68967   0.27525   0.00000  Uiso   1.00
C783   C     0.80504   0.97699   0.22497   0.00000  Uiso   1.00
C784   C     0.80489   0.69167   0.22513   0.00000  Uiso   1.00
C785   C     0.86149   0.97498   0.27528   0.00000  Uiso   1.00
C786   C     0.68882   0.80521   0.21986   0.00000  Uiso   1.00
H787   H     0.83780   0.90742   0.02818   0.00000  Uiso   1.00
H788   H     0.77047   0.93405   0.07462   0.00000  Uiso   1.00
H789   H     0.77570   0.96396   0.12620   0.00000  Uiso   1.00
H790   H     0.76200   0.90508   0.12688   0.00000  Uiso   1.00
H791   H     0.87164   0.74280   0.36947   0.00000  Uiso   1.00
H792   H     0.92824   0.73071   0.42375   0.00000  Uiso   1.00
H793   H     0.94808   0.78544   0.40698   0.00000  Uiso   1.00
H794   H     0.94753   0.73888   0.36852   0.00000  Uiso   1.00
H795   H     0.75327   0.89147   0.39892   0.00000  Uiso   1.00
H796   H     0.79818   0.95477   0.41859   0.00000  Uiso   1.00
H797   H     0.77273   0.96131   0.36529   0.00000  Uiso   1.00
H798   H     0.89231   0.78283   0.46842   0.00000  Uiso   1.00
H799   H     0.82658   0.94269   0.36822   0.00000  Uiso   1.00
H800   H     0.88748   0.73794   0.10703   0.00000  Uiso   1.00
H801   H     0.82202   0.70639   0.07890   0.00000  Uiso   1.00
H802   H     0.79696   0.73257   0.12632   0.00000  Uiso   1.00
H803   H     0.83624   0.68847   0.13447   0.00000  Uiso   1.00
H804   H     0.70133   0.74785   0.18083   0.00000  Uiso   1.00
H805   H     0.69148   0.81676   0.13089   0.00000  Uiso   1.00
H806   H     0.73915   0.78371   0.12481   0.00000  Uiso   1.00
H807   H     0.73944   0.83536   0.15629   0.00000  Uiso   1.00
H808   H     0.96498   0.92422   0.31209   0.00000  Uiso   1.00
H809   H     0.79395   0.88507   0.47221   0.00000  Uiso   1.00
H810   H     0.97239   0.86233   0.36922   0.00000  Uiso   1.00
H811   H     0.92709   0.83864   0.34268   0.00000  Uiso   1.00
H812   H     0.92302   0.89351   0.36840   0.00000  Uiso   1.00
H813   H     0.96569   0.77070   0.16291   0.00000  Uiso   1.00
H814   H     0.98450   0.70616   0.21193   0.00000  Uiso   1.00
H815   H     0.93047   0.70642   0.19503   0.00000  Uiso   1.00
H816   H     0.94489   0.72629   0.24934   0.00000  Uiso   1.00
H817   H     0.70012   0.90240   0.33297   0.00000  Uiso   1.00
H818   H     0.68249   0.96376   0.28110   0.00000  Uiso   1.00
H819   H     0.71930   0.93942   0.24278   0.00000  Uiso   1.00
H820   H     0.85704   0.76205   0.02957   0.00000  Uiso   1.00
H821   H     0.73727   0.96286   0.29434   0.00000  Uiso   1.00
H822   H     0.88398   0.70712   0.29541   0.00000  Uiso   1.00
H823   H     0.78246   0.95949   0.20509   0.00000  Uiso   1.00
H824   H     0.78208   0.71070   0.20536   0.00000  Uiso   1.00
H825   H     0.88390   0.95594   0.29554   0.00000  Uiso   1.00
H826   H     0.84325   0.94348   0.10202   0.00000  Uiso   1.00
N827   N     0.83333   0.95240   0.25000   0.00000  Uiso   1.00
N828   N     0.70888   0.89979   0.30029   0.00000  Uiso   1.00
N829   N     0.83333   0.71427   0.25000   0.00000  Uiso   1.00
N830   N     0.82462   0.91757   0.11235   0.00000  Uiso   1.00
N831   N     0.88910   0.76944   0.38049   0.00000  Uiso   1.00
N832   N     0.78289   0.89383   0.38643   0.00000  Uiso   1.00
N833   N     0.85876   0.75162   0.11553   0.00000  Uiso   1.00
N834   N     0.71179   0.77983   0.18759   0.00000  Uiso   1.00
N835   N     0.95453   0.89179   0.30790   0.00000  Uiso   1.00
N836   N     0.95732   0.77056   0.19581   0.00000  Uiso   1.00
O837   O     0.77226   0.87154   0.25000   0.00000  Uiso   1.00
O838   O     0.89441   0.79513   0.25001   0.00000  Uiso   1.00
O839   O     0.89441   0.87154   0.25001   0.00000  Uiso   1.00
O840   O     0.77226   0.79513   0.25000   0.00000  Uiso   1.00
O841   O     0.83333   0.87155   0.18453   0.00000  Uiso   1.00
O842   O     0.83334   0.79511   0.31547   0.00000  Uiso   1.00
O843   O     0.83334   0.87155   0.31547   0.00000  Uiso   1.00
O844   O     0.83333   0.79511   0.18453   0.00000  Uiso   1.00
Zn845  Zn    0.83333   0.88437   0.25000   0.00000  Uiso   1.00
Zn846  Zn    0.83333   0.78229   0.25000   0.00000  Uiso   1.00
C847   C     0.08664   0.16744   0.74947   0.00000  Uiso   1.00
C848   C     0.31112   0.19663   0.77833   0.00000  Uiso   1.00
C849   C     0.31261   0.13485   0.72317   0.00000  Uiso   1.00
C850   C     0.02062   0.20003   0.77515   0.00000  Uiso   1.00
C851   C     0.17346   0.20872   0.54607   0.00000  Uiso   1.00
C852   C     0.20314   0.13807   0.95124   0.00000  Uiso   1.00
C853   C     0.14833   0.19646   0.95367   0.00000  Uiso   1.00
C854   C     0.18495   0.12715   0.54681   0.00000  Uiso   1.00
C855   C     0.16779   0.20872   0.59149   0.00000  Uiso   1.00
C856   C     0.19901   0.13574   0.90529   0.00000  Uiso   1.00
C857   C     0.14550   0.19697   0.90790   0.00000  Uiso   1.00
C858   C     0.24669   0.16600   0.75041   0.00000  Uiso   1.00
C859   C     0.18212   0.12636   0.59266   0.00000  Uiso   1.00
C860   C     0.17179   0.16715   0.61544   0.00000  Uiso   1.00
C861   C     0.17031   0.16603   0.88372   0.00000  Uiso   1.00
C862   C     0.17974   0.16799   0.52349   0.00000  Uiso   1.00
C863   C     0.17767   0.16795   0.97534   0.00000  Uiso   1.00
C864   C     0.29095   0.16468   0.75169   0.00000  Uiso   1.00
C865   C     0.04238   0.16935   0.74760   0.00000  Uiso   1.00
C866   C     0.11424   0.26399   0.60979   0.00000  Uiso   1.00
C867   C     0.26370   0.08887   0.89605   0.00000  Uiso   1.00
C868   C     0.12924   0.27383   0.88462   0.00000  Uiso   1.00
C869   C     0.16765   0.16678   0.66365   0.00000  Uiso   1.00
C870   C     0.16004   0.05149   0.61351   0.00000  Uiso   1.00
C871   C     0.05418   0.13869   0.64789   0.00000  Uiso   1.00
C872   C     0.27716   0.20365   0.84924   0.00000  Uiso   1.00
C873   C     0.28759   0.05845   0.71404   0.00000  Uiso   1.00
C874   C     0.04535   0.27691   0.77846   0.00000  Uiso   1.00
C875   C     0.16724   0.16647   0.83600   0.00000  Uiso   1.00
C876   C     0.19484   0.02301   0.77525   0.00000  Uiso   1.00
C877   C     0.13838   0.31032   0.72497   0.00000  Uiso   1.00
C878   C     0.13822   0.02501   0.72513   0.00000  Uiso   1.00
C879   C     0.19483   0.30831   0.77528   0.00000  Uiso   1.00
C880   C     0.02216   0.13854   0.71986   0.00000  Uiso   1.00
H881   H     0.17114   0.24075   0.52818   0.00000  Uiso   1.00
H882   H     0.10381   0.26739   0.57462   0.00000  Uiso   1.00
H883   H     0.10904   0.29729   0.62620   0.00000  Uiso   1.00
H884   H     0.09533   0.23841   0.62688   0.00000  Uiso   1.00
H885   H     0.20497   0.07613   0.86947   0.00000  Uiso   1.00
H886   H     0.26158   0.06404   0.92375   0.00000  Uiso   1.00
H887   H     0.28141   0.11878   0.90698   0.00000  Uiso   1.00
H888   H     0.28086   0.07221   0.86852   0.00000  Uiso   1.00
H889   H     0.08660   0.22480   0.89892   0.00000  Uiso   1.00
H890   H     0.13151   0.28810   0.91859   0.00000  Uiso   1.00
H891   H     0.10606   0.29464   0.86529   0.00000  Uiso   1.00
H892   H     0.22565   0.11616   0.96842   0.00000  Uiso   1.00
H893   H     0.15991   0.27602   0.86822   0.00000  Uiso   1.00
H894   H     0.22082   0.07127   0.60703   0.00000  Uiso   1.00
H895   H     0.15536   0.03972   0.57890   0.00000  Uiso   1.00
H896   H     0.13030   0.06590   0.62632   0.00000  Uiso   1.00
H897   H     0.16957   0.02181   0.63447   0.00000  Uiso   1.00
H898   H     0.03467   0.08118   0.68083   0.00000  Uiso   1.00
H899   H     0.02481   0.15009   0.63089   0.00000  Uiso   1.00
H900   H     0.07248   0.11704   0.62481   0.00000  Uiso   1.00
H901   H     0.07277   0.16870   0.65629   0.00000  Uiso   1.00
H902   H     0.29831   0.25755   0.81209   0.00000  Uiso   1.00
H903   H     0.12728   0.21840   0.97221   0.00000  Uiso   1.00
H904   H     0.30573   0.19567   0.86922   0.00000  Uiso   1.00
H905   H     0.26042   0.17197   0.84268   0.00000  Uiso   1.00
H906   H     0.25636   0.22684   0.86840   0.00000  Uiso   1.00
H907   H     0.29902   0.10404   0.66291   0.00000  Uiso   1.00
H908   H     0.31783   0.03949   0.71193   0.00000  Uiso   1.00
H909   H     0.26380   0.03975   0.69503   0.00000  Uiso   1.00
H910   H     0.27822   0.05963   0.74934   0.00000  Uiso   1.00
H911   H     0.03345   0.23573   0.83297   0.00000  Uiso   1.00
H912   H     0.01582   0.29709   0.78110   0.00000  Uiso   1.00
H913   H     0.05263   0.27275   0.74278   0.00000  Uiso   1.00
H914   H     0.19038   0.09538   0.52957   0.00000  Uiso   1.00
H915   H     0.07060   0.29620   0.79434   0.00000  Uiso   1.00
H916   H     0.21732   0.04045   0.79541   0.00000  Uiso   1.00
H917   H     0.11579   0.29282   0.70509   0.00000  Uiso   1.00
H918   H     0.11541   0.04404   0.70536   0.00000  Uiso   1.00
H919   H     0.21724   0.28927   0.79554   0.00000  Uiso   1.00
H920   H     0.17659   0.27681   0.60202   0.00000  Uiso   1.00
N921   N     0.16667   0.28573   0.75000   0.00000  Uiso   1.00
N922   N     0.04222   0.23312   0.80029   0.00000  Uiso   1.00
N923   N     0.16667   0.04760   0.75000   0.00000  Uiso   1.00
N924   N     0.15795   0.25090   0.61235   0.00000  Uiso   1.00
N925   N     0.22243   0.10277   0.88049   0.00000  Uiso   1.00
N926   N     0.11623   0.22716   0.88643   0.00000  Uiso   1.00
N927   N     0.19210   0.08495   0.61553   0.00000  Uiso   1.00
N928   N     0.04513   0.11316   0.68759   0.00000  Uiso   1.00
N929   N     0.28787   0.22513   0.80790   0.00000  Uiso   1.00
N930   N     0.29065   0.10390   0.69581   0.00000  Uiso   1.00
O931   O     0.10559   0.20487   0.75000   0.00000  Uiso   1.00
O932   O     0.22774   0.12846   0.75001   0.00000  Uiso   1.00
O933   O     0.22774   0.20487   0.75001   0.00000  Uiso   1.00
O934   O     0.10559   0.12846   0.75000   0.00000  Uiso   1.00
O935   O     0.16666   0.20489   0.68453   0.00000  Uiso   1.00
O936   O     0.16667   0.12845   0.81547   0.00000  Uiso   1.00
O937   O     0.16667   0.20489   0.81547   0.00000  Uiso   1.00
O938   O     0.16666   0.12845   0.68453   0.00000  Uiso   1.00
Zn939  Zn    0.16667   0.21771   0.75000   0.00000  Uiso   1.00
Zn940  Zn    0.16667   0.11563   0.75000   0.00000  Uiso   1.00
C941   C     0.41998   0.16744   0.74947   0.00000  Uiso   1.00
C942   C     0.64445   0.19663   0.77833   0.00000  Uiso   1.00
C943   C     0.64595   0.13485   0.72317   0.00000  Uiso   1.00
C944   C     0.35396   0.20003   0.77515   0.00000  Uiso   1.00
C945   C     0.50680   0.20872   0.54607   0.00000  Uiso   1.00
C946   C     0.53648   0.13807   0.95124   0.00000  Uiso   1.00
C947   C     0.48166   0.19646   0.95367   0.00000  Uiso   1.00
C948   C     0.51828   0.12715   0.54681   0.00000  Uiso   1.00
C949   C     0.50112   0.20872   0.59149   0.00000  Uiso   1.00
C950   C     0.53234   0.13574   0.90529   0.00000  Uiso   1.00
C951   C     0.47883   0.19697   0.90790   0.00000  Uiso   1.00
C952   C     0.58002   0.16600   0.75041   0.00000  Uiso   1.00
C953   C     0.51545   0.12636   0.59266   0.00000  Uiso   1.00
C954   C     0.50512   0.16715   0.61544   0.00000  Uiso   1.00
C955   C     0.50364   0.16603   0.88372   0.00000  Uiso   1.00
C956   C     0.51307   0.16799   0.52349   0.00000  Uiso   1.00
C957   C     0.51100   0.16795   0.97534   0.00000  Uiso   1.00
C958   C     0.62428   0.16468   0.75169   0.00000  Uiso   1.00
C959   C     0.37572   0.16935   0.74760   0.00000  Uiso   1.00
C960   C     0.44757   0.26399   0.60979   0.00000  Uiso   1.00
C961   C     0.59703   0.08887   0.89605   0.00000  Uiso   1.00
C962   C     0.46257   0.27383   0.88462   0.00000  Uiso   1.00
C963   C     0.50098   0.16678   0.66365   0.00000  Uiso   1.00
C964   C     0.49337   0.05149   0.61351   0.00000  Uiso   1.00
C965   C     0.38751   0.13869   0.64789   0.00000  Uiso   1.00
C966   C     0.61049   0.20365   0.84924   0.00000  Uiso   1.00
C967   C     0.62093   0.05845   0.71404   0.00000  Uiso   1.00
C968   C     0.37869   0.27691   0.77846   0.00000  Uiso   1.00
C969   C     0.50058   0.16647   0.83600   0.00000  Uiso   1.00
C970   C     0.52817   0.02301   0.77525   0.00000  Uiso   1.00
C971   C     0.47171   0.31032   0.72497   0.00000  Uiso   1.00
C972   C     0.47155   0.02501   0.72513   0.00000  Uiso   1.00
C973   C     0.52816   0.30831   0.77528   0.00000  Uiso   1.00
C974   C     0.35549   0.13854   0.71986   0.00000  Uiso   1.00
H975   H     0.50447   0.24075   0.52818   0.00000  Uiso   1.00
H976   H     0.43714   0.26739   0.57462   0.00000  Uiso   1.00
H977   H     0.44237   0.29729   0.62620   0.00000  Uiso   1.00
H978   H     0.42867   0.23841   0.62688   0.00000  Uiso   1.00
H979   H     0.53830   0.07613   0.86947   0.00000  Uiso   1.00
H980   H     0.59491   0.06404   0.92375   0.00000  Uiso   1.00
H981   H     0.61475   0.11878   0.90698   0.00000  Uiso   1.00
H982   H     0.61420   0.07221   0.86852   0.00000  Uiso   1.00
H983   H     0.41993   0.22480   0.89892   0.00000  Uiso   1.00
H984   H     0.46485   0.28810   0.91859   0.00000  Uiso   1.00
H985   H     0.43939   0.29464   0.86529   0.00000  Uiso   1.00
H986   H     0.55898   0.11616   0.96842   0.00000  Uiso   1.00
H987   H     0.49325   0.27602   0.86822   0.00000  Uiso   1.00
H988   H     0.55415   0.07127   0.60703   0.00000  Uiso   1.00
H989   H     0.48869   0.03972   0.57890   0.00000  Uiso   1.00
H990   H     0.46363   0.06590   0.62632   0.00000  Uiso   1.00
H991   H     0.50290   0.02181   0.63447   0.00000  Uiso   1.00
H992   H     0.36800   0.08118   0.68083   0.00000  Uiso   1.00
H993   H     0.35814   0.15009   0.63089   0.00000  Uiso   1.00
H994   H     0.40581   0.11704   0.62481   0.00000  Uiso   1.00
H995   H     0.40610   0.16870   0.65629   0.00000  Uiso   1.00
H996   H     0.63164   0.25755   0.81209   0.00000  Uiso   1.00
H997   H     0.46061   0.21840   0.97221   0.00000  Uiso   1.00
H998   H     0.63906   0.19567   0.86922   0.00000  Uiso   1.00
H999   H     0.59375   0.17197   0.84268   0.00000  Uiso   1.00
H1000  H     0.58969   0.22684   0.86840   0.00000  Uiso   1.00
H1001  H     0.63235   0.10404   0.66291   0.00000  Uiso   1.00
H1002  H     0.65117   0.03949   0.71193   0.00000  Uiso   1.00
H1003  H     0.59713   0.03975   0.69503   0.00000  Uiso   1.00
H1004  H     0.61156   0.05963   0.74934   0.00000  Uiso   1.00
H1005  H     0.36679   0.23573   0.83297   0.00000  Uiso   1.00
H1006  H     0.34915   0.29709   0.78110   0.00000  Uiso   1.00
H1007  H     0.38597   0.27275   0.74278   0.00000  Uiso   1.00
H1008  H     0.52371   0.09538   0.52957   0.00000  Uiso   1.00
H1009  H     0.40393   0.29620   0.79434   0.00000  Uiso   1.00
H1010  H     0.55065   0.04045   0.79541   0.00000  Uiso   1.00
H1011  H     0.44912   0.29282   0.70509   0.00000  Uiso   1.00
H1012  H     0.44875   0.04404   0.70536   0.00000  Uiso   1.00
H1013  H     0.55057   0.28927   0.79554   0.00000  Uiso   1.00
H1014  H     0.50992   0.27681   0.60202   0.00000  Uiso   1.00
N1015  N     0.50000   0.28573   0.75000   0.00000  Uiso   1.00
N1016  N     0.37555   0.23312   0.80029   0.00000  Uiso   1.00
N1017  N     0.50000   0.04760   0.75000   0.00000  Uiso   1.00
N1018  N     0.49129   0.25090   0.61235   0.00000  Uiso   1.00
N1019  N     0.55577   0.10277   0.88049   0.00000  Uiso   1.00
N1020  N     0.44956   0.22716   0.88643   0.00000  Uiso   1.00
N1021  N     0.52543   0.08495   0.61553   0.00000  Uiso   1.00
N1022  N     0.37846   0.11316   0.68759   0.00000  Uiso   1.00
N1023  N     0.62120   0.22513   0.80790   0.00000  Uiso   1.00
N1024  N     0.62399   0.10390   0.69581   0.00000  Uiso   1.00
O1025  O     0.43892   0.20487   0.75000   0.00000  Uiso   1.00
O1026  O     0.56108   0.12846   0.75001   0.00000  Uiso   1.00
O1027  O     0.56108   0.20487   0.75001   0.00000  Uiso   1.00
O1028  O     0.43892   0.12846   0.75000   0.00000  Uiso   1.00
O1029  O     0.50000   0.20489   0.68453   0.00000  Uiso   1.00
O1030  O     0.50000   0.12845   0.81547   0.00000  Uiso   1.00
O1031  O     0.50000   0.20489   0.81547   0.00000  Uiso   1.00
O1032  O     0.50000   0.12845   0.68453   0.00000  Uiso   1.00
Zn1033 Zn    0.50000   0.21771   0.75000   0.00000  Uiso   1.00
Zn1034 Zn    0.50000   0.11563   0.75000   0.00000  Uiso   1.00
C1035  C     0.75331   0.16744   0.74947   0.00000  Uiso   1.00
C1036  C     0.97778   0.19663   0.77833   0.00000  Uiso   1.00
C1037  C     0.97928   0.13485   0.72317   0.00000  Uiso   1.00
C1038  C     0.68729   0.20003   0.77515   0.00000  Uiso   1.00
C1039  C     0.84013   0.20872   0.54607   0.00000  Uiso   1.00
C1040  C     0.86981   0.13807   0.95124   0.00000  Uiso   1.00
C1041  C     0.81499   0.19646   0.95367   0.00000  Uiso   1.00
C1042  C     0.85161   0.12715   0.54681   0.00000  Uiso   1.00
C1043  C     0.83445   0.20872   0.59149   0.00000  Uiso   1.00
C1044  C     0.86567   0.13574   0.90529   0.00000  Uiso   1.00
C1045  C     0.81217   0.19697   0.90790   0.00000  Uiso   1.00
C1046  C     0.91335   0.16600   0.75041   0.00000  Uiso   1.00
C1047  C     0.84879   0.12636   0.59266   0.00000  Uiso   1.00
C1048  C     0.83845   0.16715   0.61544   0.00000  Uiso   1.00
C1049  C     0.83698   0.16603   0.88372   0.00000  Uiso   1.00
C1050  C     0.84640   0.16799   0.52349   0.00000  Uiso   1.00
C1051  C     0.84433   0.16795   0.97534   0.00000  Uiso   1.00
C1052  C     0.95761   0.16468   0.75169   0.00000  Uiso   1.00
C1053  C     0.70905   0.16935   0.74760   0.00000  Uiso   1.00
C1054  C     0.78091   0.26399   0.60979   0.00000  Uiso   1.00
C1055  C     0.93036   0.08887   0.89605   0.00000  Uiso   1.00
C1056  C     0.79590   0.27383   0.88462   0.00000  Uiso   1.00
C1057  C     0.83431   0.16678   0.66365   0.00000  Uiso   1.00
C1058  C     0.82670   0.05149   0.61351   0.00000  Uiso   1.00
C1059  C     0.72084   0.13869   0.64789   0.00000  Uiso   1.00
C1060  C     0.94383   0.20365   0.84924   0.00000  Uiso   1.00
C1061  C     0.95426   0.05845   0.71404   0.00000  Uiso   1.00
C1062  C     0.71202   0.27691   0.77846   0.00000  Uiso   1.00
C1063  C     0.83391   0.16647   0.83600   0.00000  Uiso   1.00
C1064  C     0.86151   0.02301   0.77525   0.00000  Uiso   1.00
C1065  C     0.80504   0.31032   0.72497   0.00000  Uiso   1.00
C1066  C     0.80489   0.02501   0.72513   0.00000  Uiso   1.00
C1067  C     0.86149   0.30831   0.77528   0.00000  Uiso   1.00
C1068  C     0.68882   0.13854   0.71986   0.00000  Uiso   1.00
H1069  H     0.83780   0.24075   0.52818   0.00000  Uiso   1.00
H1070  H     0.77047   0.26739   0.57462   0.00000  Uiso   1.00
H1071  H     0.77570   0.29729   0.62620   0.00000  Uiso   1.00
H1072  H     0.76200   0.23841   0.62688   0.00000  Uiso   1.00
H1073  H     0.87164   0.07613   0.86947   0.00000  Uiso   1.00
H1074  H     0.92824   0.06404   0.92375   0.00000  Uiso   1.00
H1075  H     0.94808   0.11878   0.90698   0.00000  Uiso   1.00
H1076  H     0.94753   0.07221   0.86852   0.00000  Uiso   1.00
H1077  H     0.75327   0.22480   0.89892   0.00000  Uiso   1.00
H1078  H     0.79818   0.28810   0.91859   0.00000  Uiso   1.00
H1079  H     0.77273   0.29464   0.86529   0.00000  Uiso   1.00
H1080  H     0.89231   0.11616   0.96842   0.00000  Uiso   1.00
H1081  H     0.82658   0.27602   0.86822   0.00000  Uiso   1.00
H1082  H     0.88748   0.07127   0.60703   0.00000  Uiso   1.00
H1083  H     0.82202   0.03972   0.57890   0.00000  Uiso   1.00
H1084  H     0.79696   0.06590   0.62632   0.00000  Uiso   1.00
H1085  H     0.83624   0.02181   0.63447   0.00000  Uiso   1.00
H1086  H     0.70133   0.08118   0.68083   0.00000  Uiso   1.00
H1087  H     0.69148   0.15009   0.63089   0.00000  Uiso   1.00
H1088  H     0.73915   0.11704   0.62481   0.00000  Uiso   1.00
H1089  H     0.73944   0.16870   0.65629   0.00000  Uiso   1.00
H1090  H     0.96498   0.25755   0.81209   0.00000  Uiso   1.00
H1091  H     0.79395   0.21840   0.97221   0.00000  Uiso   1.00
H1092  H     0.97239   0.19567   0.86922   0.00000  Uiso   1.00
H1093  H     0.92709   0.17197   0.84268   0.00000  Uiso   1.00
H1094  H     0.92302   0.22684   0.86840   0.00000  Uiso   1.00
H1095  H     0.96569   0.10404   0.66291   0.00000  Uiso   1.00
H1096  H     0.98450   0.03949   0.71193   0.00000  Uiso   1.00
H1097  H     0.93047   0.03975   0.69503   0.00000  Uiso   1.00
H1098  H     0.94489   0.05963   0.74934   0.00000  Uiso   1.00
H1099  H     0.70012   0.23573   0.83297   0.00000  Uiso   1.00
H1100  H     0.68249   0.29709   0.78110   0.00000  Uiso   1.00
H1101  H     0.71930   0.27275   0.74278   0.00000  Uiso   1.00
H1102  H     0.85704   0.09538   0.52957   0.00000  Uiso   1.00
H1103  H     0.73727   0.29620   0.79434   0.00000  Uiso   1.00
H1104  H     0.88398   0.04045   0.79541   0.00000  Uiso   1.00
H1105  H     0.78246   0.29282   0.70509   0.00000  Uiso   1.00
H1106  H     0.78208   0.04404   0.70536   0.00000  Uiso   1.00
H1107  H     0.88390   0.28927   0.79554   0.00000  Uiso   1.00
H1108  H     0.84325   0.27681   0.60202   0.00000  Uiso   1.00
N1109  N     0.83333   0.28573   0.75000   0.00000  Uiso   1.00
N1110  N     0.70888   0.23312   0.80029   0.00000  Uiso   1.00
N1111  N     0.83333   0.04760   0.75000   0.00000  Uiso   1.00
N1112  N     0.82462   0.25090   0.61235   0.00000  Uiso   1.00
N1113  N     0.88910   0.10277   0.88049   0.00000  Uiso   1.00
N1114  N     0.78289   0.22716   0.88643   0.00000  Uiso   1.00
N1115  N     0.85876   0.08495   0.61553   0.00000  Uiso   1.00
N1116  N     0.71179   0.11316   0.68759   0.00000  Uiso   1.00
N1117  N     0.95453   0.22513   0.80790   0.00000  Uiso   1.00
N1118  N     0.95732   0.10390   0.69581   0.00000  Uiso   1.00
O1119  O     0.77226   0.20487   0.75000   0.00000  Uiso   1.00
O1120  O     0.89441   0.12846   0.75001   0.00000  Uiso   1.00
O1121  O     0.89441   0.20487   0.75001   0.00000  Uiso   1.00
O1122  O     0.77226   0.12846   0.75000   0.00000  Uiso   1.00
O1123  O     0.83333   0.20489   0.68453   0.00000  Uiso   1.00
O1124  O     0.83334   0.12845   0.81547   0.00000  Uiso   1.00
O1125  O     0.83334   0.20489   0.81547   0.00000  Uiso   1.00
O1126  O     0.83333   0.12845   0.68453   0.00000  Uiso   1.00
Zn1127 Zn    0.83333   0.21771   0.75000   0.00000  Uiso   1.00
Zn1128 Zn    0.83333   0.11563   0.75000   0.00000  Uiso   1.00
C1129  C     0.08664   0.50077   0.74947   0.00000  Uiso   1.00
C1130  C     0.31112   0.52996   0.77833   0.00000  Uiso   1.00
C1131  C     0.31261   0.46818   0.72317   0.00000  Uiso   1.00
C1132  C     0.02062   0.53336   0.77515   0.00000  Uiso   1.00
C1133  C     0.17346   0.54205   0.54607   0.00000  Uiso   1.00
C1134  C     0.20314   0.47140   0.95124   0.00000  Uiso   1.00
C1135  C     0.14833   0.52979   0.95367   0.00000  Uiso   1.00
C1136  C     0.18495   0.46048   0.54681   0.00000  Uiso   1.00
C1137  C     0.16779   0.54206   0.59149   0.00000  Uiso   1.00
C1138  C     0.19901   0.46908   0.90529   0.00000  Uiso   1.00
C1139  C     0.14550   0.53031   0.90790   0.00000  Uiso   1.00
C1140  C     0.24669   0.49933   0.75041   0.00000  Uiso   1.00
C1141  C     0.18212   0.45970   0.59266   0.00000  Uiso   1.00
C1142  C     0.17179   0.50048   0.61544   0.00000  Uiso   1.00
C1143  C     0.17031   0.49936   0.88372   0.00000  Uiso   1.00
C1144  C     0.17974   0.50132   0.52349   0.00000  Uiso   1.00
C1145  C     0.17767   0.50129   0.97534   0.00000  Uiso   1.00
C1146  C     0.29095   0.49801   0.75169   0.00000  Uiso   1.00
C1147  C     0.04238   0.50268   0.74760   0.00000  Uiso   1.00
C1148  C     0.11424   0.59733   0.60979   0.00000  Uiso   1.00
C1149  C     0.26370   0.42220   0.89605   0.00000  Uiso   1.00
C1150  C     0.12924   0.60716   0.88462   0.00000  Uiso   1.00
C1151  C     0.16765   0.50012   0.66365   0.00000  Uiso   1.00
C1152  C     0.16004   0.38483   0.61351   0.00000  Uiso   1.00
C1153  C     0.05418   0.47203   0.64789   0.00000  Uiso   1.00
C1154  C     0.27716   0.53698   0.84924   0.00000  Uiso   1.00
C1155  C     0.28759   0.39179   0.71404   0.00000  Uiso   1.00
C1156  C     0.04535   0.61024   0.77846   0.00000  Uiso   1.00
C1157  C     0.16724   0.49980   0.83600   0.00000  Uiso   1.00
C1158  C     0.19484   0.35634   0.77525   0.00000  Uiso   1.00
C1159  C     0.13838   0.64366   0.72497   0.00000  Uiso   1.00
C1160  C     0.13822   0.35834   0.72513   0.00000  Uiso   1.00
C1161  C     0.19483   0.64165   0.77528   0.00000  Uiso   1.00
C1162  C     0.02216   0.47187   0.71986   0.00000  Uiso   1.00
H1163  H     0.17114   0.57409   0.52818   0.00000  Uiso   1.00
H1164  H     0.10381   0.60072   0.57462   0.00000  Uiso   1.00
H1165  H     0.10904   0.63063   0.62620   0.00000  Uiso   1.00
H1166  H     0.09533   0.57175   0.62688   0.00000  Uiso   1.00
H1167  H     0.20497   0.40947   0.86947   0.00000  Uiso   1.00
H1168  H     0.26158   0.39737   0.92375   0.00000  Uiso   1.00
H1169  H     0.28141   0.45211   0.90698   0.00000  Uiso   1.00
H1170  H     0.28086   0.40555   0.86852   0.00000  Uiso   1.00
H1171  H     0.08660   0.55814   0.89892   0.00000  Uiso   1.00
H1172  H     0.13151   0.62144   0.91859   0.00000  Uiso   1.00
H1173  H     0.10606   0.62797   0.86529   0.00000  Uiso   1.00
H1174  H     0.22565   0.44950   0.96842   0.00000  Uiso   1.00
H1175  H     0.15991   0.60936   0.86822   0.00000  Uiso   1.00
H1176  H     0.22082   0.40460   0.60703   0.00000  Uiso   1.00
H1177  H     0.15536   0.37306   0.57890   0.00000  Uiso   1.00
H1178  H     0.13030   0.39924   0.62632   0.00000  Uiso   1.00
H1179  H     0.16957   0.35514   0.63447   0.00000  Uiso   1.00
H1180  H     0.03467   0.41451   0.68083   0.00000  Uiso   1.00
H1181  H     0.02481   0.48343   0.63089   0.00000  Uiso   1.00
H1182  H     0.07248   0.45037   0.62481   0.00000  Uiso   1.00
H1183  H     0.07277   0.50203   0.65629   0.00000  Uiso   1.00
H1184  H     0.29831   0.59089   0.81209   0.00000  Uiso   1.00
H1185  H     0.12728   0.55173   0.97221   0.00000  Uiso   1.00
H1186  H     0.30573   0.52900   0.86922   0.00000  Uiso   1.00
H1187  H     0.26042   0.50530   0.84268   0.00000  Uiso   1.00
H1188  H     0.25636   0.56017   0.86840   0.00000  Uiso   1.00
H1189  H     0.29902   0.43737   0.66291   0.00000  Uiso   1.00
H1190  H     0.31783   0.37282   0.71193   0.00000  Uiso   1.00
H1191  H     0.26380   0.37308   0.69503   0.00000  Uiso   1.00
H1192  H     0.27822   0.39296   0.74934   0.00000  Uiso   1.00
H1193  H     0.03345   0.56906   0.83297   0.00000  Uiso   1.00
H1194  H     0.01582   0.63042   0.78110   0.00000  Uiso   1.00
H1195  H     0.05263   0.60609   0.74278   0.00000  Uiso   1.00
H1196  H     0.19038   0.42872   0.52957   0.00000  Uiso   1.00
H1197  H     0.07060   0.62953   0.79434   0.00000  Uiso   1.00
H1198  H     0.21732   0.37379   0.79541   0.00000  Uiso   1.00
H1199  H     0.11579   0.62616   0.70509   0.00000  Uiso   1.00
H1200  H     0.11541   0.37737   0.70536   0.00000  Uiso   1.00
H1201  H     0.21724   0.62260   0.79554   0.00000  Uiso   1.00
H1202  H     0.17659   0.61015   0.60202   0.00000  Uiso   1.00
N1203  N     0.16667   0.61907   0.75000   0.00000  Uiso   1.00
N1204  N     0.04222   0.56645   0.80029   0.00000  Uiso   1.00
N1205  N     0.16667   0.38093   0.75000   0.00000  Uiso   1.00
N1206  N     0.15795   0.58424   0.61235   0.00000  Uiso   1.00
N1207  N     0.22243   0.43610   0.88049   0.00000  Uiso   1.00
N1208  N     0.11623   0.56049   0.88643   0.00000  Uiso   1.00
N1209  N     0.19210   0.41829   0.61553   0.00000  Uiso   1.00
N1210  N     0.04513   0.44649   0.68759   0.00000  Uiso   1.00
N1211  N     0.28787   0.55846   0.80790   0.00000  Uiso   1.00
N1212  N     0.29065   0.43723   0.69581   0.00000  Uiso   1.00
O1213  O     0.10559   0.53821   0.75000   0.00000  Uiso   1.00
O1214  O     0.22774   0.46179   0.75001   0.00000  Uiso   1.00
O1215  O     0.22774   0.53821   0.75001   0.00000  Uiso   1.00
O1216  O     0.10559   0.46179   0.75000   0.00000  Uiso   1.00
O1217  O     0.16666   0.53822   0.68453   0.00000  Uiso   1.00
O1218  O     0.16667   0.46178   0.81547   0.00000  Uiso   1.00
O1219  O     0.16667   0.53822   0.81547   0.00000  Uiso   1.00
O1220  O     0.16666   0.46178   0.68453   0.00000  Uiso   1.00
Zn1221 Zn    0.16667   0.55104   0.75000   0.00000  Uiso   1.00
Zn1222 Zn    0.16667   0.44896   0.75000   0.00000  Uiso   1.00
C1223  C     0.41998   0.50077   0.74947   0.00000  Uiso   1.00
C1224  C     0.64445   0.52996   0.77833   0.00000  Uiso   1.00
C1225  C     0.64595   0.46818   0.72317   0.00000  Uiso   1.00
C1226  C     0.35396   0.53336   0.77515   0.00000  Uiso   1.00
C1227  C     0.50680   0.54205   0.54607   0.00000  Uiso   1.00
C1228  C     0.53648   0.47140   0.95124   0.00000  Uiso   1.00
C1229  C     0.48166   0.52979   0.95367   0.00000  Uiso   1.00
C1230  C     0.51828   0.46048   0.54681   0.00000  Uiso   1.00
C1231  C     0.50112   0.54206   0.59149   0.00000  Uiso   1.00
C1232  C     0.53234   0.46908   0.90529   0.00000  Uiso   1.00
C1233  C     0.47883   0.53031   0.90790   0.00000  Uiso   1.00
C1234  C     0.58002   0.49933   0.75041   0.00000  Uiso   1.00
C1235  C     0.51545   0.45970   0.59266   0.00000  Uiso   1.00
C1236  C     0.50512   0.50048   0.61544   0.00000  Uiso   1.00
C1237  C     0.50364   0.49936   0.88372   0.00000  Uiso   1.00
C1238  C     0.51307   0.50132   0.52349   0.00000  Uiso   1.00
C1239  C     0.51100   0.50129   0.97534   0.00000  Uiso   1.00
C1240  C     0.62428   0.49801   0.75169   0.00000  Uiso   1.00
C1241  C     0.37572   0.50268   0.74760   0.00000  Uiso   1.00
C1242  C     0.44757   0.59733   0.60979   0.00000  Uiso   1.00
C1243  C     0.59703   0.42220   0.89605   0.00000  Uiso   1.00
C1244  C     0.46257   0.60716   0.88462   0.00000  Uiso   1.00
C1245  C     0.50098   0.50012   0.66365   0.00000  Uiso   1.00
C1246  C     0.49337   0.38483   0.61351   0.00000  Uiso   1.00
C1247  C     0.38751   0.47203   0.64789   0.00000  Uiso   1.00
C1248  C     0.61049   0.53698   0.84924   0.00000  Uiso   1.00
C1249  C     0.62093   0.39179   0.71404   0.00000  Uiso   1.00
C1250  C     0.37869   0.61024   0.77846   0.00000  Uiso   1.00
C1251  C     0.50058   0.49980   0.83600   0.00000  Uiso   1.00
C1252  C     0.52817   0.35634   0.77525   0.00000  Uiso   1.00
C1253  C     0.47171   0.64366   0.72497   0.00000  Uiso   1.00
C1254  C     0.47155   0.35834   0.72513   0.00000  Uiso   1.00
C1255  C     0.52816   0.64165   0.77528   0.00000  Uiso   1.00
C1256  C     0.35549   0.47187   0.71986   0.00000  Uiso   1.00
H1257  H     0.50447   0.57409   0.52818   0.00000  Uiso   1.00
H1258  H     0.43714   0.60072   0.57462   0.00000  Uiso   1.00
H1259  H     0.44237   0.63063   0.62620   0.00000  Uiso   1.00
H1260  H     0.42867   0.57175   0.62688   0.00000  Uiso   1.00
H1261  H     0.53830   0.40947   0.86947   0.00000  Uiso   1.00
H1262  H     0.59491   0.39737   0.92375   0.00000  Uiso   1.00
H1263  H     0.61475   0.45211   0.90698   0.00000  Uiso   1.00
H1264  H     0.61420   0.40555   0.86852   0.00000  Uiso   1.00
H1265  H     0.41993   0.55814   0.89892   0.00000  Uiso   1.00
H1266  H     0.46485   0.62144   0.91859   0.00000  Uiso   1.00
H1267  H     0.43939   0.62797   0.86529   0.00000  Uiso   1.00
H1268  H     0.55898   0.44950   0.96842   0.00000  Uiso   1.00
H1269  H     0.49325   0.60936   0.86822   0.00000  Uiso   1.00
H1270  H     0.55415   0.40460   0.60703   0.00000  Uiso   1.00
H1271  H     0.48869   0.37306   0.57890   0.00000  Uiso   1.00
H1272  H     0.46363   0.39924   0.62632   0.00000  Uiso   1.00
H1273  H     0.50290   0.35514   0.63447   0.00000  Uiso   1.00
H1274  H     0.36800   0.41451   0.68083   0.00000  Uiso   1.00
H1275  H     0.35814   0.48343   0.63089   0.00000  Uiso   1.00
H1276  H     0.40581   0.45037   0.62481   0.00000  Uiso   1.00
H1277  H     0.40610   0.50203   0.65629   0.00000  Uiso   1.00
H1278  H     0.63164   0.59089   0.81209   0.00000  Uiso   1.00
H1279  H     0.46061   0.55173   0.97221   0.00000  Uiso   1.00
H1280  H     0.63906   0.52900   0.86922   0.00000  Uiso   1.00
H1281  H     0.59375   0.50530   0.84268   0.00000  Uiso   1.00
H1282  H     0.58969   0.56017   0.86840   0.00000  Uiso   1.00
H1283  H     0.63235   0.43737   0.66291   0.00000  Uiso   1.00
H1284  H     0.65117   0.37282   0.71193   0.00000  Uiso   1.00
H1285  H     0.59713   0.37308   0.69503   0.00000  Uiso   1.00
H1286  H     0.61156   0.39296   0.74934   0.00000  Uiso   1.00
H1287  H     0.36679   0.56906   0.83297   0.00000  Uiso   1.00
H1288  H     0.34915   0.63042   0.78110   0.00000  Uiso   1.00
H1289  H     0.38597   0.60609   0.74278   0.00000  Uiso   1.00
H1290  H     0.52371   0.42872   0.52957   0.00000  Uiso   1.00
H1291  H     0.40393   0.62953   0.79434   0.00000  Uiso   1.00
H1292  H     0.55065   0.37379   0.79541   0.00000  Uiso   1.00
H1293  H     0.44912   0.62616   0.70509   0.00000  Uiso   1.00
H1294  H     0.44875   0.37737   0.70536   0.00000  Uiso   1.00
H1295  H     0.55057   0.62260   0.79554   0.00000  Uiso   1.00
H1296  H     0.50992   0.61015   0.60202   0.00000  Uiso   1.00
N1297  N     0.50000   0.61907   0.75000   0.00000  Uiso   1.00
N1298  N     0.37555   0.56645   0.80029   0.00000  Uiso   1.00
N1299  N     0.50000   0.38093   0.75000   0.00000  Uiso   1.00
N1300  N     0.49129   0.58424   0.61235   0.00000  Uiso   1.00
N1301  N     0.55577   0.43610   0.88049   0.00000  Uiso   1.00
N1302  N     0.44956   0.56049   0.88643   0.00000  Uiso   1.00
N1303  N     0.52543   0.41829   0.61553   0.00000  Uiso   1.00
N1304  N     0.37846   0.44649   0.68759   0.00000  Uiso   1.00
N1305  N     0.62120   0.55846   0.80790   0.00000  Uiso   1.00
N1306  N     0.62399   0.43723   0.69581   0.00000  Uiso   1.00
O1307  O     0.43892   0.53821   0.75000   0.00000  Uiso   1.00
O1308  O     0.56108   0.46179   0.75001   0.00000  Uiso   1.00
O1309  O     0.56108   0.53821   0.75001   0.00000  Uiso   1.00
O1310  O     0.43892   0.46179   0.75000   0.00000  Uiso   1.00
O1311  O     0.50000   0.53822   0.68453   0.00000  Uiso   1.00
O1312  O     0.50000   0.46178   0.81547   0.00000  Uiso   1.00
O1313  O     0.50000   0.53822   0.81547   0.00000  Uiso   1.00
O1314  O     0.50000   0.46178   0.68453   0.00000  Uiso   1.00
Zn1315 Zn    0.50000   0.55104   0.75000   0.00000  Uiso   1.00
Zn1316 Zn    0.50000   0.44896   0.75000   0.00000  Uiso   1.00
C1317  C     0.75331   0.50077   0.74947   0.00000  Uiso   1.00
C1318  C     0.97778   0.52996   0.77833   0.00000  Uiso   1.00
C1319  C     0.97928   0.46818   0.72317   0.00000  Uiso   1.00
C1320  C     0.68729   0.53336   0.77515   0.00000  Uiso   1.00
C1321  C     0.84013   0.54205   0.54607   0.00000  Uiso   1.00
C1322  C     0.86981   0.47140   0.95124   0.00000  Uiso   1.00
C1323  C     0.81499   0.52979   0.95367   0.00000  Uiso   1.00
C1324  C     0.85161   0.46048   0.54681   0.00000  Uiso   1.00
C1325  C     0.83445   0.54206   0.59149   0.00000  Uiso   1.00
C1326  C     0.86567   0.46908   0.90529   0.00000  Uiso   1.00
C1327  C     0.81217   0.53031   0.90790   0.00000  Uiso   1.00
C1328  C     0.91335   0.49933   0.75041   0.00000  Uiso   1.00
C1329  C     0.84879   0.45970   0.59266   0.00000  Uiso   1.00
C1330  C     0.83845   0.50048   0.61544   0.00000  Uiso   1.00
C1331  C     0.83698   0.49936   0.88372   0.00000  Uiso   1.00
C1332  C     0.84640   0.50132   0.52349   0.00000  Uiso   1.00
C1333  C     0.84433   0.50129   0.97534   0.00000  Uiso   1.00
C1334  C     0.95761   0.49801   0.75169   0.00000  Uiso   1.00
C1335  C     0.70905   0.50268   0.74760   0.00000  Uiso   1.00
C1336  C     0.78091   0.59733   0.60979   0.00000  Uiso   1.00
C1337  C     0.93036   0.42220   0.89605   0.00000  Uiso   1.00
C1338  C     0.79590   0.60716   0.88462   0.00000  Uiso   1.00
C1339  C     0.83431   0.50012   0.66365   0.00000  Uiso   1.00
C1340  C     0.82670   0.38483   0.61351   0.00000  Uiso   1.00
C1341  C     0.72084   0.47203   0.64789   0.00000  Uiso   1.00
C1342  C     0.94383   0.53698   0.84924   0.00000  Uiso   1.00
C1343  C     0.95426   0.39179   0.71404   0.00000  Uiso   1.00
C1344  C     0.71202   0.61024   0.77846   0.00000  Uiso   1.00
C1345  C     0.83391   0.49980   0.83600   0.00000  Uiso   1.00
C1346  C     0.86151   0.35634   0.77525   0.00000  Uiso   1.00
C1347  C     0.80504   0.64366   0.72497   0.00000  Uiso   1.00
C1348  C     0.80489   0.35834   0.72513   0.00000  Uiso   1.00
C1349  C     0.86149   0.64165   0.77528   0.00000  Uiso   1.00
C1350  C     0.68882   0.47187   0.71986   0.00000  Uiso   1.00
H1351  H     0.83780   0.57409   0.52818   0.00000  Uiso   1.00
H1352  H     0.77047   0.60072   0.57462   0.00000  Uiso   1.00
H1353  H     0.77570   0.63063   0.62620   0.00000  Uiso   1.00
H1354  H     0.76200   0.57175   0.62688   0.00000  Uiso   1.00
H1355  H     0.87164   0.40947   0.86947   0.00000  Uiso   1.00
H1356  H     0.92824   0.39737   0.92375   0.00000  Uiso   1.00
H1357  H     0.94808   0.45211   0.90698   0.00000  Uiso   1.00
H1358  H     0.94753   0.40555   0.86852   0.00000  Uiso   1.00
H1359  H     0.75327   0.55814   0.89892   0.00000  Uiso   1.00
H1360  H     0.79818   0.62144   0.91859   0.00000  Uiso   1.00
H1361  H     0.77273   0.62797   0.86529   0.00000  Uiso   1.00
H1362  H     0.89231   0.44950   0.96842   0.00000  Uiso   1.00
H1363  H     0.82658   0.60936   0.86822   0.00000  Uiso   1.00
H1364  H     0.88748   0.40460   0.60703   0.00000  Uiso   1.00
H1365  H     0.82202   0.37306   0.57890   0.00000  Uiso   1.00
H1366  H     0.79696   0.39924   0.62632   0.00000  Uiso   1.00
H1367  H     0.83624   0.35514   0.63447   0.00000  Uiso   1.00
H1368  H     0.70133   0.41451   0.68083   0.00000  Uiso   1.00
H1369  H     0.69148   0.48343   0.63089   0.00000  Uiso   1.00
H1370  H     0.73915   0.45037   0.62481   0.00000  Uiso   1.00
H1371  H     0.73944   0.50203   0.65629   0.00000  Uiso   1.00
H1372  H     0.96498   0.59089   0.81209   0.00000  Uiso   1.00
H1373  H     0.79395   0.55173   0.97221   0.00000  Uiso   1.00
H1374  H     0.97239   0.52900   0.86922   0.00000  Uiso   1.00
H1375  H     0.92709   0.50530   0.84268   0.00000  Uiso   1.00
H1376  H     0.92302   0.56017   0.86840   0.00000  Uiso   1.00
H1377  H     0.96569   0.43737   0.66291   0.00000  Uiso   1.00
H1378  H     0.98450   0.37282   0.71193   0.00000  Uiso   1.00
H1379  H     0.93047   0.37308   0.69503   0.00000  Uiso   1.00
H1380  H     0.94489   0.39296   0.74934   0.00000  Uiso   1.00
H1381  H     0.70012   0.56906   0.83297   0.00000  Uiso   1.00
H1382  H     0.68249   0.63042   0.78110   0.00000  Uiso   1.00
H1383  H     0.71930   0.60609   0.74278   0.00000  Uiso   1.00
H1384  H     0.85704   0.42872   0.52957   0.00000  Uiso   1.00
H1385  H     0.73727   0.62953   0.79434   0.00000  Uiso   1.00
H1386  H     0.88398   0.37379   0.79541   0.00000  Uiso   1.00
H1387  H     0.78246   0.62616   0.70509   0.00000  Uiso   1.00
H1388  H     0.78208   0.37737   0.70536   0.00000  Uiso   1.00
H1389  H     0.88390   0.62260   0.79554   0.00000  Uiso   1.00
H1390  H     0.84325   0.61015   0.60202   0.00000  Uiso   1.00
N1391  N     0.83333   0.61907   0.75000   0.00000  Uiso   1.00
N1392  N     0.70888   0.56645   0.80029   0.00000  Uiso   1.00
N1393  N     0.83333   0.38093   0.75000   0.00000  Uiso   1.00
N1394  N     0.82462   0.58424   0.61235   0.00000  Uiso   1.00
N1395  N     0.88910   0.43610   0.88049   0.00000  Uiso   1.00
N1396  N     0.78289   0.56049   0.88643   0.00000  Uiso   1.00
N1397  N     0.85876   0.41829   0.61553   0.00000  Uiso   1.00
N1398  N     0.71179   0.44649   0.68759   0.00000  Uiso   1.00
N1399  N     0.95453   0.55846   0.80790   0.00000  Uiso   1.00
N1400  N     0.95732   0.43723   0.69581   0.00000  Uiso   1.00
O1401  O     0.77226   0.53821   0.75000   0.00000  Uiso   1.00
O1402  O     0.89441   0.46179   0.75001   0.00000  Uiso   1.00
O1403  O     0.89441   0.53821   0.75001   0.00000  Uiso   1.00
O1404  O     0.77226   0.46179   0.75000   0.00000  Uiso   1.00
O1405  O     0.83333   0.53822   0.68453   0.00000  Uiso   1.00
O1406  O     0.83334   0.46178   0.81547   0.00000  Uiso   1.00
O1407  O     0.83334   0.53822   0.81547   0.00000  Uiso   1.00
O1408  O     0.83333   0.46178   0.68453   0.00000  Uiso   1.00
Zn1409 Zn    0.83333   0.55104   0.75000   0.00000  Uiso   1.00
Zn1410 Zn    0.83333   0.44896   0.75000   0.00000  Uiso   1.00
C1411  C     0.08664   0.83411   0.74947   0.00000  Uiso   1.00
C1412  C     0.31112   0.86329   0.77833   0.00000  Uiso   1.00
C1413  C     0.31261   0.80151   0.72317   0.00000  Uiso   1.00
C1414  C     0.02062   0.86669   0.77515   0.00000  Uiso   1.00
C1415  C     0.17346   0.87538   0.54607   0.00000  Uiso   1.00
C1416  C     0.20314   0.80474   0.95124   0.00000  Uiso   1.00
C1417  C     0.14833   0.86313   0.95367   0.00000  Uiso   1.00
C1418  C     0.18495   0.79381   0.54681   0.00000  Uiso   1.00
C1419  C     0.16779   0.87539   0.59149   0.00000  Uiso   1.00
C1420  C     0.19901   0.80241   0.90529   0.00000  Uiso   1.00
C1421  C     0.14550   0.86364   0.90790   0.00000  Uiso   1.00
C1422  C     0.24669   0.83266   0.75041   0.00000  Uiso   1.00
C1423  C     0.18212   0.79303   0.59266   0.00000  Uiso   1.00
C1424  C     0.17179   0.83382   0.61544   0.00000  Uiso   1.00
C1425  C     0.17031   0.83269   0.88372   0.00000  Uiso   1.00
C1426  C     0.17974   0.83465   0.52349   0.00000  Uiso   1.00
C1427  C     0.17767   0.83462   0.97534   0.00000  Uiso   1.00
C1428  C     0.29095   0.83134   0.75169   0.00000  Uiso   1.00
C1429  C     0.04238   0.83601   0.74760   0.00000  Uiso   1.00
C1430  C     0.11424   0.93066   0.60979   0.00000  Uiso   1.00
C1431  C     0.26370   0.75554   0.89605   0.00000  Uiso   1.00
C1432  C     0.12924   0.94050   0.88462   0.00000  Uiso   1.00
C1433  C     0.16765   0.83345   0.66365   0.00000  Uiso   1.00
C1434  C     0.16004   0.71816   0.61351   0.00000  Uiso   1.00
C1435  C     0.05418   0.80536   0.64789   0.00000  Uiso   1.00
C1436  C     0.27716   0.87032   0.84924   0.00000  Uiso   1.00
C1437  C     0.28759   0.72512   0.71404   0.00000  Uiso   1.00
C1438  C     0.04535   0.94358   0.77846   0.00000  Uiso   1.00
C1439  C     0.16724   0.83314   0.83600   0.00000  Uiso   1.00
C1440  C     0.19484   0.68967   0.77525   0.00000  Uiso   1.00
C1441  C     0.13838   0.97699   0.72497   0.00000  Uiso   1.00
C1442  C     0.13822   0.69167   0.72513   0.00000  Uiso   1.00
C1443  C     0.19483   0.97498   0.77528   0.00000  Uiso   1.00
C1444  C     0.02216   0.80521   0.71986   0.00000  Uiso   1.00
H1445  H     0.17114   0.90742   0.52818   0.00000  Uiso   1.00
H1446  H     0.10381   0.93405   0.57462   0.00000  Uiso   1.00
H1447  H     0.10904   0.96396   0.62620   0.00000  Uiso   1.00
H1448  H     0.09533   0.90508   0.62688   0.00000  Uiso   1.00
H1449  H     0.20497   0.74280   0.86947   0.00000  Uiso   1.00
H1450  H     0.26158   0.73071   0.92375   0.00000  Uiso   1.00
H1451  H     0.28141   0.78544   0.90698   0.00000  Uiso   1.00
H1452  H     0.28086   0.73888   0.86852   0.00000  Uiso   1.00
H1453  H     0.08660   0.89147   0.89892   0.00000  Uiso   1.00
H1454  H     0.13151   0.95477   0.91859   0.00000  Uiso   1.00
H1455  H     0.10606   0.96131   0.86529   0.00000  Uiso   1.00
H1456  H     0.22565   0.78283   0.96842   0.00000  Uiso   1.00
H1457  H     0.15991   0.94269   0.86822   0.00000  Uiso   1.00
H1458  H     0.22082   0.73794   0.60703   0.00000  Uiso   1.00
H1459  H     0.15536   0.70639   0.57890   0.00000  Uiso   1.00
H1460  H     0.13030   0.73257   0.62632   0.00000  Uiso   1.00
H1461  H     0.16957   0.68847   0.63447   0.00000  Uiso   1.00
H1462  H     0.03467   0.74785   0.68083   0.00000  Uiso   1.00
H1463  H     0.02481   0.81676   0.63089   0.00000  Uiso   1.00
H1464  H     0.07248   0.78371   0.62481   0.00000  Uiso   1.00
H1465  H     0.07277   0.83536   0.65629   0.00000  Uiso   1.00
H1466  H     0.29831   0.92422   0.81209   0.00000  Uiso   1.00
H1467  H     0.12728   0.88507   0.97221   0.00000  Uiso   1.00
H1468  H     0.30573   0.86233   0.86922   0.00000  Uiso   1.00
H1469  H     0.26042   0.83864   0.84268   0.00000  Uiso   1.00
H1470  H     0.25636   0.89351   0.86840   0.00000  Uiso   1.00
H1471  H     0.29902   0.77070   0.66291   0.00000  Uiso   1.00
H1472  H     0.31783   0.70616   0.71193   0.00000  Uiso   1.00
H1473  H     0.26380   0.70642   0.69503   0.00000  Uiso   1.00
H1474  H     0.27822   0.72629   0.74934   0.00000  Uiso   1.00
H1475  H     0.03345   0.90240   0.83297   0.00000  Uiso   1.00
H1476  H     0.01582   0.96376   0.78110   0.00000  Uiso   1.00
H1477  H     0.05263   0.93942   0.74278   0.00000  Uiso   1.00
H1478  H     0.19038   0.76205   0.52957   0.00000  Uiso   1.00
H1479  H     0.07060   0.96286   0.79434   0.00000  Uiso   1.00
H1480  H     0.21732   0.70712   0.79541   0.00000  Uiso   1.00
H1481  H     0.11579   0.95949   0.70509   0.00000  Uiso   1.00
H1482  H     0.11541   0.71070   0.70536   0.00000  Uiso   1.00
H1483  H     0.21724   0.95594   0.79554   0.00000  Uiso   1.00
H1484  H     0.17659   0.94348   0.60202   0.00000  Uiso   1.00
N1485  N     0.16667   0.95240   0.75000   0.00000  Uiso   1.00
N1486  N     0.04222   0.89979   0.80029   0.00000  Uiso   1.00
N1487  N     0.16667   0.71427   0.75000   0.00000  Uiso   1.00
N1488  N     0.15795   0.91757   0.61235   0.00000  Uiso   1.00
N1489  N     0.22243   0.76944   0.88049   0.00000  Uiso   1.00
N1490  N     0.11623   0.89383   0.88643   0.00000  Uiso   1.00
N1491  N     0.19210   0.75162   0.61553   0.00000  Uiso   1.00
N1492  N     0.04513   0.77983   0.68759   0.00000  Uiso   1.00
N1493  N     0.28787   0.89179   0.80790   0.00000  Uiso   1.00
N1494  N     0.29065   0.77056   0.69581   0.00000  Uiso   1.00
O1495  O     0.10559   0.87154   0.75000   0.00000  Uiso   1.00
O1496  O     0.22774   0.79513   0.75001   0.00000  Uiso   1.00
O1497  O     0.22774   0.87154   0.75001   0.00000  Uiso   1.00
O1498  O     0.10559   0.79513   0.75000   0.00000  Uiso   1.00
O1499  O     0.16666   0.87155   0.68453   0.00000  Uiso   1.00
O1500  O     0.16667   0.79511   0.81547   0.00000  Uiso   1.00
O1501  O     0.16667   0.87155   0.81547   0.00000  Uiso   1.00
O1502  O     0.16666   0.79511   0.68453   0.00000  Uiso   1.00
Zn1503 Zn    0.16667   0.88437   0.75000   0.00000  Uiso   1.00
Zn1504 Zn    0.16667   0.78229   0.75000   0.00000  Uiso   1.00
C1505  C     0.41998   0.83411   0.74947   0.00000  Uiso   1.00
C1506  C     0.64445   0.86329   0.77833   0.00000  Uiso   1.00
C1507  C     0.64595   0.80151   0.72317   0.00000  Uiso   1.00
C1508  C     0.35396   0.86669   0.77515   0.00000  Uiso   1.00
C1509  C     0.50680   0.87538   0.54607   0.00000  Uiso   1.00
C1510  C     0.53648   0.80474   0.95124   0.00000  Uiso   1.00
C1511  C     0.48166   0.86313   0.95367   0.00000  Uiso   1.00
C1512  C     0.51828   0.79381   0.54681   0.00000  Uiso   1.00
C1513  C     0.50112   0.87539   0.59149   0.00000  Uiso   1.00
C1514  C     0.53234   0.80241   0.90529   0.00000  Uiso   1.00
C1515  C     0.47883   0.86364   0.90790   0.00000  Uiso   1.00
C1516  C     0.58002   0.83266   0.75041   0.00000  Uiso   1.00
C1517  C     0.51545   0.79303   0.59266   0.00000  Uiso   1.00
C1518  C     0.50512   0.83382   0.61544   0.00000  Uiso   1.00
C1519  C     0.50364   0.83269   0.88372   0.00000  Uiso   1.00
C1520  C     0.51307   0.83465   0.52349   0.00000  Uiso   1.00
C1521  C     0.51100   0.83462   0.97534   0.00000  Uiso   1.00
C1522  C     0.62428   0.83134   0.75169   0.00000  Uiso   1.00
C1523  C     0.37572   0.83601   0.74760   0.00000  Uiso   1.00
C1524  C     0.44757   0.93066   0.60979   0.00000  Uiso   1.00
C1525  C     0.59703   0.75554   0.89605   0.00000  Uiso   1.00
C1526  C     0.46257   0.94050   0.88462   0.00000  Uiso   1.00
C1527  C     0.50098   0.83345   0.66365   0.00000  Uiso   1.00
C1528  C     0.49337   0.71816   0.61351   0.00000  Uiso   1.00
C1529  C     0.38751   0.80536   0.64789   0.00000  Uiso   1.00
C1530  C     0.61049   0.87032   0.84924   0.00000  Uiso   1.00
C1531  C     0.62093   0.72512   0.71404   0.00000  Uiso   1.00
C1532  C     0.37869   0.94358   0.77846   0.00000  Uiso   1.00
C1533  C     0.50058   0.83314   0.83600   0.00000  Uiso   1.00
C1534  C     0.52817   0.68967   0.77525   0.00000  Uiso   1.00
C1535  C     0.47171   0.97699   0.72497   0.00000  Uiso   1.00
C1536  C     0.47155   0.69167   0.72513   0.00000  Uiso   1.00
C1537  C     0.52816   0.97498   0.77528   0.00000  Uiso   1.00
C1538  C     0.35549   0.80521   0.71986   0.00000  Uiso   1.00
H1539  H     0.50447   0.90742   0.52818   0.00000  Uiso   1.00
H1540  H     0.43714   0.93405   0.57462   0.00000  Uiso   1.00
H1541  H     0.44237   0.96396   0.62620   0.00000  Uiso   1.00
H1542  H     0.42867   0.90508   0.62688   0.00000  Uiso   1.00
H1543  H     0.53830   0.74280   0.86947   0.00000  Uiso   1.00
H1544  H     0.59491   0.73071   0.92375   0.00000  Uiso   1.00
H1545  H     0.61475   0.78544   0.90698   0.00000  Uiso   1.00
H1546  H     0.61420   0.73888   0.86852   0.00000  Uiso   1.00
H1547  H     0.41993   0.89147   0.89892   0.00000  Uiso   1.00
H1548  H     0.46485   0.95477   0.91859   0.00000  Uiso   1.00
H1549  H     0.43939   0.96131   0.86529   0.00000  Uiso   1.00
H1550  H     0.55898   0.78283   0.96842   0.00000  Uiso   1.00
H1551  H     0.49325   0.94269   0.86822   0.00000  Uiso   1.00
H1552  H     0.55415   0.73794   0.60703   0.00000  Uiso   1.00
H1553  H     0.48869   0.70639   0.57890   0.00000  Uiso   1.00
H1554  H     0.46363   0.73257   0.62632   0.00000  Uiso   1.00
H1555  H     0.50290   0.68847   0.63447   0.00000  Uiso   1.00
H1556  H     0.36800   0.74785   0.68083   0.00000  Uiso   1.00
H1557  H     0.35814   0.81676   0.63089   0.00000  Uiso   1.00
H1558  H     0.40581   0.78371   0.62481   0.00000  Uiso   1.00
H1559  H     0.40610   0.83536   0.65629   0.00000  Uiso   1.00
H1560  H     0.63164   0.92422   0.81209   0.00000  Uiso   1.00
H1561  H     0.46061   0.88507   0.97221   0.00000  Uiso   1.00
H1562  H     0.63906   0.86233   0.86922   0.00000  Uiso   1.00
H1563  H     0.59375   0.83864   0.84268   0.00000  Uiso   1.00
H1564  H     0.58969   0.89351   0.86840   0.00000  Uiso   1.00
H1565  H     0.63235   0.77070   0.66291   0.00000  Uiso   1.00
H1566  H     0.65117   0.70616   0.71193   0.00000  Uiso   1.00
H1567  H     0.59713   0.70642   0.69503   0.00000  Uiso   1.00
H1568  H     0.61156   0.72629   0.74934   0.00000  Uiso   1.00
H1569  H     0.36679   0.90240   0.83297   0.00000  Uiso   1.00
H1570  H     0.34915   0.96376   0.78110   0.00000  Uiso   1.00
H1571  H     0.38597   0.93942   0.74278   0.00000  Uiso   1.00
H1572  H     0.52371   0.76205   0.52957   0.00000  Uiso   1.00
H1573  H     0.40393   0.96286   0.79434   0.00000  Uiso   1.00
H1574  H     0.55065   0.70712   0.79541   0.00000  Uiso   1.00
H1575  H     0.44912   0.95949   0.70509   0.00000  Uiso   1.00
H1576  H     0.44875   0.71070   0.70536   0.00000  Uiso   1.00
H1577  H     0.55057   0.95594   0.79554   0.00000  Uiso   1.00
H1578  H     0.50992   0.94348   0.60202   0.00000  Uiso   1.00
N1579  N     0.50000   0.95240   0.75000   0.00000  Uiso   1.00
N1580  N     0.37555   0.89979   0.80029   0.00000  Uiso   1.00
N1581  N     0.50000   0.71427   0.75000   0.00000  Uiso   1.00
N1582  N     0.49129   0.91757   0.61235   0.00000  Uiso   1.00
N1583  N     0.55577   0.76944   0.88049   0.00000  Uiso   1.00
N1584  N     0.44956   0.89383   0.88643   0.00000  Uiso   1.00
N1585  N     0.52543   0.75162   0.61553   0.00000  Uiso   1.00
N1586  N     0.37846   0.77983   0.68759   0.00000  Uiso   1.00
N1587  N     0.62120   0.89179   0.80790   0.00000  Uiso   1.00
N1588  N     0.62399   0.77056   0.69581   0.00000  Uiso   1.00
O1589  O     0.43892   0.87154   0.75000   0.00000  Uiso   1.00
O1590  O     0.56108   0.79513   0.75001   0.00000  Uiso   1.00
O1591  O     0.56108   0.87154   0.75001   0.00000  Uiso   1.00
O1592  O     0.43892   0.79513   0.75000   0.00000  Uiso   1.00
O1593  O     0.50000   0.87155   0.68453   0.00000  Uiso   1.00
O1594  O     0.50000   0.79511   0.81547   0.00000  Uiso   1.00
O1595  O     0.50000   0.87155   0.81547   0.00000  Uiso   1.00
O1596  O     0.50000   0.79511   0.68453   0.00000  Uiso   1.00
Zn1597 Zn    0.50000   0.88437   0.75000   0.00000  Uiso   1.00
Zn1598 Zn    0.50000   0.78229   0.75000   0.00000  Uiso   1.00
C1599  C     0.75331   0.83411   0.74947   0.00000  Uiso   1.00
C1600  C     0.97778   0.86329   0.77833   0.00000  Uiso   1.00
C1601  C     0.97928   0.80151   0.72317   0.00000  Uiso   1.00
C1602  C     0.68729   0.86669   0.77515   0.00000  Uiso   1.00
C1603  C     0.84013   0.87538   0.54607   0.00000  Uiso   1.00
C1604  C     0.86981   0.80474   0.95124   0.00000  Uiso   1.00
C1605  C     0.81499   0.86313   0.95367   0.00000  Uiso   1.00
C1606  C     0.85161   0.79381   0.54681   0.00000  Uiso   1.00
C1607  C     0.83445   0.87539   0.59149   0.00000  Uiso   1.00
C1608  C     0.86567   0.80241   0.90529   0.00000  Uiso   1.00
C1609  C     0.81217   0.86364   0.90790   0.00000  Uiso   1.00
C1610  C     0.91335   0.83266   0.75041   0.00000  Uiso   1.00
C1611  C     0.84879   0.79303   0.59266   0.00000  Uiso   1.00
C1612  C     0.83845   0.83382   0.61544   0.00000  Uiso   1.00
C1613  C     0.83698   0.83269   0.88372   0.00000  Uiso   1.00
C1614  C     0.84640   0.83465   0.52349   0.00000  Uiso   1.00
C1615  C     0.84433   0.83462   0.97534   0.00000  Uiso   1.00
C1616  C     0.95761   0.83134   0.75169   0.00000  Uiso   1.00
C1617  C     0.70905   0.83601   0.74760   0.00000  Uiso   1.00
C1618  C     0.78091   0.93066   0.60979   0.00000  Uiso   1.00
C1619  C     0.93036   0.75554   0.89605   0.00000  Uiso   1.00
C1620  C     0.79590   0.94050   0.88462   0.00000  Uiso   1.00
C1621  C     0.83431   0.83345   0.66365   0.00000  Uiso   1.00
C1622  C     0.82670   0.71816   0.61351   0.00000  Uiso   1.00
C1623  C     0.72084   0.80536   0.64789   0.00000  Uiso   1.00
C1624  C     0.94383   0.87032   0.84924   0.00000  Uiso   1.00
C1625  C     0.95426   0.72512   0.71404   0.00000  Uiso   1.00
C1626  C     0.71202   0.94358   0.77846   0.00000  Uiso   1.00
C1627  C     0.83391   0.83314   0.83600   0.00000  Uiso   1.00
C1628  C     0.86151   0.68967   0.77525   0.00000  Uiso   1.00
C1629  C     0.80504   0.97699   0.72497   0.00000  Uiso   1.00
C1630  C     0.80489   0.69167   0.72513   0.00000  Uiso   1.00
C1631  C     0.86149   0.97498   0.77528   0.00000  Uiso   1.00
C1632  C     0.68882   0.80521   0.71986   0.00000  Uiso   1.00
H1633  H     0.83780   0.90742   0.52818   0.00000  Uiso   1.00
H1634  H     0.77047   0.93405   0.57462   0.00000  Uiso   1.00
H1635  H     0.77570   0.96396   0.62620   0.00000  Uiso   1.00
H1636  H     0.76200   0.90508   0.62688   0.00000  Uiso   1.00
H1637  H     0.87164   0.74280   0.86947   0.00000  Uiso   1.00
H1638  H     0.92824   0.73071   0.92375   0.00000  Uiso   1.00
H1639  H     0.94808   0.78544   0.90698   0.00000  Uiso   1.00
H1640  H     0.94753   0.73888   0.86852   0.00000  Uiso   1.00
H1641  H     0.75327   0.89147   0.89892   0.00000  Uiso   1.00
H1642  H     0.79818   0.95477   0.91859   0.00000  Uiso   1.00
H1643  H     0.77273   0.96131   0.86529   0.00000  Uiso   1.00
H1644  H     0.89231   0.78283   0.96842   0.00000  Uiso   1.00
H1645  H     0.82658   0.94269   0.86822   0.00000  Uiso   1.00
H1646  H     0.88748   0.73794   0.60703   0.00000  Uiso   1.00
H1647  H     0.82202   0.70639   0.57890   0.00000  Uiso   1.00
H1648  H     0.79696   0.73257   0.62632   0.00000  Uiso   1.00
H1649  H     0.83624   0.68847   0.63447   0.00000  Uiso   1.00
H1650  H     0.70133   0.74785   0.68083   0.00000  Uiso   1.00
H1651  H     0.69148   0.81676   0.63089   0.00000  Uiso   1.00
H1652  H     0.73915   0.78371   0.62481   0.00000  Uiso   1.00
H1653  H     0.73944   0.83536   0.65629   0.00000  Uiso   1.00
H1654  H     0.96498   0.92422   0.81209   0.00000  Uiso   1.00
H1655  H     0.79395   0.88507   0.97221   0.00000  Uiso   1.00
H1656  H     0.97239   0.86233   0.86922   0.00000  Uiso   1.00
H1657  H     0.92709   0.83864   0.84268   0.00000  Uiso   1.00
H1658  H     0.92302   0.89351   0.86840   0.00000  Uiso   1.00
H1659  H     0.96569   0.77070   0.66291   0.00000  Uiso   1.00
H1660  H     0.98450   0.70616   0.71193   0.00000  Uiso   1.00
H1661  H     0.93047   0.70642   0.69503   0.00000  Uiso   1.00
H1662  H     0.94489   0.72629   0.74934   0.00000  Uiso   1.00
H1663  H     0.70012   0.90240   0.83297   0.00000  Uiso   1.00
H1664  H     0.68249   0.96376   0.78110   0.00000  Uiso   1.00
H1665  H     0.71930   0.93942   0.74278   0.00000  Uiso   1.00
H1666  H     0.85704   0.76205   0.52957   0.00000  Uiso   1.00
H1667  H     0.73727   0.96286   0.79434   0.00000  Uiso   1.00
H1668  H     0.88398   0.70712   0.79541   0.00000  Uiso   1.00
H1669  H     0.78246   0.95949   0.70509   0.00000  Uiso   1.00
H1670  H     0.78208   0.71070   0.70536   0.00000  Uiso   1.00
H1671  H     0.88390   0.95594   0.79554   0.00000  Uiso   1.00
H1672  H     0.84325   0.94348   0.60202   0.00000  Uiso   1.00
N1673  N     0.83333   0.95240   0.75000   0.00000  Uiso   1.00
N1674  N     0.70888   0.89979   0.80029   0.00000  Uiso   1.00
N1675  N     0.83333   0.71427   0.75000   0.00000  Uiso   1.00
N1676  N     0.82462   0.91757   0.61235   0.00000  Uiso   1.00
N1677  N     0.88910   0.76944   0.88049   0.00000  Uiso   1.00
N1678  N     0.78289   0.89383   0.88643   0.00000  Uiso   1.00
N1679  N     0.85876   0.75162   0.61553   0.00000  Uiso   1.00
N1680  N     0.71179   0.77983   0.68759   0.00000  Uiso   1.00
N1681  N     0.95453   0.89179   0.80790   0.00000  Uiso   1.00
N1682  N     0.95732   0.77056   0.69581   0.00000  Uiso   1.00
O1683  O     0.77226   0.87154   0.75000   0.00000  Uiso   1.00
O1684  O     0.89441   0.79513   0.75001   0.00000  Uiso   1.00
O1685  O     0.89441   0.87154   0.75001   0.00000  Uiso   1.00
O1686  O     0.77226   0.79513   0.75000   0.00000  Uiso   1.00
O1687  O     0.83333   0.87155   0.68453   0.00000  Uiso   1.00
O1688  O     0.83334   0.79511   0.81547   0.00000  Uiso   1.00
O1689  O     0.83334   0.87155   0.81547   0.00000  Uiso   1.00
O1690  O     0.83333   0.79511   0.68453   0.00000  Uiso   1.00
Zn1691 Zn    0.83333   0.88437   0.75000   0.00000  Uiso   1.00
Zn1692 Zn    0.83333   0.78229   0.75000   0.00000  Uiso   1.00
loop_
_geom_bond_atom_site_label_1
_geom_bond_atom_site_label_2
_geom_bond_distance
_geom_bond_site_symmetry_2
_ccdc_geom_bond_type
C1     O88     1.283   .     A
C1     O85     1.274   .     A
C1     C19     1.422   .     S
C2     C18     1.407   .     A
C2     N83     1.430   .     S
C2     C98     1.387   .     S
C3     C18     1.408   .     A
C3     N84     1.428   .     S
C3     C128    1.389   .     S
C4     C19     1.407   .     A
C4     N76     1.427   .     S
C4     C190    1.387   1_455 S
C5     C16     1.392   .     A
C5     C9      1.384   .     A
C5     H35     1.084   .     S
C6     C17     1.397   .     A
C6     H46     1.081   .     S
C6     C10     1.392   .     A
C7     C11     1.382   .     A
C7     C17     1.398   .     A
C7     H57     1.084   .     S
C8     C13     1.387   .     A
C8     C16     1.394   .     A
C8     H68     1.083   .     S
C9     C14     1.419   .     A
C9     N78     1.424   .     S
C10    C15     1.415   .     A
C10    N79     1.431   .     S
C11    C15     1.406   .     A
C11    N80     1.423   .     S
C12    O87     1.280   .     A
C12    O86     1.276   .     A
C12    C18     1.421   .     S
C13    N81     1.424   .     S
C13    C14     1.419   .     A
C14    C23     1.461   .     S
C15    C29     1.441   .     S
C16    C863    1.453   1_554 S
C17    C862    1.453   .     S
C19    C34     1.404   .     A
C20    H38     1.109   .     S
C20    N78     1.447   .     S
C20    H37     1.109   .     S
C20    H36     1.112   .     S
C21    N79     1.448   .     S
C21    H41     1.111   .     S
C21    H40     1.111   .     S
C21    H42     1.110   .     S
C22    H44     1.112   .     S
C22    H47     1.111   .     S
C22    N80     1.448   .     S
C22    H45     1.109   .     S
C23    O89     1.289   .     A
C23    O92     1.290   .     A
C24    N81     1.446   .     S
C24    H50     1.109   .     S
C24    H49     1.111   .     S
C24    H51     1.109   .     S
C25    H53     1.111   .     S
C25    H54     1.109   .     S
C25    N82     1.447   .     S
C25    H55     1.109   .     S
C26    N83     1.444   .     S
C26    H59     1.107   .     S
C26    H58     1.111   .     S
C26    H60     1.111   .     S
C27    N84     1.449   .     S
C27    H62     1.109   .     S
C27    H63     1.110   .     S
C27    H64     1.110   .     S
C28    H66     1.109   .     S
C28    H69     1.109   .     S
C28    H67     1.111   .     S
C28    N76     1.450   .     S
C29    O90     1.282   .     A
C29    O91     1.286   .     A
C30    N77     1.365   .     A
C30    H70     1.081   .     S
C30    C597    1.413   1_545 S
C31    H71     1.079   .     S
C31    N75     1.364   .     A
C31    C314    1.413   .     S
C32    H72     1.081   .     S
C32    N77     1.365   .     A
C32    C595    1.413   1_545 S
C33    N75     1.365   .     A
C33    H73     1.081   .     S
C33    C312    1.413   .     S
C34    N82     1.429   .     S
C34    C191    1.389   1_455 S
H39    N79     1.031   .     S
H43    N80     1.032   .     S
H48    N81     1.032   .     S
H52    N82     1.029   .     S
H56    N83     1.028   .     S
H61    N84     1.031   .     S
H65    N76     1.031   .     S
H74    N78     1.032   .     S
N75    Zn93    2.002   .     S
N77    Zn94    2.002   .     S
O85    Zn93    2.009   .     S
O86    Zn94    2.009   .     S
O87    Zn93    1.988   .     S
O88    Zn94    1.988   .     S
O89    Zn93    2.012   .     S
O90    Zn94    2.012   .     S
O91    Zn93    2.008   .     S
O92    Zn94    2.008   .     S
C95    O182    1.283   .     A
C95    O179    1.274   .     A
C95    C113    1.422   .     S
C96    C112    1.407   .     A
C96    N177    1.430   .     S
C96    C192    1.387   .     S
C97    C112    1.408   .     A
C97    N178    1.428   .     S
C97    C222    1.389   .     S
C98    C113    1.407   .     A
C98    N170    1.427   .     S
C99    C110    1.392   .     A
C99    C103    1.384   .     A
C99    H129    1.084   .     S
C100   C111    1.397   .     A
C100   H140    1.081   .     S
C100   C104    1.392   .     A
C101   C105    1.382   .     A
C101   C111    1.398   .     A
C101   H151    1.084   .     S
C102   C107    1.387   .     A
C102   C110    1.394   .     A
C102   H162    1.083   .     S
C103   C108    1.419   .     A
C103   N172    1.424   .     S
C104   C109    1.415   .     A
C104   N173    1.431   .     S
C105   C109    1.406   .     A
C105   N174    1.423   .     S
C106   O181    1.280   .     A
C106   O180    1.276   .     A
C106   C112    1.421   .     S
C107   N175    1.424   .     S
C107   C108    1.419   .     A
C108   C117    1.461   .     S
C109   C123    1.441   .     S
C110   C957    1.453   1_554 S
C111   C956    1.453   .     S
C113   C128    1.404   .     A
C114   H132    1.109   .     S
C114   N172    1.447   .     S
C114   H131    1.109   .     S
C114   H130    1.112   .     S
C115   N173    1.448   .     S
C115   H135    1.111   .     S
C115   H134    1.111   .     S
C115   H136    1.110   .     S
C116   H138    1.112   .     S
C116   H141    1.111   .     S
C116   N174    1.448   .     S
C116   H139    1.109   .     S
C117   O183    1.289   .     A
C117   O186    1.290   .     A
C118   N175    1.446   .     S
C118   H144    1.109   .     S
C118   H143    1.111   .     S
C118   H145    1.109   .     S
C119   H147    1.111   .     S
C119   H148    1.109   .     S
C119   N176    1.447   .     S
C119   H149    1.109   .     S
C120   N177    1.444   .     S
C120   H153    1.107   .     S
C120   H152    1.111   .     S
C120   H154    1.111   .     S
C121   N178    1.449   .     S
C121   H156    1.109   .     S
C121   H157    1.110   .     S
C121   H158    1.110   .     S
C122   H160    1.109   .     S
C122   H163    1.109   .     S
C122   H161    1.111   .     S
C122   N170    1.450   .     S
C123   O184    1.282   .     A
C123   O185    1.286   .     A
C124   N171    1.365   .     A
C124   H164    1.081   .     S
C124   C691    1.413   1_545 S
C125   H165    1.079   .     S
C125   N169    1.364   .     A
C125   C408    1.413   .     S
C126   H166    1.081   .     S
C126   N171    1.365   .     A
C126   C689    1.413   1_545 S
C127   N169    1.365   .     A
C127   H167    1.081   .     S
C127   C406    1.413   .     S
C128   N176    1.429   .     S
H133   N173    1.031   .     S
H137   N174    1.032   .     S
H142   N175    1.032   .     S
H146   N176    1.029   .     S
H150   N177    1.028   .     S
H155   N178    1.031   .     S
H159   N170    1.031   .     S
H168   N172    1.032   .     S
N169   Zn187   2.002   .     S
N171   Zn188   2.002   .     S
O179   Zn187   2.009   .     S
O180   Zn188   2.009   .     S
O181   Zn187   1.988   .     S
O182   Zn188   1.988   .     S
O183   Zn187   2.012   .     S
O184   Zn188   2.012   .     S
O185   Zn187   2.008   .     S
O186   Zn188   2.008   .     S
C189   O276    1.283   .     A
C189   O273    1.274   .     A
C189   C207    1.422   .     S
C190   C206    1.407   .     A
C190   N271    1.430   .     S
C190   C4      1.387   1_655 S
C191   C206    1.408   .     A
C191   N272    1.428   .     S
C191   C34     1.389   1_655 S
C192   C207    1.407   .     A
C192   N264    1.427   .     S
C193   C204    1.392   .     A
C193   C197    1.384   .     A
C193   H223    1.084   .     S
C194   C205    1.397   .     A
C194   H234    1.081   .     S
C194   C198    1.392   .     A
C195   C199    1.382   .     A
C195   C205    1.398   .     A
C195   H245    1.084   .     S
C196   C201    1.387   .     A
C196   C204    1.394   .     A
C196   H256    1.083   .     S
C197   C202    1.419   .     A
C197   N266    1.424   .     S
C198   C203    1.415   .     A
C198   N267    1.431   .     S
C199   C203    1.406   .     A
C199   N268    1.423   .     S
C200   O275    1.280   .     A
C200   O274    1.276   .     A
C200   C206    1.421   .     S
C201   N269    1.424   .     S
C201   C202    1.419   .     A
C202   C211    1.461   .     S
C203   C217    1.441   .     S
C204   C1051   1.453   1_554 S
C205   C1050   1.453   .     S
C207   C222    1.404   .     A
C208   H226    1.109   .     S
C208   N266    1.447   .     S
C208   H225    1.109   .     S
C208   H224    1.112   .     S
C209   N267    1.448   .     S
C209   H229    1.111   .     S
C209   H228    1.111   .     S
C209   H230    1.110   .     S
C210   H232    1.112   .     S
C210   H235    1.111   .     S
C210   N268    1.448   .     S
C210   H233    1.109   .     S
C211   O277    1.289   .     A
C211   O280    1.290   .     A
C212   N269    1.446   .     S
C212   H238    1.109   .     S
C212   H237    1.111   .     S
C212   H239    1.109   .     S
C213   H241    1.111   .     S
C213   H242    1.109   .     S
C213   N270    1.447   .     S
C213   H243    1.109   .     S
C214   N271    1.444   .     S
C214   H247    1.107   .     S
C214   H246    1.111   .     S
C214   H248    1.111   .     S
C215   N272    1.449   .     S
C215   H250    1.109   .     S
C215   H251    1.110   .     S
C215   H252    1.110   .     S
C216   H254    1.109   .     S
C216   H257    1.109   .     S
C216   H255    1.111   .     S
C216   N264    1.450   .     S
C217   O278    1.282   .     A
C217   O279    1.286   .     A
C218   N265    1.365   .     A
C218   H258    1.081   .     S
C218   C785    1.413   1_545 S
C219   H259    1.079   .     S
C219   N263    1.364   .     A
C219   C502    1.413   .     S
C220   H260    1.081   .     S
C220   N265    1.365   .     A
C220   C783    1.413   1_545 S
C221   N263    1.365   .     A
C221   H261    1.081   .     S
C221   C500    1.413   .     S
C222   N270    1.429   .     S
H227   N267    1.031   .     S
H231   N268    1.032   .     S
H236   N269    1.032   .     S
H240   N270    1.029   .     S
H244   N271    1.028   .     S
H249   N272    1.031   .     S
H253   N264    1.031   .     S
H262   N266    1.032   .     S
N263   Zn281   2.002   .     S
N265   Zn282   2.002   .     S
O273   Zn281   2.009   .     S
O274   Zn282   2.009   .     S
O275   Zn281   1.988   .     S
O276   Zn282   1.988   .     S
O277   Zn281   2.012   .     S
O278   Zn282   2.012   .     S
O279   Zn281   2.008   .     S
O280   Zn282   2.008   .     S
C283   O370    1.283   .     A
C283   O367    1.274   .     A
C283   C301    1.422   .     S
C284   C300    1.407   .     A
C284   N365    1.430   .     S
C284   C380    1.387   .     S
C285   C300    1.408   .     A
C285   N366    1.428   .     S
C285   C410    1.389   .     S
C286   C301    1.407   .     A
C286   N358    1.427   .     S
C286   C472    1.387   1_455 S
C287   C298    1.392   .     A
C287   C291    1.384   .     A
C287   H317    1.084   .     S
C288   C299    1.397   .     A
C288   H328    1.081   .     S
C288   C292    1.392   .     A
C289   C293    1.382   .     A
C289   C299    1.398   .     A
C289   H339    1.084   .     S
C290   C295    1.387   .     A
C290   C298    1.394   .     A
C290   H350    1.083   .     S
C291   C296    1.419   .     A
C291   N360    1.424   .     S
C292   C297    1.415   .     A
C292   N361    1.431   .     S
C293   C297    1.406   .     A
C293   N362    1.423   .     S
C294   O369    1.280   .     A
C294   O368    1.276   .     A
C294   C300    1.421   .     S
C295   N363    1.424   .     S
C295   C296    1.419   .     A
C296   C305    1.461   .     S
C297   C311    1.441   .     S
C298   C1145   1.453   1_554 S
C299   C1144   1.453   .     S
C301   C316    1.404   .     A
C302   H320    1.109   .     S
C302   N360    1.447   .     S
C302   H319    1.109   .     S
C302   H318    1.112   .     S
C303   N361    1.448   .     S
C303   H323    1.111   .     S
C303   H322    1.111   .     S
C303   H324    1.110   .     S
C304   H326    1.112   .     S
C304   H329    1.111   .     S
C304   N362    1.448   .     S
C304   H327    1.109   .     S
C305   O371    1.289   .     A
C305   O374    1.290   .     A
C306   N363    1.446   .     S
C306   H332    1.109   .     S
C306   H331    1.111   .     S
C306   H333    1.109   .     S
C307   H335    1.111   .     S
C307   H336    1.109   .     S
C307   N364    1.447   .     S
C307   H337    1.109   .     S
C308   N365    1.444   .     S
C308   H341    1.107   .     S
C308   H340    1.111   .     S
C308   H342    1.111   .     S
C309   N366    1.449   .     S
C309   H344    1.109   .     S
C309   H345    1.110   .     S
C309   H346    1.110   .     S
C310   H348    1.109   .     S
C310   H351    1.109   .     S
C310   H349    1.111   .     S
C310   N358    1.450   .     S
C311   O372    1.282   .     A
C311   O373    1.286   .     A
C312   N359    1.365   .     A
C312   H352    1.081   .     S
C313   H353    1.079   .     S
C313   N357    1.364   .     A
C313   C596    1.413   .     S
C314   H354    1.081   .     S
C314   N359    1.365   .     A
C315   N357    1.365   .     A
C315   H355    1.081   .     S
C315   C594    1.413   .     S
C316   N364    1.429   .     S
C316   C473    1.389   1_455 S
H321   N361    1.031   .     S
H325   N362    1.032   .     S
H330   N363    1.032   .     S
H334   N364    1.029   .     S
H338   N365    1.028   .     S
H343   N366    1.031   .     S
H347   N358    1.031   .     S
H356   N360    1.032   .     S
N357   Zn375   2.002   .     S
N359   Zn376   2.002   .     S
O367   Zn375   2.009   .     S
O368   Zn376   2.009   .     S
O369   Zn375   1.988   .     S
O370   Zn376   1.988   .     S
O371   Zn375   2.012   .     S
O372   Zn376   2.012   .     S
O373   Zn375   2.008   .     S
O374   Zn376   2.008   .     S
C377   O464    1.283   .     A
C377   O461    1.274   .     A
C377   C395    1.422   .     S
C378   C394    1.407   .     A
C378   N459    1.430   .     S
C378   C474    1.387   .     S
C379   C394    1.408   .     A
C379   N460    1.428   .     S
C379   C504    1.389   .     S
C380   C395    1.407   .     A
C380   N452    1.427   .     S
C381   C392    1.392   .     A
C381   C385    1.384   .     A
C381   H411    1.084   .     S
C382   C393    1.397   .     A
C382   H422    1.081   .     S
C382   C386    1.392   .     A
C383   C387    1.382   .     A
C383   C393    1.398   .     A
C383   H433    1.084   .     S
C384   C389    1.387   .     A
C384   C392    1.394   .     A
C384   H444    1.083   .     S
C385   C390    1.419   .     A
C385   N454    1.424   .     S
C386   C391    1.415   .     A
C386   N455    1.431   .     S
C387   C391    1.406   .     A
C387   N456    1.423   .     S
C388   O463    1.280   .     A
C388   O462    1.276   .     A
C388   C394    1.421   .     S
C389   N457    1.424   .     S
C389   C390    1.419   .     A
C390   C399    1.461   .     S
C391   C405    1.441   .     S
C392   C1239   1.453   1_554 S
C393   C1238   1.453   .     S
C395   C410    1.404   .     A
C396   H414    1.109   .     S
C396   N454    1.447   .     S
C396   H413    1.109   .     S
C396   H412    1.112   .     S
C397   N455    1.448   .     S
C397   H417    1.111   .     S
C397   H416    1.111   .     S
C397   H418    1.110   .     S
C398   H420    1.112   .     S
C398   H423    1.111   .     S
C398   N456    1.448   .     S
C398   H421    1.109   .     S
C399   O465    1.289   .     A
C399   O468    1.290   .     A
C400   N457    1.446   .     S
C400   H426    1.109   .     S
C400   H425    1.111   .     S
C400   H427    1.109   .     S
C401   H429    1.111   .     S
C401   H430    1.109   .     S
C401   N458    1.447   .     S
C401   H431    1.109   .     S
C402   N459    1.444   .     S
C402   H435    1.107   .     S
C402   H434    1.111   .     S
C402   H436    1.111   .     S
C403   N460    1.449   .     S
C403   H438    1.109   .     S
C403   H439    1.110   .     S
C403   H440    1.110   .     S
C404   H442    1.109   .     S
C404   H445    1.109   .     S
C404   H443    1.111   .     S
C404   N452    1.450   .     S
C405   O466    1.282   .     A
C405   O467    1.286   .     A
C406   N453    1.365   .     A
C406   H446    1.081   .     S
C407   H447    1.079   .     S
C407   N451    1.364   .     A
C407   C690    1.413   .     S
C408   H448    1.081   .     S
C408   N453    1.365   .     A
C409   N451    1.365   .     A
C409   H449    1.081   .     S
C409   C688    1.413   .     S
C410   N458    1.429   .     S
H415   N455    1.031   .     S
H419   N456    1.032   .     S
H424   N457    1.032   .     S
H428   N458    1.029   .     S
H432   N459    1.028   .     S
H437   N460    1.031   .     S
H441   N452    1.031   .     S
H450   N454    1.032   .     S
N451   Zn469   2.002   .     S
N453   Zn470   2.002   .     S
O461   Zn469   2.009   .     S
O462   Zn470   2.009   .     S
O463   Zn469   1.988   .     S
O464   Zn470   1.988   .     S
O465   Zn469   2.012   .     S
O466   Zn470   2.012   .     S
O467   Zn469   2.008   .     S
O468   Zn470   2.008   .     S
C471   O558    1.283   .     A
C471   O555    1.274   .     A
C471   C489    1.422   .     S
C472   C488    1.407   .     A
C472   N553    1.430   .     S
C472   C286    1.387   1_655 S
C473   C488    1.408   .     A
C473   N554    1.428   .     S
C473   C316    1.389   1_655 S
C474   C489    1.407   .     A
C474   N546    1.427   .     S
C475   C486    1.392   .     A
C475   C479    1.384   .     A
C475   H505    1.084   .     S
C476   C487    1.397   .     A
C476   H516    1.081   .     S
C476   C480    1.392   .     A
C477   C481    1.382   .     A
C477   C487    1.398   .     A
C477   H527    1.084   .     S
C478   C483    1.387   .     A
C478   C486    1.394   .     A
C478   H538    1.083   .     S
C479   C484    1.419   .     A
C479   N548    1.424   .     S
C480   C485    1.415   .     A
C480   N549    1.431   .     S
C481   C485    1.406   .     A
C481   N550    1.423   .     S
C482   O557    1.280   .     A
C482   O556    1.276   .     A
C482   C488    1.421   .     S
C483   N551    1.424   .     S
C483   C484    1.419   .     A
C484   C493    1.461   .     S
C485   C499    1.441   .     S
C486   C1333   1.453   1_554 S
C487   C1332   1.453   .     S
C489   C504    1.404   .     A
C490   H508    1.109   .     S
C490   N548    1.447   .     S
C490   H507    1.109   .     S
C490   H506    1.112   .     S
C491   N549    1.448   .     S
C491   H511    1.111   .     S
C491   H510    1.111   .     S
C491   H512    1.110   .     S
C492   H514    1.112   .     S
C492   H517    1.111   .     S
C492   N550    1.448   .     S
C492   H515    1.109   .     S
C493   O559    1.289   .     A
C493   O562    1.290   .     A
C494   N551    1.446   .     S
C494   H520    1.109   .     S
C494   H519    1.111   .     S
C494   H521    1.109   .     S
C495   H523    1.111   .     S
C495   H524    1.109   .     S
C495   N552    1.447   .     S
C495   H525    1.109   .     S
C496   N553    1.444   .     S
C496   H529    1.107   .     S
C496   H528    1.111   .     S
C496   H530    1.111   .     S
C497   N554    1.449   .     S
C497   H532    1.109   .     S
C497   H533    1.110   .     S
C497   H534    1.110   .     S
C498   H536    1.109   .     S
C498   H539    1.109   .     S
C498   H537    1.111   .     S
C498   N546    1.450   .     S
C499   O560    1.282   .     A
C499   O561    1.286   .     A
C500   N547    1.365   .     A
C500   H540    1.081   .     S
C501   H541    1.079   .     S
C501   N545    1.364   .     A
C501   C784    1.413   .     S
C502   H542    1.081   .     S
C502   N547    1.365   .     A
C503   N545    1.365   .     A
C503   H543    1.081   .     S
C503   C782    1.413   .     S
C504   N552    1.429   .     S
H509   N549    1.031   .     S
H513   N550    1.032   .     S
H518   N551    1.032   .     S
H522   N552    1.029   .     S
H526   N553    1.028   .     S
H531   N554    1.031   .     S
H535   N546    1.031   .     S
H544   N548    1.032   .     S
N545   Zn563   2.002   .     S
N547   Zn564   2.002   .     S
O555   Zn563   2.009   .     S
O556   Zn564   2.009   .     S
O557   Zn563   1.988   .     S
O558   Zn564   1.988   .     S
O559   Zn563   2.012   .     S
O560   Zn564   2.012   .     S
O561   Zn563   2.008   .     S
O562   Zn564   2.008   .     S
C565   O652    1.283   .     A
C565   O649    1.274   .     A
C565   C583    1.422   .     S
C566   C582    1.407   .     A
C566   N647    1.430   .     S
C566   C662    1.387   .     S
C567   C582    1.408   .     A
C567   N648    1.428   .     S
C567   C692    1.389   .     S
C568   C583    1.407   .     A
C568   N640    1.427   .     S
C568   C754    1.387   1_455 S
C569   C580    1.392   .     A
C569   C573    1.384   .     A
C569   H599    1.084   .     S
C570   C581    1.397   .     A
C570   H610    1.081   .     S
C570   C574    1.392   .     A
C571   C575    1.382   .     A
C571   C581    1.398   .     A
C571   H621    1.084   .     S
C572   C577    1.387   .     A
C572   C580    1.394   .     A
C572   H632    1.083   .     S
C573   C578    1.419   .     A
C573   N642    1.424   .     S
C574   C579    1.415   .     A
C574   N643    1.431   .     S
C575   C579    1.406   .     A
C575   N644    1.423   .     S
C576   O651    1.280   .     A
C576   O650    1.276   .     A
C576   C582    1.421   .     S
C577   N645    1.424   .     S
C577   C578    1.419   .     A
C578   C587    1.461   .     S
C579   C593    1.441   .     S
C580   C1427   1.453   1_554 S
C581   C1426   1.453   .     S
C583   C598    1.404   .     A
C584   H602    1.109   .     S
C584   N642    1.447   .     S
C584   H601    1.109   .     S
C584   H600    1.112   .     S
C585   N643    1.448   .     S
C585   H605    1.111   .     S
C585   H604    1.111   .     S
C585   H606    1.110   .     S
C586   H608    1.112   .     S
C586   H611    1.111   .     S
C586   N644    1.448   .     S
C586   H609    1.109   .     S
C587   O653    1.289   .     A
C587   O656    1.290   .     A
C588   N645    1.446   .     S
C588   H614    1.109   .     S
C588   H613    1.111   .     S
C588   H615    1.109   .     S
C589   H617    1.111   .     S
C589   H618    1.109   .     S
C589   N646    1.447   .     S
C589   H619    1.109   .     S
C590   N647    1.444   .     S
C590   H623    1.107   .     S
C590   H622    1.111   .     S
C590   H624    1.111   .     S
C591   N648    1.449   .     S
C591   H626    1.109   .     S
C591   H627    1.110   .     S
C591   H628    1.110   .     S
C592   H630    1.109   .     S
C592   H633    1.109   .     S
C592   H631    1.111   .     S
C592   N640    1.450   .     S
C593   O654    1.282   .     A
C593   O655    1.286   .     A
C594   N641    1.365   .     A
C594   H634    1.081   .     S
C595   H635    1.079   .     S
C595   N639    1.364   .     A
C595   C32     1.413   1_565 S
C596   H636    1.081   .     S
C596   N641    1.365   .     A
C597   N639    1.365   .     A
C597   H637    1.081   .     S
C597   C30     1.413   1_565 S
C598   N646    1.429   .     S
C598   C755    1.389   1_455 S
H603   N643    1.031   .     S
H607   N644    1.032   .     S
H612   N645    1.032   .     S
H616   N646    1.029   .     S
H620   N647    1.028   .     S
H625   N648    1.031   .     S
H629   N640    1.031   .     S
H638   N642    1.032   .     S
N639   Zn657   2.002   .     S
N641   Zn658   2.002   .     S
O649   Zn657   2.009   .     S
O650   Zn658   2.009   .     S
O651   Zn657   1.988   .     S
O652   Zn658   1.988   .     S
O653   Zn657   2.012   .     S
O654   Zn658   2.012   .     S
O655   Zn657   2.008   .     S
O656   Zn658   2.008   .     S
C659   O746    1.283   .     A
C659   O743    1.274   .     A
C659   C677    1.422   .     S
C660   C676    1.407   .     A
C660   N741    1.430   .     S
C660   C756    1.387   .     S
C661   C676    1.408   .     A
C661   N742    1.428   .     S
C661   C786    1.389   .     S
C662   C677    1.407   .     A
C662   N734    1.427   .     S
C663   C674    1.392   .     A
C663   C667    1.384   .     A
C663   H693    1.084   .     S
C664   C675    1.397   .     A
C664   H704    1.081   .     S
C664   C668    1.392   .     A
C665   C669    1.382   .     A
C665   C675    1.398   .     A
C665   H715    1.084   .     S
C666   C671    1.387   .     A
C666   C674    1.394   .     A
C666   H726    1.083   .     S
C667   C672    1.419   .     A
C667   N736    1.424   .     S
C668   C673    1.415   .     A
C668   N737    1.431   .     S
C669   C673    1.406   .     A
C669   N738    1.423   .     S
C670   O745    1.280   .     A
C670   O744    1.276   .     A
C670   C676    1.421   .     S
C671   N739    1.424   .     S
C671   C672    1.419   .     A
C672   C681    1.461   .     S
C673   C687    1.441   .     S
C674   C1521   1.453   1_554 S
C675   C1520   1.453   .     S
C677   C692    1.404   .     A
C678   H696    1.109   .     S
C678   N736    1.447   .     S
C678   H695    1.109   .     S
C678   H694    1.112   .     S
C679   N737    1.448   .     S
C679   H699    1.111   .     S
C679   H698    1.111   .     S
C679   H700    1.110   .     S
C680   H702    1.112   .     S
C680   H705    1.111   .     S
C680   N738    1.448   .     S
C680   H703    1.109   .     S
C681   O747    1.289   .     A
C681   O750    1.290   .     A
C682   N739    1.446   .     S
C682   H708    1.109   .     S
C682   H707    1.111   .     S
C682   H709    1.109   .     S
C683   H711    1.111   .     S
C683   H712    1.109   .     S
C683   N740    1.447   .     S
C683   H713    1.109   .     S
C684   N741    1.444   .     S
C684   H717    1.107   .     S
C684   H716    1.111   .     S
C684   H718    1.111   .     S
C685   N742    1.449   .     S
C685   H720    1.109   .     S
C685   H721    1.110   .     S
C685   H722    1.110   .     S
C686   H724    1.109   .     S
C686   H727    1.109   .     S
C686   H725    1.111   .     S
C686   N734    1.450   .     S
C687   O748    1.282   .     A
C687   O749    1.286   .     A
C688   N735    1.365   .     A
C688   H728    1.081   .     S
C689   H729    1.079   .     S
C689   N733    1.364   .     A
C689   C126    1.413   1_565 S
C690   H730    1.081   .     S
C690   N735    1.365   .     A
C691   N733    1.365   .     A
C691   H731    1.081   .     S
C691   C124    1.413   1_565 S
C692   N740    1.429   .     S
H697   N737    1.031   .     S
H701   N738    1.032   .     S
H706   N739    1.032   .     S
H710   N740    1.029   .     S
H714   N741    1.028   .     S
H719   N742    1.031   .     S
H723   N734    1.031   .     S
H732   N736    1.032   .     S
N733   Zn751   2.002   .     S
N735   Zn752   2.002   .     S
O743   Zn751   2.009   .     S
O744   Zn752   2.009   .     S
O745   Zn751   1.988   .     S
O746   Zn752   1.988   .     S
O747   Zn751   2.012   .     S
O748   Zn752   2.012   .     S
O749   Zn751   2.008   .     S
O750   Zn752   2.008   .     S
C753   O840    1.283   .     A
C753   O837    1.274   .     A
C753   C771    1.422   .     S
C754   C770    1.407   .     A
C754   N835    1.430   .     S
C754   C568    1.387   1_655 S
C755   C770    1.408   .     A
C755   N836    1.428   .     S
C755   C598    1.389   1_655 S
C756   C771    1.407   .     A
C756   N828    1.427   .     S
C757   C768    1.392   .     A
C757   C761    1.384   .     A
C757   H787    1.084   .     S
C758   C769    1.397   .     A
C758   H798    1.081   .     S
C758   C762    1.392   .     A
C759   C763    1.382   .     A
C759   C769    1.398   .     A
C759   H809    1.084   .     S
C760   C765    1.387   .     A
C760   C768    1.394   .     A
C760   H820    1.083   .     S
C761   C766    1.419   .     A
C761   N830    1.424   .     S
C762   C767    1.415   .     A
C762   N831    1.431   .     S
C763   C767    1.406   .     A
C763   N832    1.423   .     S
C764   O839    1.280   .     A
C764   O838    1.276   .     A
C764   C770    1.421   .     S
C765   N833    1.424   .     S
C765   C766    1.419   .     A
C766   C775    1.461   .     S
C767   C781    1.441   .     S
C768   C1615   1.453   1_554 S
C769   C1614   1.453   .     S
C771   C786    1.404   .     A
C772   H790    1.109   .     S
C772   N830    1.447   .     S
C772   H789    1.109   .     S
C772   H788    1.112   .     S
C773   N831    1.448   .     S
C773   H793    1.111   .     S
C773   H792    1.111   .     S
C773   H794    1.110   .     S
C774   H796    1.112   .     S
C774   H799    1.111   .     S
C774   N832    1.448   .     S
C774   H797    1.109   .     S
C775   O841    1.289   .     A
C775   O844    1.290   .     A
C776   N833    1.446   .     S
C776   H802    1.109   .     S
C776   H801    1.111   .     S
C776   H803    1.109   .     S
C777   H805    1.111   .     S
C777   H806    1.109   .     S
C777   N834    1.447   .     S
C777   H807    1.109   .     S
C778   N835    1.444   .     S
C778   H811    1.107   .     S
C778   H810    1.111   .     S
C778   H812    1.111   .     S
C779   N836    1.449   .     S
C779   H814    1.109   .     S
C779   H815    1.110   .     S
C779   H816    1.110   .     S
C780   H818    1.109   .     S
C780   H821    1.109   .     S
C780   H819    1.111   .     S
C780   N828    1.450   .     S
C781   O842    1.282   .     A
C781   O843    1.286   .     A
C782   N829    1.365   .     A
C782   H822    1.081   .     S
C783   H823    1.079   .     S
C783   N827    1.364   .     A
C783   C220    1.413   1_565 S
C784   H824    1.081   .     S
C784   N829    1.365   .     A
C785   N827    1.365   .     A
C785   H825    1.081   .     S
C785   C218    1.413   1_565 S
C786   N834    1.429   .     S
H791   N831    1.031   .     S
H795   N832    1.032   .     S
H800   N833    1.032   .     S
H804   N834    1.029   .     S
H808   N835    1.028   .     S
H813   N836    1.031   .     S
H817   N828    1.031   .     S
H826   N830    1.032   .     S
N827   Zn845   2.002   .     S
N829   Zn846   2.002   .     S
O837   Zn845   2.009   .     S
O838   Zn846   2.009   .     S
O839   Zn845   1.988   .     S
O840   Zn846   1.988   .     S
O841   Zn845   2.012   .     S
O842   Zn846   2.012   .     S
O843   Zn845   2.008   .     S
O844   Zn846   2.008   .     S
C847   O934    1.283   .     A
C847   O931    1.274   .     A
C847   C865    1.422   .     S
C848   C864    1.407   .     A
C848   N929    1.430   .     S
C848   C944    1.387   .     S
C849   C864    1.408   .     A
C849   N930    1.428   .     S
C849   C974    1.389   .     S
C850   C865    1.407   .     A
C850   N922    1.427   .     S
C850   C1036   1.387   1_455 S
C851   C862    1.392   .     A
C851   C855    1.384   .     A
C851   H881    1.084   .     S
C852   C863    1.397   .     A
C852   H892    1.081   .     S
C852   C856    1.392   .     A
C853   C857    1.382   .     A
C853   C863    1.398   .     A
C853   H903    1.084   .     S
C854   C859    1.387   .     A
C854   C862    1.394   .     A
C854   H914    1.083   .     S
C855   C860    1.419   .     A
C855   N924    1.424   .     S
C856   C861    1.415   .     A
C856   N925    1.431   .     S
C857   C861    1.406   .     A
C857   N926    1.423   .     S
C858   O933    1.280   .     A
C858   O932    1.276   .     A
C858   C864    1.421   .     S
C859   N927    1.424   .     S
C859   C860    1.419   .     A
C860   C869    1.461   .     S
C861   C875    1.441   .     S
C863   C16     1.453   1_556 S
C865   C880    1.404   .     A
C866   H884    1.109   .     S
C866   N924    1.447   .     S
C866   H883    1.109   .     S
C866   H882    1.112   .     S
C867   N925    1.448   .     S
C867   H887    1.111   .     S
C867   H886    1.111   .     S
C867   H888    1.110   .     S
C868   H890    1.112   .     S
C868   H893    1.111   .     S
C868   N926    1.448   .     S
C868   H891    1.109   .     S
C869   O935    1.289   .     A
C869   O938    1.290   .     A
C870   N927    1.446   .     S
C870   H896    1.109   .     S
C870   H895    1.111   .     S
C870   H897    1.109   .     S
C871   H899    1.111   .     S
C871   H900    1.109   .     S
C871   N928    1.447   .     S
C871   H901    1.109   .     S
C872   N929    1.444   .     S
C872   H905    1.107   .     S
C872   H904    1.111   .     S
C872   H906    1.111   .     S
C873   N930    1.449   .     S
C873   H908    1.109   .     S
C873   H909    1.110   .     S
C873   H910    1.110   .     S
C874   H912    1.109   .     S
C874   H915    1.109   .     S
C874   H913    1.111   .     S
C874   N922    1.450   .     S
C875   O936    1.282   .     A
C875   O937    1.286   .     A
C876   N923    1.365   .     A
C876   H916    1.081   .     S
C876   C1443   1.413   1_545 S
C877   H917    1.079   .     S
C877   N921    1.364   .     A
C877   C1160   1.413   .     S
C878   H918    1.081   .     S
C878   N923    1.365   .     A
C878   C1441   1.413   1_545 S
C879   N921    1.365   .     A
C879   H919    1.081   .     S
C879   C1158   1.413   .     S
C880   N928    1.429   .     S
C880   C1037   1.389   1_455 S
H885   N925    1.031   .     S
H889   N926    1.032   .     S
H894   N927    1.032   .     S
H898   N928    1.029   .     S
H902   N929    1.028   .     S
H907   N930    1.031   .     S
H911   N922    1.031   .     S
H920   N924    1.032   .     S
N921   Zn939   2.002   .     S
N923   Zn940   2.002   .     S
O931   Zn939   2.009   .     S
O932   Zn940   2.009   .     S
O933   Zn939   1.988   .     S
O934   Zn940   1.988   .     S
O935   Zn939   2.012   .     S
O936   Zn940   2.012   .     S
O937   Zn939   2.008   .     S
O938   Zn940   2.008   .     S
C941   O1028   1.283   .     A
C941   O1025   1.274   .     A
C941   C959    1.422   .     S
C942   C958    1.407   .     A
C942   N1023   1.430   .     S
C942   C1038   1.387   .     S
C943   C958    1.408   .     A
C943   N1024   1.428   .     S
C943   C1068   1.389   .     S
C944   C959    1.407   .     A
C944   N1016   1.427   .     S
C945   C956    1.392   .     A
C945   C949    1.384   .     A
C945   H975    1.084   .     S
C946   C957    1.397   .     A
C946   H986    1.081   .     S
C946   C950    1.392   .     A
C947   C951    1.382   .     A
C947   C957    1.398   .     A
C947   H997    1.084   .     S
C948   C953    1.387   .     A
C948   C956    1.394   .     A
C948   H1008   1.083   .     S
C949   C954    1.419   .     A
C949   N1018   1.424   .     S
C950   C955    1.415   .     A
C950   N1019   1.431   .     S
C951   C955    1.406   .     A
C951   N1020   1.423   .     S
C952   O1027   1.280   .     A
C952   O1026   1.276   .     A
C952   C958    1.421   .     S
C953   N1021   1.424   .     S
C953   C954    1.419   .     A
C954   C963    1.461   .     S
C955   C969    1.441   .     S
C957   C110    1.453   1_556 S
C959   C974    1.404   .     A
C960   H978    1.109   .     S
C960   N1018   1.447   .     S
C960   H977    1.109   .     S
C960   H976    1.112   .     S
C961   N1019   1.448   .     S
C961   H981    1.111   .     S
C961   H980    1.111   .     S
C961   H982    1.110   .     S
C962   H984    1.112   .     S
C962   H987    1.111   .     S
C962   N1020   1.448   .     S
C962   H985    1.109   .     S
C963   O1029   1.289   .     A
C963   O1032   1.290   .     A
C964   N1021   1.446   .     S
C964   H990    1.109   .     S
C964   H989    1.111   .     S
C964   H991    1.109   .     S
C965   H993    1.111   .     S
C965   H994    1.109   .     S
C965   N1022   1.447   .     S
C965   H995    1.109   .     S
C966   N1023   1.444   .     S
C966   H999    1.107   .     S
C966   H998    1.111   .     S
C966   H1000   1.111   .     S
C967   N1024   1.449   .     S
C967   H1002   1.109   .     S
C967   H1003   1.110   .     S
C967   H1004   1.110   .     S
C968   H1006   1.109   .     S
C968   H1009   1.109   .     S
C968   H1007   1.111   .     S
C968   N1016   1.450   .     S
C969   O1030   1.282   .     A
C969   O1031   1.286   .     A
C970   N1017   1.365   .     A
C970   H1010   1.081   .     S
C970   C1537   1.413   1_545 S
C971   H1011   1.079   .     S
C971   N1015   1.364   .     A
C971   C1254   1.413   .     S
C972   H1012   1.081   .     S
C972   N1017   1.365   .     A
C972   C1535   1.413   1_545 S
C973   N1015   1.365   .     A
C973   H1013   1.081   .     S
C973   C1252   1.413   .     S
C974   N1022   1.429   .     S
H979   N1019   1.031   .     S
H983   N1020   1.032   .     S
H988   N1021   1.032   .     S
H992   N1022   1.029   .     S
H996   N1023   1.028   .     S
H1001  N1024   1.031   .     S
H1005  N1016   1.031   .     S
H1014  N1018   1.032   .     S
N1015  Zn1033  2.002   .     S
N1017  Zn1034  2.002   .     S
O1025  Zn1033  2.009   .     S
O1026  Zn1034  2.009   .     S
O1027  Zn1033  1.988   .     S
O1028  Zn1034  1.988   .     S
O1029  Zn1033  2.012   .     S
O1030  Zn1034  2.012   .     S
O1031  Zn1033  2.008   .     S
O1032  Zn1034  2.008   .     S
C1035  O1122   1.283   .     A
C1035  O1119   1.274   .     A
C1035  C1053   1.422   .     S
C1036  C1052   1.407   .     A
C1036  N1117   1.430   .     S
C1036  C850    1.387   1_655 S
C1037  C1052   1.408   .     A
C1037  N1118   1.428   .     S
C1037  C880    1.389   1_655 S
C1038  C1053   1.407   .     A
C1038  N1110   1.427   .     S
C1039  C1050   1.392   .     A
C1039  C1043   1.384   .     A
C1039  H1069   1.084   .     S
C1040  C1051   1.397   .     A
C1040  H1080   1.081   .     S
C1040  C1044   1.392   .     A
C1041  C1045   1.382   .     A
C1041  C1051   1.398   .     A
C1041  H1091   1.084   .     S
C1042  C1047   1.387   .     A
C1042  C1050   1.394   .     A
C1042  H1102   1.083   .     S
C1043  C1048   1.419   .     A
C1043  N1112   1.424   .     S
C1044  C1049   1.415   .     A
C1044  N1113   1.431   .     S
C1045  C1049   1.406   .     A
C1045  N1114   1.423   .     S
C1046  O1121   1.280   .     A
C1046  O1120   1.276   .     A
C1046  C1052   1.421   .     S
C1047  N1115   1.424   .     S
C1047  C1048   1.419   .     A
C1048  C1057   1.461   .     S
C1049  C1063   1.441   .     S
C1051  C204    1.453   1_556 S
C1053  C1068   1.404   .     A
C1054  H1072   1.109   .     S
C1054  N1112   1.447   .     S
C1054  H1071   1.109   .     S
C1054  H1070   1.112   .     S
C1055  N1113   1.448   .     S
C1055  H1075   1.111   .     S
C1055  H1074   1.111   .     S
C1055  H1076   1.110   .     S
C1056  H1078   1.112   .     S
C1056  H1081   1.111   .     S
C1056  N1114   1.448   .     S
C1056  H1079   1.109   .     S
C1057  O1123   1.289   .     A
C1057  O1126   1.290   .     A
C1058  N1115   1.446   .     S
C1058  H1084   1.109   .     S
C1058  H1083   1.111   .     S
C1058  H1085   1.109   .     S
C1059  H1087   1.111   .     S
C1059  H1088   1.109   .     S
C1059  N1116   1.447   .     S
C1059  H1089   1.109   .     S
C1060  N1117   1.444   .     S
C1060  H1093   1.107   .     S
C1060  H1092   1.111   .     S
C1060  H1094   1.111   .     S
C1061  N1118   1.449   .     S
C1061  H1096   1.109   .     S
C1061  H1097   1.110   .     S
C1061  H1098   1.110   .     S
C1062  H1100   1.109   .     S
C1062  H1103   1.109   .     S
C1062  H1101   1.111   .     S
C1062  N1110   1.450   .     S
C1063  O1124   1.282   .     A
C1063  O1125   1.286   .     A
C1064  N1111   1.365   .     A
C1064  H1104   1.081   .     S
C1064  C1631   1.413   1_545 S
C1065  H1105   1.079   .     S
C1065  N1109   1.364   .     A
C1065  C1348   1.413   .     S
C1066  H1106   1.081   .     S
C1066  N1111   1.365   .     A
C1066  C1629   1.413   1_545 S
C1067  N1109   1.365   .     A
C1067  H1107   1.081   .     S
C1067  C1346   1.413   .     S
C1068  N1116   1.429   .     S
H1073  N1113   1.031   .     S
H1077  N1114   1.032   .     S
H1082  N1115   1.032   .     S
H1086  N1116   1.029   .     S
H1090  N1117   1.028   .     S
H1095  N1118   1.031   .     S
H1099  N1110   1.031   .     S
H1108  N1112   1.032   .     S
N1109  Zn1127  2.002   .     S
N1111  Zn1128  2.002   .     S
O1119  Zn1127  2.009   .     S
O1120  Zn1128  2.009   .     S
O1121  Zn1127  1.988   .     S
O1122  Zn1128  1.988   .     S
O1123  Zn1127  2.012   .     S
O1124  Zn1128  2.012   .     S
O1125  Zn1127  2.008   .     S
O1126  Zn1128  2.008   .     S
C1129  O1216   1.283   .     A
C1129  O1213   1.274   .     A
C1129  C1147   1.422   .     S
C1130  C1146   1.407   .     A
C1130  N1211   1.430   .     S
C1130  C1226   1.387   .     S
C1131  C1146   1.408   .     A
C1131  N1212   1.428   .     S
C1131  C1256   1.389   .     S
C1132  C1147   1.407   .     A
C1132  N1204   1.427   .     S
C1132  C1318   1.387   1_455 S
C1133  C1144   1.392   .     A
C1133  C1137   1.384   .     A
C1133  H1163   1.084   .     S
C1134  C1145   1.397   .     A
C1134  H1174   1.081   .     S
C1134  C1138   1.392   .     A
C1135  C1139   1.382   .     A
C1135  C1145   1.398   .     A
C1135  H1185   1.084   .     S
C1136  C1141   1.387   .     A
C1136  C1144   1.394   .     A
C1136  H1196   1.083   .     S
C1137  C1142   1.419   .     A
C1137  N1206   1.424   .     S
C1138  C1143   1.415   .     A
C1138  N1207   1.431   .     S
C1139  C1143   1.406   .     A
C1139  N1208   1.423   .     S
C1140  O1215   1.280   .     A
C1140  O1214   1.276   .     A
C1140  C1146   1.421   .     S
C1141  N1209   1.424   .     S
C1141  C1142   1.419   .     A
C1142  C1151   1.461   .     S
C1143  C1157   1.441   .     S
C1145  C298    1.453   1_556 S
C1147  C1162   1.404   .     A
C1148  H1166   1.109   .     S
C1148  N1206   1.447   .     S
C1148  H1165   1.109   .     S
C1148  H1164   1.112   .     S
C1149  N1207   1.448   .     S
C1149  H1169   1.111   .     S
C1149  H1168   1.111   .     S
C1149  H1170   1.110   .     S
C1150  H1172   1.112   .     S
C1150  H1175   1.111   .     S
C1150  N1208   1.448   .     S
C1150  H1173   1.109   .     S
C1151  O1217   1.289   .     A
C1151  O1220   1.290   .     A
C1152  N1209   1.446   .     S
C1152  H1178   1.109   .     S
C1152  H1177   1.111   .     S
C1152  H1179   1.109   .     S
C1153  H1181   1.111   .     S
C1153  H1182   1.109   .     S
C1153  N1210   1.447   .     S
C1153  H1183   1.109   .     S
C1154  N1211   1.444   .     S
C1154  H1187   1.107   .     S
C1154  H1186   1.111   .     S
C1154  H1188   1.111   .     S
C1155  N1212   1.449   .     S
C1155  H1190   1.109   .     S
C1155  H1191   1.110   .     S
C1155  H1192   1.110   .     S
C1156  H1194   1.109   .     S
C1156  H1197   1.109   .     S
C1156  H1195   1.111   .     S
C1156  N1204   1.450   .     S
C1157  O1218   1.282   .     A
C1157  O1219   1.286   .     A
C1158  N1205   1.365   .     A
C1158  H1198   1.081   .     S
C1159  H1199   1.079   .     S
C1159  N1203   1.364   .     A
C1159  C1442   1.413   .     S
C1160  H1200   1.081   .     S
C1160  N1205   1.365   .     A
C1161  N1203   1.365   .     A
C1161  H1201   1.081   .     S
C1161  C1440   1.413   .     S
C1162  N1210   1.429   .     S
C1162  C1319   1.389   1_455 S
H1167  N1207   1.031   .     S
H1171  N1208   1.032   .     S
H1176  N1209   1.032   .     S
H1180  N1210   1.029   .     S
H1184  N1211   1.028   .     S
H1189  N1212   1.031   .     S
H1193  N1204   1.031   .     S
H1202  N1206   1.032   .     S
N1203  Zn1221  2.002   .     S
N1205  Zn1222  2.002   .     S
O1213  Zn1221  2.009   .     S
O1214  Zn1222  2.009   .     S
O1215  Zn1221  1.988   .     S
O1216  Zn1222  1.988   .     S
O1217  Zn1221  2.012   .     S
O1218  Zn1222  2.012   .     S
O1219  Zn1221  2.008   .     S
O1220  Zn1222  2.008   .     S
C1223  O1310   1.283   .     A
C1223  O1307   1.274   .     A
C1223  C1241   1.422   .     S
C1224  C1240   1.407   .     A
C1224  N1305   1.430   .     S
C1224  C1320   1.387   .     S
C1225  C1240   1.408   .     A
C1225  N1306   1.428   .     S
C1225  C1350   1.389   .     S
C1226  C1241   1.407   .     A
C1226  N1298   1.427   .     S
C1227  C1238   1.392   .     A
C1227  C1231   1.384   .     A
C1227  H1257   1.084   .     S
C1228  C1239   1.397   .     A
C1228  H1268   1.081   .     S
C1228  C1232   1.392   .     A
C1229  C1233   1.382   .     A
C1229  C1239   1.398   .     A
C1229  H1279   1.084   .     S
C1230  C1235   1.387   .     A
C1230  C1238   1.394   .     A
C1230  H1290   1.083   .     S
C1231  C1236   1.419   .     A
C1231  N1300   1.424   .     S
C1232  C1237   1.415   .     A
C1232  N1301   1.431   .     S
C1233  C1237   1.406   .     A
C1233  N1302   1.423   .     S
C1234  O1309   1.280   .     A
C1234  O1308   1.276   .     A
C1234  C1240   1.421   .     S
C1235  N1303   1.424   .     S
C1235  C1236   1.419   .     A
C1236  C1245   1.461   .     S
C1237  C1251   1.441   .     S
C1239  C392    1.453   1_556 S
C1241  C1256   1.404   .     A
C1242  H1260   1.109   .     S
C1242  N1300   1.447   .     S
C1242  H1259   1.109   .     S
C1242  H1258   1.112   .     S
C1243  N1301   1.448   .     S
C1243  H1263   1.111   .     S
C1243  H1262   1.111   .     S
C1243  H1264   1.110   .     S
C1244  H1266   1.112   .     S
C1244  H1269   1.111   .     S
C1244  N1302   1.448   .     S
C1244  H1267   1.109   .     S
C1245  O1311   1.289   .     A
C1245  O1314   1.290   .     A
C1246  N1303   1.446   .     S
C1246  H1272   1.109   .     S
C1246  H1271   1.111   .     S
C1246  H1273   1.109   .     S
C1247  H1275   1.111   .     S
C1247  H1276   1.109   .     S
C1247  N1304   1.447   .     S
C1247  H1277   1.109   .     S
C1248  N1305   1.444   .     S
C1248  H1281   1.107   .     S
C1248  H1280   1.111   .     S
C1248  H1282   1.111   .     S
C1249  N1306   1.449   .     S
C1249  H1284   1.109   .     S
C1249  H1285   1.110   .     S
C1249  H1286   1.110   .     S
C1250  H1288   1.109   .     S
C1250  H1291   1.109   .     S
C1250  H1289   1.111   .     S
C1250  N1298   1.450   .     S
C1251  O1312   1.282   .     A
C1251  O1313   1.286   .     A
C1252  N1299   1.365   .     A
C1252  H1292   1.081   .     S
C1253  H1293   1.079   .     S
C1253  N1297   1.364   .     A
C1253  C1536   1.413   .     S
C1254  H1294   1.081   .     S
C1254  N1299   1.365   .     A
C1255  N1297   1.365   .     A
C1255  H1295   1.081   .     S
C1255  C1534   1.413   .     S
C1256  N1304   1.429   .     S
H1261  N1301   1.031   .     S
H1265  N1302   1.032   .     S
H1270  N1303   1.032   .     S
H1274  N1304   1.029   .     S
H1278  N1305   1.028   .     S
H1283  N1306   1.031   .     S
H1287  N1298   1.031   .     S
H1296  N1300   1.032   .     S
N1297  Zn1315  2.002   .     S
N1299  Zn1316  2.002   .     S
O1307  Zn1315  2.009   .     S
O1308  Zn1316  2.009   .     S
O1309  Zn1315  1.988   .     S
O1310  Zn1316  1.988   .     S
O1311  Zn1315  2.012   .     S
O1312  Zn1316  2.012   .     S
O1313  Zn1315  2.008   .     S
O1314  Zn1316  2.008   .     S
C1317  O1404   1.283   .     A
C1317  O1401   1.274   .     A
C1317  C1335   1.422   .     S
C1318  C1334   1.407   .     A
C1318  N1399   1.430   .     S
C1318  C1132   1.387   1_655 S
C1319  C1334   1.408   .     A
C1319  N1400   1.428   .     S
C1319  C1162   1.389   1_655 S
C1320  C1335   1.407   .     A
C1320  N1392   1.427   .     S
C1321  C1332   1.392   .     A
C1321  C1325   1.384   .     A
C1321  H1351   1.084   .     S
C1322  C1333   1.397   .     A
C1322  H1362   1.081   .     S
C1322  C1326   1.392   .     A
C1323  C1327   1.382   .     A
C1323  C1333   1.398   .     A
C1323  H1373   1.084   .     S
C1324  C1329   1.387   .     A
C1324  C1332   1.394   .     A
C1324  H1384   1.083   .     S
C1325  C1330   1.419   .     A
C1325  N1394   1.424   .     S
C1326  C1331   1.415   .     A
C1326  N1395   1.431   .     S
C1327  C1331   1.406   .     A
C1327  N1396   1.423   .     S
C1328  O1403   1.280   .     A
C1328  O1402   1.276   .     A
C1328  C1334   1.421   .     S
C1329  N1397   1.424   .     S
C1329  C1330   1.419   .     A
C1330  C1339   1.461   .     S
C1331  C1345   1.441   .     S
C1333  C486    1.453   1_556 S
C1335  C1350   1.404   .     A
C1336  H1354   1.109   .     S
C1336  N1394   1.447   .     S
C1336  H1353   1.109   .     S
C1336  H1352   1.112   .     S
C1337  N1395   1.448   .     S
C1337  H1357   1.111   .     S
C1337  H1356   1.111   .     S
C1337  H1358   1.110   .     S
C1338  H1360   1.112   .     S
C1338  H1363   1.111   .     S
C1338  N1396   1.448   .     S
C1338  H1361   1.109   .     S
C1339  O1405   1.289   .     A
C1339  O1408   1.290   .     A
C1340  N1397   1.446   .     S
C1340  H1366   1.109   .     S
C1340  H1365   1.111   .     S
C1340  H1367   1.109   .     S
C1341  H1369   1.111   .     S
C1341  H1370   1.109   .     S
C1341  N1398   1.447   .     S
C1341  H1371   1.109   .     S
C1342  N1399   1.444   .     S
C1342  H1375   1.107   .     S
C1342  H1374   1.111   .     S
C1342  H1376   1.111   .     S
C1343  N1400   1.449   .     S
C1343  H1378   1.109   .     S
C1343  H1379   1.110   .     S
C1343  H1380   1.110   .     S
C1344  H1382   1.109   .     S
C1344  H1385   1.109   .     S
C1344  H1383   1.111   .     S
C1344  N1392   1.450   .     S
C1345  O1406   1.282   .     A
C1345  O1407   1.286   .     A
C1346  N1393   1.365   .     A
C1346  H1386   1.081   .     S
C1347  H1387   1.079   .     S
C1347  N1391   1.364   .     A
C1347  C1630   1.413   .     S
C1348  H1388   1.081   .     S
C1348  N1393   1.365   .     A
C1349  N1391   1.365   .     A
C1349  H1389   1.081   .     S
C1349  C1628   1.413   .     S
C1350  N1398   1.429   .     S
H1355  N1395   1.031   .     S
H1359  N1396   1.032   .     S
H1364  N1397   1.032   .     S
H1368  N1398   1.029   .     S
H1372  N1399   1.028   .     S
H1377  N1400   1.031   .     S
H1381  N1392   1.031   .     S
H1390  N1394   1.032   .     S
N1391  Zn1409  2.002   .     S
N1393  Zn1410  2.002   .     S
O1401  Zn1409  2.009   .     S
O1402  Zn1410  2.009   .     S
O1403  Zn1409  1.988   .     S
O1404  Zn1410  1.988   .     S
O1405  Zn1409  2.012   .     S
O1406  Zn1410  2.012   .     S
O1407  Zn1409  2.008   .     S
O1408  Zn1410  2.008   .     S
C1411  O1498   1.283   .     A
C1411  O1495   1.274   .     A
C1411  C1429   1.422   .     S
C1412  C1428   1.407   .     A
C1412  N1493   1.430   .     S
C1412  C1508   1.387   .     S
C1413  C1428   1.408   .     A
C1413  N1494   1.428   .     S
C1413  C1538   1.389   .     S
C1414  C1429   1.407   .     A
C1414  N1486   1.427   .     S
C1414  C1600   1.387   1_455 S
C1415  C1426   1.392   .     A
C1415  C1419   1.384   .     A
C1415  H1445   1.084   .     S
C1416  C1427   1.397   .     A
C1416  H1456   1.081   .     S
C1416  C1420   1.392   .     A
C1417  C1421   1.382   .     A
C1417  C1427   1.398   .     A
C1417  H1467   1.084   .     S
C1418  C1423   1.387   .     A
C1418  C1426   1.394   .     A
C1418  H1478   1.083   .     S
C1419  C1424   1.419   .     A
C1419  N1488   1.424   .     S
C1420  C1425   1.415   .     A
C1420  N1489   1.431   .     S
C1421  C1425   1.406   .     A
C1421  N1490   1.423   .     S
C1422  O1497   1.280   .     A
C1422  O1496   1.276   .     A
C1422  C1428   1.421   .     S
C1423  N1491   1.424   .     S
C1423  C1424   1.419   .     A
C1424  C1433   1.461   .     S
C1425  C1439   1.441   .     S
C1427  C580    1.453   1_556 S
C1429  C1444   1.404   .     A
C1430  H1448   1.109   .     S
C1430  N1488   1.447   .     S
C1430  H1447   1.109   .     S
C1430  H1446   1.112   .     S
C1431  N1489   1.448   .     S
C1431  H1451   1.111   .     S
C1431  H1450   1.111   .     S
C1431  H1452   1.110   .     S
C1432  H1454   1.112   .     S
C1432  H1457   1.111   .     S
C1432  N1490   1.448   .     S
C1432  H1455   1.109   .     S
C1433  O1499   1.289   .     A
C1433  O1502   1.290   .     A
C1434  N1491   1.446   .     S
C1434  H1460   1.109   .     S
C1434  H1459   1.111   .     S
C1434  H1461   1.109   .     S
C1435  H1463   1.111   .     S
C1435  H1464   1.109   .     S
C1435  N1492   1.447   .     S
C1435  H1465   1.109   .     S
C1436  N1493   1.444   .     S
C1436  H1469   1.107   .     S
C1436  H1468   1.111   .     S
C1436  H1470   1.111   .     S
C1437  N1494   1.449   .     S
C1437  H1472   1.109   .     S
C1437  H1473   1.110   .     S
C1437  H1474   1.110   .     S
C1438  H1476   1.109   .     S
C1438  H1479   1.109   .     S
C1438  H1477   1.111   .     S
C1438  N1486   1.450   .     S
C1439  O1500   1.282   .     A
C1439  O1501   1.286   .     A
C1440  N1487   1.365   .     A
C1440  H1480   1.081   .     S
C1441  H1481   1.079   .     S
C1441  N1485   1.364   .     A
C1441  C878    1.413   1_565 S
C1442  H1482   1.081   .     S
C1442  N1487   1.365   .     A
C1443  N1485   1.365   .     A
C1443  H1483   1.081   .     S
C1443  C876    1.413   1_565 S
C1444  N1492   1.429   .     S
C1444  C1601   1.389   1_455 S
H1449  N1489   1.031   .     S
H1453  N1490   1.032   .     S
H1458  N1491   1.032   .     S
H1462  N1492   1.029   .     S
H1466  N1493   1.028   .     S
H1471  N1494   1.031   .     S
H1475  N1486   1.031   .     S
H1484  N1488   1.032   .     S
N1485  Zn1503  2.002   .     S
N1487  Zn1504  2.002   .     S
O1495  Zn1503  2.009   .     S
O1496  Zn1504  2.009   .     S
O1497  Zn1503  1.988   .     S
O1498  Zn1504  1.988   .     S
O1499  Zn1503  2.012   .     S
O1500  Zn1504  2.012   .     S
O1501  Zn1503  2.008   .     S
O1502  Zn1504  2.008   .     S
C1505  O1592   1.283   .     A
C1505  O1589   1.274   .     A
C1505  C1523   1.422   .     S
C1506  C1522   1.407   .     A
C1506  N1587   1.430   .     S
C1506  C1602   1.387   .     S
C1507  C1522   1.408   .     A
C1507  N1588   1.428   .     S
C1507  C1632   1.389   .     S
C1508  C1523   1.407   .     A
C1508  N1580   1.427   .     S
C1509  C1520   1.392   .     A
C1509  C1513   1.384   .     A
C1509  H1539   1.084   .     S
C1510  C1521   1.397   .     A
C1510  H1550   1.081   .     S
C1510  C1514   1.392   .     A
C1511  C1515   1.382   .     A
C1511  C1521   1.398   .     A
C1511  H1561   1.084   .     S
C1512  C1517   1.387   .     A
C1512  C1520   1.394   .     A
C1512  H1572   1.083   .     S
C1513  C1518   1.419   .     A
C1513  N1582   1.424   .     S
C1514  C1519   1.415   .     A
C1514  N1583   1.431   .     S
C1515  C1519   1.406   .     A
C1515  N1584   1.423   .     S
C1516  O1591   1.280   .     A
C1516  O1590   1.276   .     A
C1516  C1522   1.421   .     S
C1517  N1585   1.424   .     S
C1517  C1518   1.419   .     A
C1518  C1527   1.461   .     S
C1519  C1533   1.441   .     S
C1521  C674    1.453   1_556 S
C1523  C1538   1.404   .     A
C1524  H1542   1.109   .     S
C1524  N1582   1.447   .     S
C1524  H1541   1.109   .     S
C1524  H1540   1.112   .     S
C1525  N1583   1.448   .     S
C1525  H1545   1.111   .     S
C1525  H1544   1.111   .     S
C1525  H1546   1.110   .     S
C1526  H1548   1.112   .     S
C1526  H1551   1.111   .     S
C1526  N1584   1.448   .     S
C1526  H1549   1.109   .     S
C1527  O1593   1.289   .     A
C1527  O1596   1.290   .     A
C1528  N1585   1.446   .     S
C1528  H1554   1.109   .     S
C1528  H1553   1.111   .     S
C1528  H1555   1.109   .     S
C1529  H1557   1.111   .     S
C1529  H1558   1.109   .     S
C1529  N1586   1.447   .     S
C1529  H1559   1.109   .     S
C1530  N1587   1.444   .     S
C1530  H1563   1.107   .     S
C1530  H1562   1.111   .     S
C1530  H1564   1.111   .     S
C1531  N1588   1.449   .     S
C1531  H1566   1.109   .     S
C1531  H1567   1.110   .     S
C1531  H1568   1.110   .     S
C1532  H1570   1.109   .     S
C1532  H1573   1.109   .     S
C1532  H1571   1.111   .     S
C1532  N1580   1.450   .     S
C1533  O1594   1.282   .     A
C1533  O1595   1.286   .     A
C1534  N1581   1.365   .     A
C1534  H1574   1.081   .     S
C1535  H1575   1.079   .     S
C1535  N1579   1.364   .     A
C1535  C972    1.413   1_565 S
C1536  H1576   1.081   .     S
C1536  N1581   1.365   .     A
C1537  N1579   1.365   .     A
C1537  H1577   1.081   .     S
C1537  C970    1.413   1_565 S
C1538  N1586   1.429   .     S
H1543  N1583   1.031   .     S
H1547  N1584   1.032   .     S
H1552  N1585   1.032   .     S
H1556  N1586   1.029   .     S
H1560  N1587   1.028   .     S
H1565  N1588   1.031   .     S
H1569  N1580   1.031   .     S
H1578  N1582   1.032   .     S
N1579  Zn1597  2.002   .     S
N1581  Zn1598  2.002   .     S
O1589  Zn1597  2.009   .     S
O1590  Zn1598  2.009   .     S
O1591  Zn1597  1.988   .     S
O1592  Zn1598  1.988   .     S
O1593  Zn1597  2.012   .     S
O1594  Zn1598  2.012   .     S
O1595  Zn1597  2.008   .     S
O1596  Zn1598  2.008   .     S
C1599  O1686   1.283   .     A
C1599  O1683   1.274   .     A
C1599  C1617   1.422   .     S
C1600  C1616   1.407   .     A
C1600  N1681   1.430   .     S
C1600  C1414   1.387   1_655 S
C1601  C1616   1.408   .     A
C1601  N1682   1.428   .     S
C1601  C1444   1.389   1_655 S
C1602  C1617   1.407   .     A
C1602  N1674   1.427   .     S
C1603  C1614   1.392   .     A
C1603  C1607   1.384   .     A
C1603  H1633   1.084   .     S
C1604  C1615   1.397   .     A
C1604  H1644   1.081   .     S
C1604  C1608   1.392   .     A
C1605  C1609   1.382   .     A
C1605  C1615   1.398   .     A
C1605  H1655   1.084   .     S
C1606  C1611   1.387   .     A
C1606  C1614   1.394   .     A
C1606  H1666   1.083   .     S
C1607  C1612   1.419   .     A
C1607  N1676   1.424   .     S
C1608  C1613   1.415   .     A
C1608  N1677   1.431   .     S
C1609  C1613   1.406   .     A
C1609  N1678   1.423   .     S
C1610  O1685   1.280   .     A
C1610  O1684   1.276   .     A
C1610  C1616   1.421   .     S
C1611  N1679   1.424   .     S
C1611  C1612   1.419   .     A
C1612  C1621   1.461   .     S
C1613  C1627   1.441   .     S
C1615  C768    1.453   1_556 S
C1617  C1632   1.404   .     A
C1618  H1636   1.109   .     S
C1618  N1676   1.447   .     S
C1618  H1635   1.109   .     S
C1618  H1634   1.112   .     S
C1619  N1677   1.448   .     S
C1619  H1639   1.111   .     S
C1619  H1638   1.111   .     S
C1619  H1640   1.110   .     S
C1620  H1642   1.112   .     S
C1620  H1645   1.111   .     S
C1620  N1678   1.448   .     S
C1620  H1643   1.109   .     S
C1621  O1687   1.289   .     A
C1621  O1690   1.290   .     A
C1622  N1679   1.446   .     S
C1622  H1648   1.109   .     S
C1622  H1647   1.111   .     S
C1622  H1649   1.109   .     S
C1623  H1651   1.111   .     S
C1623  H1652   1.109   .     S
C1623  N1680   1.447   .     S
C1623  H1653   1.109   .     S
C1624  N1681   1.444   .     S
C1624  H1657   1.107   .     S
C1624  H1656   1.111   .     S
C1624  H1658   1.111   .     S
C1625  N1682   1.449   .     S
C1625  H1660   1.109   .     S
C1625  H1661   1.110   .     S
C1625  H1662   1.110   .     S
C1626  H1664   1.109   .     S
C1626  H1667   1.109   .     S
C1626  H1665   1.111   .     S
C1626  N1674   1.450   .     S
C1627  O1688   1.282   .     A
C1627  O1689   1.286   .     A
C1628  N1675   1.365   .     A
C1628  H1668   1.081   .     S
C1629  H1669   1.079   .     S
C1629  N1673   1.364   .     A
C1629  C1066   1.413   1_565 S
C1630  H1670   1.081   .     S
C1630  N1675   1.365   .     A
C1631  N1673   1.365   .     A
C1631  H1671   1.081   .     S
C1631  C1064   1.413   1_565 S
C1632  N1680   1.429   .     S
H1637  N1677   1.031   .     S
H1641  N1678   1.032   .     S
H1646  N1679   1.032   .     S
H1650  N1680   1.029   .     S
H1654  N1681   1.028   .     S
H1659  N1682   1.031   .     S
H1663  N1674   1.031   .     S
H1672  N1676   1.032   .     S
N1673  Zn1691  2.002   .     S
N1675  Zn1692  2.002   .     S
O1683  Zn1691  2.009   .     S
O1684  Zn1692  2.009   .     S
O1685  Zn1691  1.988   .     S
O1686  Zn1692  1.988   .     S
O1687  Zn1691  2.012   .     S
O1688  Zn1692  2.012   .     S
O1689  Zn1691  2.008   .     S
O1690  Zn1692  2.008   .     S
