data_str_m3_o10_o18_pcu_sym.103
_audit_creation_date              2020-01-03
_audit_creation_method            'Materials Studio'
_symmetry_space_group_name_H-M    'P1'
_symmetry_Int_Tables_number       1
_symmetry_cell_setting            triclinic
loop_
_symmetry_equiv_pos_as_xyz
  x,y,z
_cell_length_a                    23.4415
_cell_length_b                    25.7239
_cell_length_c                    28.1401
_cell_angle_alpha                 93.1324
_cell_angle_beta                  94.8288
_cell_angle_gamma                 93.9739
loop_
_atom_site_label
_atom_site_type_symbol
_atom_site_fract_x
_atom_site_fract_y
_atom_site_fract_z
_atom_site_U_iso_or_equiv
_atom_site_adp_type
_atom_site_occupancy
C1     C     0.01500   0.26487   0.24877   0.00000  Uiso   1.00
C2     C     0.31023   0.15753   0.15985   0.00000  Uiso   1.00
C3     C     0.03870   0.19117   0.39053   0.00000  Uiso   1.00
C4     C     0.29463   0.14217   0.10947   0.00000  Uiso   1.00
C5     C     0.01540   0.21801   0.46979   0.00000  Uiso   1.00
C6     C     0.31793   0.11533   0.03021   0.00000  Uiso   1.00
C7     C     0.33159   0.20674   0.42136   0.00000  Uiso   1.00
C8     C     0.00175   0.12660   0.07864   0.00000  Uiso   1.00
C9     C     0.09643   0.19090   0.40835   0.00000  Uiso   1.00
C10    C     0.23691   0.14244   0.09165   0.00000  Uiso   1.00
C11    C     0.10899   0.18646   0.45695   0.00000  Uiso   1.00
C12    C     0.31833   0.06846   0.25123   0.00000  Uiso   1.00
C13    C     0.22435   0.14689   0.04305   0.00000  Uiso   1.00
C14    C     0.07019   0.20599   0.48814   0.00000  Uiso   1.00
C15    C     0.26314   0.12736   0.01186   0.00000  Uiso   1.00
C16    C     0.15946   0.16475   0.47512   0.00000  Uiso   1.00
C17    C     0.17387   0.16860   0.02488   0.00000  Uiso   1.00
C18    C     0.13924   0.19663   0.05469   0.00000  Uiso   1.00
C19    C     0.19409   0.13671   0.44530   0.00000  Uiso   1.00
C20    C     0.08710   0.21344   0.03671   0.00000  Uiso   1.00
C21    C     0.24624   0.11990   0.46329   0.00000  Uiso   1.00
C22    C     0.02284   0.31940   0.24809   0.00000  Uiso   1.00
C23    C     0.31049   0.01393   0.25191   0.00000  Uiso   1.00
C24    C     0.02310   0.17581   0.34015   0.00000  Uiso   1.00
H25    H     0.05985   0.23187   0.06087   0.00000  Uiso   1.00
H26    H     0.17101   0.20934   0.28444   0.00000  Uiso   1.00
H27    H     0.20398   0.10478   0.14133   0.00000  Uiso   1.00
H28    H     0.12935   0.22856   0.35866   0.00000  Uiso   1.00
H29    H     0.15172   0.20605   0.09215   0.00000  Uiso   1.00
H30    H     0.18161   0.12729   0.40784   0.00000  Uiso   1.00
H31    H     0.27349   0.10147   0.43913   0.00000  Uiso   1.00
H32    H     0.04573   0.12220   0.09198   0.00000  Uiso   1.00
H33    H     0.28760   0.21114   0.40801   0.00000  Uiso   1.00
H34    H     0.31820   0.23238   0.49325   0.00000  Uiso   1.00
H35    H     0.01514   0.10096   0.00675   0.00000  Uiso   1.00
H36    H     0.06592   0.00310   0.24447   0.00000  Uiso   1.00
H37    H     0.26741   0.33024   0.25553   0.00000  Uiso   1.00
H38    H     0.16232   0.12399   0.21556   0.00000  Uiso   1.00
N39    N     0.14695   0.15216   0.23739   0.00000  Uiso   1.00
N40    N     0.18638   0.18117   0.26260   0.00000  Uiso   1.00
O41    O     0.29719   0.24631   0.25309   0.00000  Uiso   1.00
O42    O     0.14102   0.20133   0.38037   0.00000  Uiso   1.00
O43    O     0.03614   0.08702   0.24690   0.00000  Uiso   1.00
O44    O     0.05822   0.23702   0.24501   0.00000  Uiso   1.00
O45    O     0.27512   0.09632   0.25498   0.00000  Uiso   1.00
O46    O     0.30328   0.17397   0.32247   0.00000  Uiso   1.00
O47    O     0.03005   0.15937   0.17753   0.00000  Uiso   1.00
O48    O     0.06431   0.16467   0.31439   0.00000  Uiso   1.00
O49    O     0.26902   0.16866   0.18561   0.00000  Uiso   1.00
O50    O     0.19231   0.13201   0.11962   0.00000  Uiso   1.00
Zn51   Zn    0.27033   0.17287   0.25539   0.00000  Uiso   1.00
Zn52   Zn    0.06300   0.16046   0.24460   0.00000  Uiso   1.00
C53    C     0.34833   0.26487   0.24877   0.00000  Uiso   1.00
C54    C     0.64356   0.15753   0.15985   0.00000  Uiso   1.00
C55    C     0.37204   0.19117   0.39053   0.00000  Uiso   1.00
C56    C     0.62796   0.14217   0.10947   0.00000  Uiso   1.00
C57    C     0.34874   0.21801   0.46979   0.00000  Uiso   1.00
C58    C     0.65126   0.11533   0.03021   0.00000  Uiso   1.00
C59    C     0.66492   0.20674   0.42136   0.00000  Uiso   1.00
C60    C     0.33508   0.12660   0.07864   0.00000  Uiso   1.00
C61    C     0.42976   0.19090   0.40835   0.00000  Uiso   1.00
C62    C     0.57024   0.14244   0.09165   0.00000  Uiso   1.00
C63    C     0.44232   0.18646   0.45695   0.00000  Uiso   1.00
C64    C     0.65167   0.06846   0.25123   0.00000  Uiso   1.00
C65    C     0.55768   0.14689   0.04305   0.00000  Uiso   1.00
C66    C     0.40352   0.20599   0.48814   0.00000  Uiso   1.00
C67    C     0.59648   0.12736   0.01186   0.00000  Uiso   1.00
C68    C     0.49280   0.16475   0.47512   0.00000  Uiso   1.00
C69    C     0.50721   0.16860   0.02488   0.00000  Uiso   1.00
C70    C     0.47258   0.19663   0.05469   0.00000  Uiso   1.00
C71    C     0.52742   0.13671   0.44530   0.00000  Uiso   1.00
C72    C     0.42043   0.21344   0.03671   0.00000  Uiso   1.00
C73    C     0.57957   0.11990   0.46329   0.00000  Uiso   1.00
C74    C     0.35617   0.31940   0.24809   0.00000  Uiso   1.00
C75    C     0.64383   0.01393   0.25191   0.00000  Uiso   1.00
C76    C     0.35644   0.17581   0.34015   0.00000  Uiso   1.00
H77    H     0.39318   0.23187   0.06087   0.00000  Uiso   1.00
H78    H     0.50434   0.20934   0.28444   0.00000  Uiso   1.00
H79    H     0.53731   0.10478   0.14133   0.00000  Uiso   1.00
H80    H     0.46268   0.22856   0.35866   0.00000  Uiso   1.00
H81    H     0.48505   0.20605   0.09215   0.00000  Uiso   1.00
H82    H     0.51495   0.12729   0.40784   0.00000  Uiso   1.00
H83    H     0.60682   0.10147   0.43913   0.00000  Uiso   1.00
H84    H     0.37907   0.12220   0.09198   0.00000  Uiso   1.00
H85    H     0.62093   0.21114   0.40801   0.00000  Uiso   1.00
H86    H     0.65153   0.23238   0.49325   0.00000  Uiso   1.00
H87    H     0.34847   0.10096   0.00675   0.00000  Uiso   1.00
H88    H     0.39926   0.00310   0.24447   0.00000  Uiso   1.00
H89    H     0.60074   0.33024   0.25553   0.00000  Uiso   1.00
H90    H     0.49566   0.12399   0.21556   0.00000  Uiso   1.00
N91    N     0.48029   0.15216   0.23739   0.00000  Uiso   1.00
N92    N     0.51971   0.18117   0.26260   0.00000  Uiso   1.00
O93    O     0.63052   0.24631   0.25309   0.00000  Uiso   1.00
O94    O     0.47436   0.20133   0.38037   0.00000  Uiso   1.00
O95    O     0.36948   0.08702   0.24690   0.00000  Uiso   1.00
O96    O     0.39155   0.23702   0.24501   0.00000  Uiso   1.00
O97    O     0.60845   0.09632   0.25498   0.00000  Uiso   1.00
O98    O     0.63662   0.17397   0.32247   0.00000  Uiso   1.00
O99    O     0.36338   0.15937   0.17753   0.00000  Uiso   1.00
O100   O     0.39764   0.16467   0.31439   0.00000  Uiso   1.00
O101   O     0.60236   0.16866   0.18561   0.00000  Uiso   1.00
O102   O     0.52564   0.13201   0.11962   0.00000  Uiso   1.00
Zn103  Zn    0.60366   0.17287   0.25539   0.00000  Uiso   1.00
Zn104  Zn    0.39634   0.16046   0.24460   0.00000  Uiso   1.00
C105   C     0.68167   0.26487   0.24877   0.00000  Uiso   1.00
C106   C     0.97690   0.15753   0.15985   0.00000  Uiso   1.00
C107   C     0.70537   0.19117   0.39053   0.00000  Uiso   1.00
C108   C     0.96130   0.14217   0.10947   0.00000  Uiso   1.00
C109   C     0.68207   0.21801   0.46979   0.00000  Uiso   1.00
C110   C     0.98460   0.11533   0.03021   0.00000  Uiso   1.00
C111   C     0.99825   0.20674   0.42136   0.00000  Uiso   1.00
C112   C     0.66841   0.12660   0.07864   0.00000  Uiso   1.00
C113   C     0.76310   0.19090   0.40835   0.00000  Uiso   1.00
C114   C     0.90357   0.14244   0.09165   0.00000  Uiso   1.00
C115   C     0.77565   0.18646   0.45695   0.00000  Uiso   1.00
C116   C     0.98500   0.06846   0.25123   0.00000  Uiso   1.00
C117   C     0.89102   0.14689   0.04305   0.00000  Uiso   1.00
C118   C     0.73686   0.20599   0.48814   0.00000  Uiso   1.00
C119   C     0.92981   0.12736   0.01186   0.00000  Uiso   1.00
C120   C     0.82613   0.16475   0.47512   0.00000  Uiso   1.00
C121   C     0.84054   0.16860   0.02488   0.00000  Uiso   1.00
C122   C     0.80591   0.19663   0.05469   0.00000  Uiso   1.00
C123   C     0.86076   0.13671   0.44530   0.00000  Uiso   1.00
C124   C     0.75377   0.21344   0.03671   0.00000  Uiso   1.00
C125   C     0.91290   0.11990   0.46329   0.00000  Uiso   1.00
C126   C     0.68951   0.31940   0.24809   0.00000  Uiso   1.00
C127   C     0.97716   0.01393   0.25191   0.00000  Uiso   1.00
C128   C     0.68977   0.17581   0.34015   0.00000  Uiso   1.00
H129   H     0.72651   0.23187   0.06087   0.00000  Uiso   1.00
H130   H     0.83768   0.20934   0.28444   0.00000  Uiso   1.00
H131   H     0.87065   0.10478   0.14133   0.00000  Uiso   1.00
H132   H     0.79602   0.22856   0.35866   0.00000  Uiso   1.00
H133   H     0.81839   0.20605   0.09215   0.00000  Uiso   1.00
H134   H     0.84828   0.12729   0.40784   0.00000  Uiso   1.00
H135   H     0.94015   0.10147   0.43913   0.00000  Uiso   1.00
H136   H     0.71240   0.12220   0.09198   0.00000  Uiso   1.00
H137   H     0.95427   0.21114   0.40801   0.00000  Uiso   1.00
H138   H     0.98486   0.23238   0.49325   0.00000  Uiso   1.00
H139   H     0.68180   0.10096   0.00675   0.00000  Uiso   1.00
H140   H     0.73259   0.00310   0.24447   0.00000  Uiso   1.00
H141   H     0.93408   0.33024   0.25553   0.00000  Uiso   1.00
H142   H     0.82899   0.12399   0.21556   0.00000  Uiso   1.00
N143   N     0.81362   0.15216   0.23739   0.00000  Uiso   1.00
N144   N     0.85305   0.18117   0.26260   0.00000  Uiso   1.00
O145   O     0.96386   0.24631   0.25309   0.00000  Uiso   1.00
O146   O     0.80769   0.20133   0.38037   0.00000  Uiso   1.00
O147   O     0.70281   0.08702   0.24690   0.00000  Uiso   1.00
O148   O     0.72488   0.23702   0.24501   0.00000  Uiso   1.00
O149   O     0.94178   0.09632   0.25498   0.00000  Uiso   1.00
O150   O     0.96995   0.17397   0.32247   0.00000  Uiso   1.00
O151   O     0.69672   0.15937   0.17753   0.00000  Uiso   1.00
O152   O     0.73098   0.16467   0.31439   0.00000  Uiso   1.00
O153   O     0.93569   0.16866   0.18561   0.00000  Uiso   1.00
O154   O     0.85898   0.13201   0.11962   0.00000  Uiso   1.00
Zn155  Zn    0.93700   0.17287   0.25539   0.00000  Uiso   1.00
Zn156  Zn    0.72967   0.16046   0.24460   0.00000  Uiso   1.00
C157   C     0.01500   0.59821   0.24877   0.00000  Uiso   1.00
C158   C     0.31023   0.49086   0.15985   0.00000  Uiso   1.00
C159   C     0.03870   0.52450   0.39053   0.00000  Uiso   1.00
C160   C     0.29463   0.47550   0.10947   0.00000  Uiso   1.00
C161   C     0.01540   0.55134   0.46979   0.00000  Uiso   1.00
C162   C     0.31793   0.44867   0.03021   0.00000  Uiso   1.00
C163   C     0.33159   0.54007   0.42136   0.00000  Uiso   1.00
C164   C     0.00175   0.45994   0.07864   0.00000  Uiso   1.00
C165   C     0.09643   0.52424   0.40835   0.00000  Uiso   1.00
C166   C     0.23691   0.47577   0.09165   0.00000  Uiso   1.00
C167   C     0.10899   0.51979   0.45695   0.00000  Uiso   1.00
C168   C     0.31833   0.40179   0.25123   0.00000  Uiso   1.00
C169   C     0.22435   0.48022   0.04305   0.00000  Uiso   1.00
C170   C     0.07019   0.53932   0.48814   0.00000  Uiso   1.00
C171   C     0.26314   0.46069   0.01186   0.00000  Uiso   1.00
C172   C     0.15946   0.49808   0.47512   0.00000  Uiso   1.00
C173   C     0.17387   0.50193   0.02488   0.00000  Uiso   1.00
C174   C     0.13924   0.52997   0.05469   0.00000  Uiso   1.00
C175   C     0.19409   0.47005   0.44530   0.00000  Uiso   1.00
C176   C     0.08710   0.54678   0.03671   0.00000  Uiso   1.00
C177   C     0.24624   0.45324   0.46329   0.00000  Uiso   1.00
C178   C     0.02284   0.65273   0.24809   0.00000  Uiso   1.00
C179   C     0.31049   0.34727   0.25191   0.00000  Uiso   1.00
C180   C     0.02310   0.50914   0.34015   0.00000  Uiso   1.00
H181   H     0.05985   0.56520   0.06087   0.00000  Uiso   1.00
H182   H     0.17101   0.54268   0.28444   0.00000  Uiso   1.00
H183   H     0.20398   0.43811   0.14133   0.00000  Uiso   1.00
H184   H     0.12935   0.56189   0.35866   0.00000  Uiso   1.00
H185   H     0.15172   0.53939   0.09215   0.00000  Uiso   1.00
H186   H     0.18161   0.46063   0.40784   0.00000  Uiso   1.00
H187   H     0.27349   0.43481   0.43913   0.00000  Uiso   1.00
H188   H     0.04573   0.45553   0.09198   0.00000  Uiso   1.00
H189   H     0.28760   0.54447   0.40801   0.00000  Uiso   1.00
H190   H     0.31820   0.56571   0.49325   0.00000  Uiso   1.00
H191   H     0.01514   0.43429   0.00675   0.00000  Uiso   1.00
H192   H     0.06592   0.33643   0.24447   0.00000  Uiso   1.00
H193   H     0.26741   0.66357   0.25553   0.00000  Uiso   1.00
H194   H     0.16232   0.45732   0.21556   0.00000  Uiso   1.00
N195   N     0.14695   0.48550   0.23739   0.00000  Uiso   1.00
N196   N     0.18638   0.51450   0.26260   0.00000  Uiso   1.00
O197   O     0.29719   0.57964   0.25309   0.00000  Uiso   1.00
O198   O     0.14102   0.53466   0.38037   0.00000  Uiso   1.00
O199   O     0.03614   0.42036   0.24690   0.00000  Uiso   1.00
O200   O     0.05822   0.57035   0.24501   0.00000  Uiso   1.00
O201   O     0.27512   0.42965   0.25498   0.00000  Uiso   1.00
O202   O     0.30328   0.50730   0.32247   0.00000  Uiso   1.00
O203   O     0.03005   0.49270   0.17753   0.00000  Uiso   1.00
O204   O     0.06431   0.49801   0.31439   0.00000  Uiso   1.00
O205   O     0.26902   0.50199   0.18561   0.00000  Uiso   1.00
O206   O     0.19231   0.46535   0.11962   0.00000  Uiso   1.00
Zn207  Zn    0.27033   0.50621   0.25539   0.00000  Uiso   1.00
Zn208  Zn    0.06300   0.49379   0.24460   0.00000  Uiso   1.00
C209   C     0.34833   0.59821   0.24877   0.00000  Uiso   1.00
C210   C     0.64356   0.49086   0.15985   0.00000  Uiso   1.00
C211   C     0.37204   0.52450   0.39053   0.00000  Uiso   1.00
C212   C     0.62796   0.47550   0.10947   0.00000  Uiso   1.00
C213   C     0.34874   0.55134   0.46979   0.00000  Uiso   1.00
C214   C     0.65126   0.44867   0.03021   0.00000  Uiso   1.00
C215   C     0.66492   0.54007   0.42136   0.00000  Uiso   1.00
C216   C     0.33508   0.45994   0.07864   0.00000  Uiso   1.00
C217   C     0.42976   0.52424   0.40835   0.00000  Uiso   1.00
C218   C     0.57024   0.47577   0.09165   0.00000  Uiso   1.00
C219   C     0.44232   0.51979   0.45695   0.00000  Uiso   1.00
C220   C     0.65167   0.40179   0.25123   0.00000  Uiso   1.00
C221   C     0.55768   0.48022   0.04305   0.00000  Uiso   1.00
C222   C     0.40352   0.53932   0.48814   0.00000  Uiso   1.00
C223   C     0.59648   0.46069   0.01186   0.00000  Uiso   1.00
C224   C     0.49280   0.49808   0.47512   0.00000  Uiso   1.00
C225   C     0.50721   0.50193   0.02488   0.00000  Uiso   1.00
C226   C     0.47258   0.52997   0.05469   0.00000  Uiso   1.00
C227   C     0.52742   0.47005   0.44530   0.00000  Uiso   1.00
C228   C     0.42043   0.54678   0.03671   0.00000  Uiso   1.00
C229   C     0.57957   0.45324   0.46329   0.00000  Uiso   1.00
C230   C     0.35617   0.65273   0.24809   0.00000  Uiso   1.00
C231   C     0.64383   0.34727   0.25191   0.00000  Uiso   1.00
C232   C     0.35644   0.50914   0.34015   0.00000  Uiso   1.00
H233   H     0.39318   0.56520   0.06087   0.00000  Uiso   1.00
H234   H     0.50434   0.54268   0.28444   0.00000  Uiso   1.00
H235   H     0.53731   0.43811   0.14133   0.00000  Uiso   1.00
H236   H     0.46268   0.56189   0.35866   0.00000  Uiso   1.00
H237   H     0.48505   0.53939   0.09215   0.00000  Uiso   1.00
H238   H     0.51495   0.46063   0.40784   0.00000  Uiso   1.00
H239   H     0.60682   0.43481   0.43913   0.00000  Uiso   1.00
H240   H     0.37907   0.45553   0.09198   0.00000  Uiso   1.00
H241   H     0.62093   0.54447   0.40801   0.00000  Uiso   1.00
H242   H     0.65153   0.56571   0.49325   0.00000  Uiso   1.00
H243   H     0.34847   0.43429   0.00675   0.00000  Uiso   1.00
H244   H     0.39926   0.33643   0.24447   0.00000  Uiso   1.00
H245   H     0.60074   0.66357   0.25553   0.00000  Uiso   1.00
H246   H     0.49566   0.45732   0.21556   0.00000  Uiso   1.00
N247   N     0.48029   0.48550   0.23739   0.00000  Uiso   1.00
N248   N     0.51971   0.51450   0.26260   0.00000  Uiso   1.00
O249   O     0.63052   0.57964   0.25309   0.00000  Uiso   1.00
O250   O     0.47436   0.53466   0.38037   0.00000  Uiso   1.00
O251   O     0.36948   0.42036   0.24690   0.00000  Uiso   1.00
O252   O     0.39155   0.57035   0.24501   0.00000  Uiso   1.00
O253   O     0.60845   0.42965   0.25498   0.00000  Uiso   1.00
O254   O     0.63662   0.50730   0.32247   0.00000  Uiso   1.00
O255   O     0.36338   0.49270   0.17753   0.00000  Uiso   1.00
O256   O     0.39764   0.49801   0.31439   0.00000  Uiso   1.00
O257   O     0.60236   0.50199   0.18561   0.00000  Uiso   1.00
O258   O     0.52564   0.46535   0.11962   0.00000  Uiso   1.00
Zn259  Zn    0.60366   0.50621   0.25539   0.00000  Uiso   1.00
Zn260  Zn    0.39634   0.49379   0.24460   0.00000  Uiso   1.00
C261   C     0.68167   0.59821   0.24877   0.00000  Uiso   1.00
C262   C     0.97690   0.49086   0.15985   0.00000  Uiso   1.00
C263   C     0.70537   0.52450   0.39053   0.00000  Uiso   1.00
C264   C     0.96130   0.47550   0.10947   0.00000  Uiso   1.00
C265   C     0.68207   0.55134   0.46979   0.00000  Uiso   1.00
C266   C     0.98460   0.44867   0.03021   0.00000  Uiso   1.00
C267   C     0.99825   0.54007   0.42136   0.00000  Uiso   1.00
C268   C     0.66841   0.45994   0.07864   0.00000  Uiso   1.00
C269   C     0.76310   0.52424   0.40835   0.00000  Uiso   1.00
C270   C     0.90357   0.47577   0.09165   0.00000  Uiso   1.00
C271   C     0.77565   0.51979   0.45695   0.00000  Uiso   1.00
C272   C     0.98500   0.40179   0.25123   0.00000  Uiso   1.00
C273   C     0.89102   0.48022   0.04305   0.00000  Uiso   1.00
C274   C     0.73686   0.53932   0.48814   0.00000  Uiso   1.00
C275   C     0.92981   0.46069   0.01186   0.00000  Uiso   1.00
C276   C     0.82613   0.49808   0.47512   0.00000  Uiso   1.00
C277   C     0.84054   0.50193   0.02488   0.00000  Uiso   1.00
C278   C     0.80591   0.52997   0.05469   0.00000  Uiso   1.00
C279   C     0.86076   0.47005   0.44530   0.00000  Uiso   1.00
C280   C     0.75377   0.54678   0.03671   0.00000  Uiso   1.00
C281   C     0.91290   0.45324   0.46329   0.00000  Uiso   1.00
C282   C     0.68951   0.65273   0.24809   0.00000  Uiso   1.00
C283   C     0.97716   0.34727   0.25191   0.00000  Uiso   1.00
C284   C     0.68977   0.50914   0.34015   0.00000  Uiso   1.00
H285   H     0.72651   0.56520   0.06087   0.00000  Uiso   1.00
H286   H     0.83768   0.54268   0.28444   0.00000  Uiso   1.00
H287   H     0.87065   0.43811   0.14133   0.00000  Uiso   1.00
H288   H     0.79602   0.56189   0.35866   0.00000  Uiso   1.00
H289   H     0.81839   0.53939   0.09215   0.00000  Uiso   1.00
H290   H     0.84828   0.46063   0.40784   0.00000  Uiso   1.00
H291   H     0.94015   0.43481   0.43913   0.00000  Uiso   1.00
H292   H     0.71240   0.45553   0.09198   0.00000  Uiso   1.00
H293   H     0.95427   0.54447   0.40801   0.00000  Uiso   1.00
H294   H     0.98486   0.56571   0.49325   0.00000  Uiso   1.00
H295   H     0.68180   0.43429   0.00675   0.00000  Uiso   1.00
H296   H     0.73259   0.33643   0.24447   0.00000  Uiso   1.00
H297   H     0.93408   0.66357   0.25553   0.00000  Uiso   1.00
H298   H     0.82899   0.45732   0.21556   0.00000  Uiso   1.00
N299   N     0.81362   0.48550   0.23739   0.00000  Uiso   1.00
N300   N     0.85305   0.51450   0.26260   0.00000  Uiso   1.00
O301   O     0.96386   0.57964   0.25309   0.00000  Uiso   1.00
O302   O     0.80769   0.53466   0.38037   0.00000  Uiso   1.00
O303   O     0.70281   0.42036   0.24690   0.00000  Uiso   1.00
O304   O     0.72488   0.57035   0.24501   0.00000  Uiso   1.00
O305   O     0.94178   0.42965   0.25498   0.00000  Uiso   1.00
O306   O     0.96995   0.50730   0.32247   0.00000  Uiso   1.00
O307   O     0.69672   0.49270   0.17753   0.00000  Uiso   1.00
O308   O     0.73098   0.49801   0.31439   0.00000  Uiso   1.00
O309   O     0.93569   0.50199   0.18561   0.00000  Uiso   1.00
O310   O     0.85898   0.46535   0.11962   0.00000  Uiso   1.00
Zn311  Zn    0.93700   0.50621   0.25539   0.00000  Uiso   1.00
Zn312  Zn    0.72967   0.49379   0.24460   0.00000  Uiso   1.00
C313   C     0.01500   0.93154   0.24877   0.00000  Uiso   1.00
C314   C     0.31023   0.82420   0.15985   0.00000  Uiso   1.00
C315   C     0.03870   0.85784   0.39053   0.00000  Uiso   1.00
C316   C     0.29463   0.80884   0.10947   0.00000  Uiso   1.00
C317   C     0.01540   0.88468   0.46979   0.00000  Uiso   1.00
C318   C     0.31793   0.78200   0.03021   0.00000  Uiso   1.00
C319   C     0.33159   0.87340   0.42136   0.00000  Uiso   1.00
C320   C     0.00175   0.79327   0.07864   0.00000  Uiso   1.00
C321   C     0.09643   0.85757   0.40835   0.00000  Uiso   1.00
C322   C     0.23691   0.80911   0.09165   0.00000  Uiso   1.00
C323   C     0.10899   0.85312   0.45695   0.00000  Uiso   1.00
C324   C     0.31833   0.73513   0.25123   0.00000  Uiso   1.00
C325   C     0.22435   0.81355   0.04305   0.00000  Uiso   1.00
C326   C     0.07019   0.87265   0.48814   0.00000  Uiso   1.00
C327   C     0.26314   0.79402   0.01186   0.00000  Uiso   1.00
C328   C     0.15946   0.83141   0.47512   0.00000  Uiso   1.00
C329   C     0.17387   0.83527   0.02488   0.00000  Uiso   1.00
C330   C     0.13924   0.86330   0.05469   0.00000  Uiso   1.00
C331   C     0.19409   0.80338   0.44530   0.00000  Uiso   1.00
C332   C     0.08710   0.88011   0.03671   0.00000  Uiso   1.00
C333   C     0.24624   0.78657   0.46329   0.00000  Uiso   1.00
C334   C     0.02284   0.98607   0.24809   0.00000  Uiso   1.00
C335   C     0.31049   0.68060   0.25191   0.00000  Uiso   1.00
C336   C     0.02310   0.84247   0.34015   0.00000  Uiso   1.00
H337   H     0.05985   0.89854   0.06087   0.00000  Uiso   1.00
H338   H     0.17101   0.87601   0.28444   0.00000  Uiso   1.00
H339   H     0.20398   0.77145   0.14133   0.00000  Uiso   1.00
H340   H     0.12935   0.89523   0.35866   0.00000  Uiso   1.00
H341   H     0.15172   0.87272   0.09215   0.00000  Uiso   1.00
H342   H     0.18161   0.79396   0.40784   0.00000  Uiso   1.00
H343   H     0.27349   0.76814   0.43913   0.00000  Uiso   1.00
H344   H     0.04573   0.78886   0.09198   0.00000  Uiso   1.00
H345   H     0.28760   0.87781   0.40801   0.00000  Uiso   1.00
H346   H     0.31820   0.89905   0.49325   0.00000  Uiso   1.00
H347   H     0.01514   0.76763   0.00675   0.00000  Uiso   1.00
H348   H     0.06592   0.66976   0.24447   0.00000  Uiso   1.00
H349   H     0.26741   0.99690   0.25553   0.00000  Uiso   1.00
H350   H     0.16232   0.79066   0.21556   0.00000  Uiso   1.00
N351   N     0.14695   0.81883   0.23739   0.00000  Uiso   1.00
N352   N     0.18638   0.84784   0.26260   0.00000  Uiso   1.00
O353   O     0.29719   0.91298   0.25309   0.00000  Uiso   1.00
O354   O     0.14102   0.86800   0.38037   0.00000  Uiso   1.00
O355   O     0.03614   0.75369   0.24690   0.00000  Uiso   1.00
O356   O     0.05822   0.90368   0.24501   0.00000  Uiso   1.00
O357   O     0.27512   0.76298   0.25498   0.00000  Uiso   1.00
O358   O     0.30328   0.84063   0.32247   0.00000  Uiso   1.00
O359   O     0.03005   0.82603   0.17753   0.00000  Uiso   1.00
O360   O     0.06431   0.83134   0.31439   0.00000  Uiso   1.00
O361   O     0.26902   0.83533   0.18561   0.00000  Uiso   1.00
O362   O     0.19231   0.79868   0.11962   0.00000  Uiso   1.00
Zn363  Zn    0.27033   0.83954   0.25539   0.00000  Uiso   1.00
Zn364  Zn    0.06300   0.82713   0.24460   0.00000  Uiso   1.00
C365   C     0.34833   0.93154   0.24877   0.00000  Uiso   1.00
C366   C     0.64356   0.82420   0.15985   0.00000  Uiso   1.00
C367   C     0.37204   0.85784   0.39053   0.00000  Uiso   1.00
C368   C     0.62796   0.80884   0.10947   0.00000  Uiso   1.00
C369   C     0.34874   0.88468   0.46979   0.00000  Uiso   1.00
C370   C     0.65126   0.78200   0.03021   0.00000  Uiso   1.00
C371   C     0.66492   0.87340   0.42136   0.00000  Uiso   1.00
C372   C     0.33508   0.79327   0.07864   0.00000  Uiso   1.00
C373   C     0.42976   0.85757   0.40835   0.00000  Uiso   1.00
C374   C     0.57024   0.80911   0.09165   0.00000  Uiso   1.00
C375   C     0.44232   0.85312   0.45695   0.00000  Uiso   1.00
C376   C     0.65167   0.73513   0.25123   0.00000  Uiso   1.00
C377   C     0.55768   0.81355   0.04305   0.00000  Uiso   1.00
C378   C     0.40352   0.87265   0.48814   0.00000  Uiso   1.00
C379   C     0.59648   0.79402   0.01186   0.00000  Uiso   1.00
C380   C     0.49280   0.83141   0.47512   0.00000  Uiso   1.00
C381   C     0.50721   0.83527   0.02488   0.00000  Uiso   1.00
C382   C     0.47258   0.86330   0.05469   0.00000  Uiso   1.00
C383   C     0.52742   0.80338   0.44530   0.00000  Uiso   1.00
C384   C     0.42043   0.88011   0.03671   0.00000  Uiso   1.00
C385   C     0.57957   0.78657   0.46329   0.00000  Uiso   1.00
C386   C     0.35617   0.98607   0.24809   0.00000  Uiso   1.00
C387   C     0.64383   0.68060   0.25191   0.00000  Uiso   1.00
C388   C     0.35644   0.84247   0.34015   0.00000  Uiso   1.00
H389   H     0.39318   0.89854   0.06087   0.00000  Uiso   1.00
H390   H     0.50434   0.87601   0.28444   0.00000  Uiso   1.00
H391   H     0.53731   0.77145   0.14133   0.00000  Uiso   1.00
H392   H     0.46268   0.89523   0.35866   0.00000  Uiso   1.00
H393   H     0.48505   0.87272   0.09215   0.00000  Uiso   1.00
H394   H     0.51495   0.79396   0.40784   0.00000  Uiso   1.00
H395   H     0.60682   0.76814   0.43913   0.00000  Uiso   1.00
H396   H     0.37907   0.78886   0.09198   0.00000  Uiso   1.00
H397   H     0.62093   0.87781   0.40801   0.00000  Uiso   1.00
H398   H     0.65153   0.89905   0.49325   0.00000  Uiso   1.00
H399   H     0.34847   0.76763   0.00675   0.00000  Uiso   1.00
H400   H     0.39926   0.66976   0.24447   0.00000  Uiso   1.00
H401   H     0.60074   0.99690   0.25553   0.00000  Uiso   1.00
H402   H     0.49566   0.79066   0.21556   0.00000  Uiso   1.00
N403   N     0.48029   0.81883   0.23739   0.00000  Uiso   1.00
N404   N     0.51971   0.84784   0.26260   0.00000  Uiso   1.00
O405   O     0.63052   0.91298   0.25309   0.00000  Uiso   1.00
O406   O     0.47436   0.86800   0.38037   0.00000  Uiso   1.00
O407   O     0.36948   0.75369   0.24690   0.00000  Uiso   1.00
O408   O     0.39155   0.90368   0.24501   0.00000  Uiso   1.00
O409   O     0.60845   0.76298   0.25498   0.00000  Uiso   1.00
O410   O     0.63662   0.84063   0.32247   0.00000  Uiso   1.00
O411   O     0.36338   0.82603   0.17753   0.00000  Uiso   1.00
O412   O     0.39764   0.83134   0.31439   0.00000  Uiso   1.00
O413   O     0.60236   0.83533   0.18561   0.00000  Uiso   1.00
O414   O     0.52564   0.79868   0.11962   0.00000  Uiso   1.00
Zn415  Zn    0.60366   0.83954   0.25539   0.00000  Uiso   1.00
Zn416  Zn    0.39634   0.82713   0.24460   0.00000  Uiso   1.00
C417   C     0.68167   0.93154   0.24877   0.00000  Uiso   1.00
C418   C     0.97690   0.82420   0.15985   0.00000  Uiso   1.00
C419   C     0.70537   0.85784   0.39053   0.00000  Uiso   1.00
C420   C     0.96130   0.80884   0.10947   0.00000  Uiso   1.00
C421   C     0.68207   0.88468   0.46979   0.00000  Uiso   1.00
C422   C     0.98460   0.78200   0.03021   0.00000  Uiso   1.00
C423   C     0.99825   0.87340   0.42136   0.00000  Uiso   1.00
C424   C     0.66841   0.79327   0.07864   0.00000  Uiso   1.00
C425   C     0.76310   0.85757   0.40835   0.00000  Uiso   1.00
C426   C     0.90357   0.80911   0.09165   0.00000  Uiso   1.00
C427   C     0.77565   0.85312   0.45695   0.00000  Uiso   1.00
C428   C     0.98500   0.73513   0.25123   0.00000  Uiso   1.00
C429   C     0.89102   0.81355   0.04305   0.00000  Uiso   1.00
C430   C     0.73686   0.87265   0.48814   0.00000  Uiso   1.00
C431   C     0.92981   0.79402   0.01186   0.00000  Uiso   1.00
C432   C     0.82613   0.83141   0.47512   0.00000  Uiso   1.00
C433   C     0.84054   0.83527   0.02488   0.00000  Uiso   1.00
C434   C     0.80591   0.86330   0.05469   0.00000  Uiso   1.00
C435   C     0.86076   0.80338   0.44530   0.00000  Uiso   1.00
C436   C     0.75377   0.88011   0.03671   0.00000  Uiso   1.00
C437   C     0.91290   0.78657   0.46329   0.00000  Uiso   1.00
C438   C     0.68951   0.98607   0.24809   0.00000  Uiso   1.00
C439   C     0.97716   0.68060   0.25191   0.00000  Uiso   1.00
C440   C     0.68977   0.84247   0.34015   0.00000  Uiso   1.00
H441   H     0.72651   0.89854   0.06087   0.00000  Uiso   1.00
H442   H     0.83768   0.87601   0.28444   0.00000  Uiso   1.00
H443   H     0.87065   0.77145   0.14133   0.00000  Uiso   1.00
H444   H     0.79602   0.89523   0.35866   0.00000  Uiso   1.00
H445   H     0.81839   0.87272   0.09215   0.00000  Uiso   1.00
H446   H     0.84828   0.79396   0.40784   0.00000  Uiso   1.00
H447   H     0.94015   0.76814   0.43913   0.00000  Uiso   1.00
H448   H     0.71240   0.78886   0.09198   0.00000  Uiso   1.00
H449   H     0.95427   0.87781   0.40801   0.00000  Uiso   1.00
H450   H     0.98486   0.89905   0.49325   0.00000  Uiso   1.00
H451   H     0.68180   0.76763   0.00675   0.00000  Uiso   1.00
H452   H     0.73259   0.66976   0.24447   0.00000  Uiso   1.00
H453   H     0.93408   0.99690   0.25553   0.00000  Uiso   1.00
H454   H     0.82899   0.79066   0.21556   0.00000  Uiso   1.00
N455   N     0.81362   0.81883   0.23739   0.00000  Uiso   1.00
N456   N     0.85305   0.84784   0.26260   0.00000  Uiso   1.00
O457   O     0.96386   0.91298   0.25309   0.00000  Uiso   1.00
O458   O     0.80769   0.86800   0.38037   0.00000  Uiso   1.00
O459   O     0.70281   0.75369   0.24690   0.00000  Uiso   1.00
O460   O     0.72488   0.90368   0.24501   0.00000  Uiso   1.00
O461   O     0.94178   0.76298   0.25498   0.00000  Uiso   1.00
O462   O     0.96995   0.84063   0.32247   0.00000  Uiso   1.00
O463   O     0.69672   0.82603   0.17753   0.00000  Uiso   1.00
O464   O     0.73098   0.83134   0.31439   0.00000  Uiso   1.00
O465   O     0.93569   0.83533   0.18561   0.00000  Uiso   1.00
O466   O     0.85898   0.79868   0.11962   0.00000  Uiso   1.00
Zn467  Zn    0.93700   0.83954   0.25539   0.00000  Uiso   1.00
Zn468  Zn    0.72967   0.82713   0.24460   0.00000  Uiso   1.00
C469   C     0.01500   0.26487   0.74877   0.00000  Uiso   1.00
C470   C     0.31023   0.15753   0.65985   0.00000  Uiso   1.00
C471   C     0.03870   0.19117   0.89053   0.00000  Uiso   1.00
C472   C     0.29463   0.14217   0.60947   0.00000  Uiso   1.00
C473   C     0.01540   0.21801   0.96979   0.00000  Uiso   1.00
C474   C     0.31793   0.11533   0.53021   0.00000  Uiso   1.00
C475   C     0.33159   0.20674   0.92136   0.00000  Uiso   1.00
C476   C     0.00175   0.12660   0.57864   0.00000  Uiso   1.00
C477   C     0.09643   0.19090   0.90835   0.00000  Uiso   1.00
C478   C     0.23691   0.14244   0.59165   0.00000  Uiso   1.00
C479   C     0.10899   0.18646   0.95695   0.00000  Uiso   1.00
C480   C     0.31833   0.06846   0.75123   0.00000  Uiso   1.00
C481   C     0.22435   0.14689   0.54305   0.00000  Uiso   1.00
C482   C     0.07019   0.20599   0.98814   0.00000  Uiso   1.00
C483   C     0.26314   0.12736   0.51186   0.00000  Uiso   1.00
C484   C     0.15946   0.16475   0.97512   0.00000  Uiso   1.00
C485   C     0.17387   0.16860   0.52488   0.00000  Uiso   1.00
C486   C     0.13924   0.19663   0.55469   0.00000  Uiso   1.00
C487   C     0.19409   0.13671   0.94530   0.00000  Uiso   1.00
C488   C     0.08710   0.21344   0.53671   0.00000  Uiso   1.00
C489   C     0.24624   0.11990   0.96329   0.00000  Uiso   1.00
C490   C     0.02284   0.31940   0.74809   0.00000  Uiso   1.00
C491   C     0.31049   0.01393   0.75191   0.00000  Uiso   1.00
C492   C     0.02310   0.17581   0.84015   0.00000  Uiso   1.00
H493   H     0.05985   0.23187   0.56087   0.00000  Uiso   1.00
H494   H     0.17101   0.20934   0.78444   0.00000  Uiso   1.00
H495   H     0.20398   0.10478   0.64133   0.00000  Uiso   1.00
H496   H     0.12935   0.22856   0.85866   0.00000  Uiso   1.00
H497   H     0.15172   0.20605   0.59215   0.00000  Uiso   1.00
H498   H     0.18161   0.12729   0.90784   0.00000  Uiso   1.00
H499   H     0.27349   0.10147   0.93913   0.00000  Uiso   1.00
H500   H     0.04573   0.12220   0.59198   0.00000  Uiso   1.00
H501   H     0.28760   0.21114   0.90801   0.00000  Uiso   1.00
H502   H     0.31820   0.23238   0.99325   0.00000  Uiso   1.00
H503   H     0.01514   0.10096   0.50675   0.00000  Uiso   1.00
H504   H     0.06592   0.00310   0.74447   0.00000  Uiso   1.00
H505   H     0.26741   0.33024   0.75553   0.00000  Uiso   1.00
H506   H     0.16232   0.12399   0.71556   0.00000  Uiso   1.00
N507   N     0.14695   0.15216   0.73739   0.00000  Uiso   1.00
N508   N     0.18638   0.18117   0.76260   0.00000  Uiso   1.00
O509   O     0.29719   0.24631   0.75309   0.00000  Uiso   1.00
O510   O     0.14102   0.20133   0.88037   0.00000  Uiso   1.00
O511   O     0.03614   0.08702   0.74690   0.00000  Uiso   1.00
O512   O     0.05822   0.23702   0.74501   0.00000  Uiso   1.00
O513   O     0.27512   0.09632   0.75498   0.00000  Uiso   1.00
O514   O     0.30328   0.17397   0.82247   0.00000  Uiso   1.00
O515   O     0.03005   0.15937   0.67753   0.00000  Uiso   1.00
O516   O     0.06431   0.16467   0.81439   0.00000  Uiso   1.00
O517   O     0.26902   0.16866   0.68561   0.00000  Uiso   1.00
O518   O     0.19231   0.13201   0.61962   0.00000  Uiso   1.00
Zn519  Zn    0.27033   0.17287   0.75539   0.00000  Uiso   1.00
Zn520  Zn    0.06300   0.16046   0.74460   0.00000  Uiso   1.00
C521   C     0.34833   0.26487   0.74877   0.00000  Uiso   1.00
C522   C     0.64356   0.15753   0.65985   0.00000  Uiso   1.00
C523   C     0.37204   0.19117   0.89053   0.00000  Uiso   1.00
C524   C     0.62796   0.14217   0.60947   0.00000  Uiso   1.00
C525   C     0.34874   0.21801   0.96979   0.00000  Uiso   1.00
C526   C     0.65126   0.11533   0.53021   0.00000  Uiso   1.00
C527   C     0.66492   0.20674   0.92136   0.00000  Uiso   1.00
C528   C     0.33508   0.12660   0.57864   0.00000  Uiso   1.00
C529   C     0.42976   0.19090   0.90835   0.00000  Uiso   1.00
C530   C     0.57024   0.14244   0.59165   0.00000  Uiso   1.00
C531   C     0.44232   0.18646   0.95695   0.00000  Uiso   1.00
C532   C     0.65167   0.06846   0.75123   0.00000  Uiso   1.00
C533   C     0.55768   0.14689   0.54305   0.00000  Uiso   1.00
C534   C     0.40352   0.20599   0.98814   0.00000  Uiso   1.00
C535   C     0.59648   0.12736   0.51186   0.00000  Uiso   1.00
C536   C     0.49280   0.16475   0.97512   0.00000  Uiso   1.00
C537   C     0.50721   0.16860   0.52488   0.00000  Uiso   1.00
C538   C     0.47258   0.19663   0.55469   0.00000  Uiso   1.00
C539   C     0.52742   0.13671   0.94530   0.00000  Uiso   1.00
C540   C     0.42043   0.21344   0.53671   0.00000  Uiso   1.00
C541   C     0.57957   0.11990   0.96329   0.00000  Uiso   1.00
C542   C     0.35617   0.31940   0.74809   0.00000  Uiso   1.00
C543   C     0.64383   0.01393   0.75191   0.00000  Uiso   1.00
C544   C     0.35644   0.17581   0.84015   0.00000  Uiso   1.00
H545   H     0.39318   0.23187   0.56087   0.00000  Uiso   1.00
H546   H     0.50434   0.20934   0.78444   0.00000  Uiso   1.00
H547   H     0.53731   0.10478   0.64133   0.00000  Uiso   1.00
H548   H     0.46268   0.22856   0.85866   0.00000  Uiso   1.00
H549   H     0.48505   0.20605   0.59215   0.00000  Uiso   1.00
H550   H     0.51495   0.12729   0.90784   0.00000  Uiso   1.00
H551   H     0.60682   0.10147   0.93913   0.00000  Uiso   1.00
H552   H     0.37907   0.12220   0.59198   0.00000  Uiso   1.00
H553   H     0.62093   0.21114   0.90801   0.00000  Uiso   1.00
H554   H     0.65153   0.23238   0.99325   0.00000  Uiso   1.00
H555   H     0.34847   0.10096   0.50675   0.00000  Uiso   1.00
H556   H     0.39926   0.00310   0.74447   0.00000  Uiso   1.00
H557   H     0.60074   0.33024   0.75553   0.00000  Uiso   1.00
H558   H     0.49566   0.12399   0.71556   0.00000  Uiso   1.00
N559   N     0.48029   0.15216   0.73739   0.00000  Uiso   1.00
N560   N     0.51971   0.18117   0.76260   0.00000  Uiso   1.00
O561   O     0.63052   0.24631   0.75309   0.00000  Uiso   1.00
O562   O     0.47436   0.20133   0.88037   0.00000  Uiso   1.00
O563   O     0.36948   0.08702   0.74690   0.00000  Uiso   1.00
O564   O     0.39155   0.23702   0.74501   0.00000  Uiso   1.00
O565   O     0.60845   0.09632   0.75498   0.00000  Uiso   1.00
O566   O     0.63662   0.17397   0.82247   0.00000  Uiso   1.00
O567   O     0.36338   0.15937   0.67753   0.00000  Uiso   1.00
O568   O     0.39764   0.16467   0.81439   0.00000  Uiso   1.00
O569   O     0.60236   0.16866   0.68561   0.00000  Uiso   1.00
O570   O     0.52564   0.13201   0.61962   0.00000  Uiso   1.00
Zn571  Zn    0.60366   0.17287   0.75539   0.00000  Uiso   1.00
Zn572  Zn    0.39634   0.16046   0.74460   0.00000  Uiso   1.00
C573   C     0.68167   0.26487   0.74877   0.00000  Uiso   1.00
C574   C     0.97690   0.15753   0.65985   0.00000  Uiso   1.00
C575   C     0.70537   0.19117   0.89053   0.00000  Uiso   1.00
C576   C     0.96130   0.14217   0.60947   0.00000  Uiso   1.00
C577   C     0.68207   0.21801   0.96979   0.00000  Uiso   1.00
C578   C     0.98460   0.11533   0.53021   0.00000  Uiso   1.00
C579   C     0.99825   0.20674   0.92136   0.00000  Uiso   1.00
C580   C     0.66841   0.12660   0.57864   0.00000  Uiso   1.00
C581   C     0.76310   0.19090   0.90835   0.00000  Uiso   1.00
C582   C     0.90357   0.14244   0.59165   0.00000  Uiso   1.00
C583   C     0.77565   0.18646   0.95695   0.00000  Uiso   1.00
C584   C     0.98500   0.06846   0.75123   0.00000  Uiso   1.00
C585   C     0.89102   0.14689   0.54305   0.00000  Uiso   1.00
C586   C     0.73686   0.20599   0.98814   0.00000  Uiso   1.00
C587   C     0.92981   0.12736   0.51186   0.00000  Uiso   1.00
C588   C     0.82613   0.16475   0.97512   0.00000  Uiso   1.00
C589   C     0.84054   0.16860   0.52488   0.00000  Uiso   1.00
C590   C     0.80591   0.19663   0.55469   0.00000  Uiso   1.00
C591   C     0.86076   0.13671   0.94530   0.00000  Uiso   1.00
C592   C     0.75377   0.21344   0.53671   0.00000  Uiso   1.00
C593   C     0.91290   0.11990   0.96329   0.00000  Uiso   1.00
C594   C     0.68951   0.31940   0.74809   0.00000  Uiso   1.00
C595   C     0.97716   0.01393   0.75191   0.00000  Uiso   1.00
C596   C     0.68977   0.17581   0.84015   0.00000  Uiso   1.00
H597   H     0.72651   0.23187   0.56087   0.00000  Uiso   1.00
H598   H     0.83768   0.20934   0.78444   0.00000  Uiso   1.00
H599   H     0.87065   0.10478   0.64133   0.00000  Uiso   1.00
H600   H     0.79602   0.22856   0.85866   0.00000  Uiso   1.00
H601   H     0.81839   0.20605   0.59215   0.00000  Uiso   1.00
H602   H     0.84828   0.12729   0.90784   0.00000  Uiso   1.00
H603   H     0.94015   0.10147   0.93913   0.00000  Uiso   1.00
H604   H     0.71240   0.12220   0.59198   0.00000  Uiso   1.00
H605   H     0.95427   0.21114   0.90801   0.00000  Uiso   1.00
H606   H     0.98486   0.23238   0.99325   0.00000  Uiso   1.00
H607   H     0.68180   0.10096   0.50675   0.00000  Uiso   1.00
H608   H     0.73259   0.00310   0.74447   0.00000  Uiso   1.00
H609   H     0.93408   0.33024   0.75553   0.00000  Uiso   1.00
H610   H     0.82899   0.12399   0.71556   0.00000  Uiso   1.00
N611   N     0.81362   0.15216   0.73739   0.00000  Uiso   1.00
N612   N     0.85305   0.18117   0.76260   0.00000  Uiso   1.00
O613   O     0.96386   0.24631   0.75309   0.00000  Uiso   1.00
O614   O     0.80769   0.20133   0.88037   0.00000  Uiso   1.00
O615   O     0.70281   0.08702   0.74690   0.00000  Uiso   1.00
O616   O     0.72488   0.23702   0.74501   0.00000  Uiso   1.00
O617   O     0.94178   0.09632   0.75498   0.00000  Uiso   1.00
O618   O     0.96995   0.17397   0.82247   0.00000  Uiso   1.00
O619   O     0.69672   0.15937   0.67753   0.00000  Uiso   1.00
O620   O     0.73098   0.16467   0.81439   0.00000  Uiso   1.00
O621   O     0.93569   0.16866   0.68561   0.00000  Uiso   1.00
O622   O     0.85898   0.13201   0.61962   0.00000  Uiso   1.00
Zn623  Zn    0.93700   0.17287   0.75539   0.00000  Uiso   1.00
Zn624  Zn    0.72967   0.16046   0.74460   0.00000  Uiso   1.00
C625   C     0.01500   0.59821   0.74877   0.00000  Uiso   1.00
C626   C     0.31023   0.49086   0.65985   0.00000  Uiso   1.00
C627   C     0.03870   0.52450   0.89053   0.00000  Uiso   1.00
C628   C     0.29463   0.47550   0.60947   0.00000  Uiso   1.00
C629   C     0.01540   0.55134   0.96979   0.00000  Uiso   1.00
C630   C     0.31793   0.44867   0.53021   0.00000  Uiso   1.00
C631   C     0.33159   0.54007   0.92136   0.00000  Uiso   1.00
C632   C     0.00175   0.45994   0.57864   0.00000  Uiso   1.00
C633   C     0.09643   0.52424   0.90835   0.00000  Uiso   1.00
C634   C     0.23691   0.47577   0.59165   0.00000  Uiso   1.00
C635   C     0.10899   0.51979   0.95695   0.00000  Uiso   1.00
C636   C     0.31833   0.40179   0.75123   0.00000  Uiso   1.00
C637   C     0.22435   0.48022   0.54305   0.00000  Uiso   1.00
C638   C     0.07019   0.53932   0.98814   0.00000  Uiso   1.00
C639   C     0.26314   0.46069   0.51186   0.00000  Uiso   1.00
C640   C     0.15946   0.49808   0.97512   0.00000  Uiso   1.00
C641   C     0.17387   0.50193   0.52488   0.00000  Uiso   1.00
C642   C     0.13924   0.52997   0.55469   0.00000  Uiso   1.00
C643   C     0.19409   0.47005   0.94530   0.00000  Uiso   1.00
C644   C     0.08710   0.54678   0.53671   0.00000  Uiso   1.00
C645   C     0.24624   0.45324   0.96329   0.00000  Uiso   1.00
C646   C     0.02284   0.65273   0.74809   0.00000  Uiso   1.00
C647   C     0.31049   0.34727   0.75191   0.00000  Uiso   1.00
C648   C     0.02310   0.50914   0.84015   0.00000  Uiso   1.00
H649   H     0.05985   0.56520   0.56087   0.00000  Uiso   1.00
H650   H     0.17101   0.54268   0.78444   0.00000  Uiso   1.00
H651   H     0.20398   0.43811   0.64133   0.00000  Uiso   1.00
H652   H     0.12935   0.56189   0.85866   0.00000  Uiso   1.00
H653   H     0.15172   0.53939   0.59215   0.00000  Uiso   1.00
H654   H     0.18161   0.46063   0.90784   0.00000  Uiso   1.00
H655   H     0.27349   0.43481   0.93913   0.00000  Uiso   1.00
H656   H     0.04573   0.45553   0.59198   0.00000  Uiso   1.00
H657   H     0.28760   0.54447   0.90801   0.00000  Uiso   1.00
H658   H     0.31820   0.56571   0.99325   0.00000  Uiso   1.00
H659   H     0.01514   0.43429   0.50675   0.00000  Uiso   1.00
H660   H     0.06592   0.33643   0.74447   0.00000  Uiso   1.00
H661   H     0.26741   0.66357   0.75553   0.00000  Uiso   1.00
H662   H     0.16232   0.45732   0.71556   0.00000  Uiso   1.00
N663   N     0.14695   0.48550   0.73739   0.00000  Uiso   1.00
N664   N     0.18638   0.51450   0.76260   0.00000  Uiso   1.00
O665   O     0.29719   0.57964   0.75309   0.00000  Uiso   1.00
O666   O     0.14102   0.53466   0.88037   0.00000  Uiso   1.00
O667   O     0.03614   0.42036   0.74690   0.00000  Uiso   1.00
O668   O     0.05822   0.57035   0.74501   0.00000  Uiso   1.00
O669   O     0.27512   0.42965   0.75498   0.00000  Uiso   1.00
O670   O     0.30328   0.50730   0.82247   0.00000  Uiso   1.00
O671   O     0.03005   0.49270   0.67753   0.00000  Uiso   1.00
O672   O     0.06431   0.49801   0.81439   0.00000  Uiso   1.00
O673   O     0.26902   0.50199   0.68561   0.00000  Uiso   1.00
O674   O     0.19231   0.46535   0.61962   0.00000  Uiso   1.00
Zn675  Zn    0.27033   0.50621   0.75539   0.00000  Uiso   1.00
Zn676  Zn    0.06300   0.49379   0.74460   0.00000  Uiso   1.00
C677   C     0.34833   0.59821   0.74877   0.00000  Uiso   1.00
C678   C     0.64356   0.49086   0.65985   0.00000  Uiso   1.00
C679   C     0.37204   0.52450   0.89053   0.00000  Uiso   1.00
C680   C     0.62796   0.47550   0.60947   0.00000  Uiso   1.00
C681   C     0.34874   0.55134   0.96979   0.00000  Uiso   1.00
C682   C     0.65126   0.44867   0.53021   0.00000  Uiso   1.00
C683   C     0.66492   0.54007   0.92136   0.00000  Uiso   1.00
C684   C     0.33508   0.45994   0.57864   0.00000  Uiso   1.00
C685   C     0.42976   0.52424   0.90835   0.00000  Uiso   1.00
C686   C     0.57024   0.47577   0.59165   0.00000  Uiso   1.00
C687   C     0.44232   0.51979   0.95695   0.00000  Uiso   1.00
C688   C     0.65167   0.40179   0.75123   0.00000  Uiso   1.00
C689   C     0.55768   0.48022   0.54305   0.00000  Uiso   1.00
C690   C     0.40352   0.53932   0.98814   0.00000  Uiso   1.00
C691   C     0.59648   0.46069   0.51186   0.00000  Uiso   1.00
C692   C     0.49280   0.49808   0.97512   0.00000  Uiso   1.00
C693   C     0.50721   0.50193   0.52488   0.00000  Uiso   1.00
C694   C     0.47258   0.52997   0.55469   0.00000  Uiso   1.00
C695   C     0.52742   0.47005   0.94530   0.00000  Uiso   1.00
C696   C     0.42043   0.54678   0.53671   0.00000  Uiso   1.00
C697   C     0.57957   0.45324   0.96329   0.00000  Uiso   1.00
C698   C     0.35617   0.65273   0.74809   0.00000  Uiso   1.00
C699   C     0.64383   0.34727   0.75191   0.00000  Uiso   1.00
C700   C     0.35644   0.50914   0.84015   0.00000  Uiso   1.00
H701   H     0.39318   0.56520   0.56087   0.00000  Uiso   1.00
H702   H     0.50434   0.54268   0.78444   0.00000  Uiso   1.00
H703   H     0.53731   0.43811   0.64133   0.00000  Uiso   1.00
H704   H     0.46268   0.56189   0.85866   0.00000  Uiso   1.00
H705   H     0.48505   0.53939   0.59215   0.00000  Uiso   1.00
H706   H     0.51495   0.46063   0.90784   0.00000  Uiso   1.00
H707   H     0.60682   0.43481   0.93913   0.00000  Uiso   1.00
H708   H     0.37907   0.45553   0.59198   0.00000  Uiso   1.00
H709   H     0.62093   0.54447   0.90801   0.00000  Uiso   1.00
H710   H     0.65153   0.56571   0.99325   0.00000  Uiso   1.00
H711   H     0.34847   0.43429   0.50675   0.00000  Uiso   1.00
H712   H     0.39926   0.33643   0.74447   0.00000  Uiso   1.00
H713   H     0.60074   0.66357   0.75553   0.00000  Uiso   1.00
H714   H     0.49566   0.45732   0.71556   0.00000  Uiso   1.00
N715   N     0.48029   0.48550   0.73739   0.00000  Uiso   1.00
N716   N     0.51971   0.51450   0.76260   0.00000  Uiso   1.00
O717   O     0.63052   0.57964   0.75309   0.00000  Uiso   1.00
O718   O     0.47436   0.53466   0.88037   0.00000  Uiso   1.00
O719   O     0.36948   0.42036   0.74690   0.00000  Uiso   1.00
O720   O     0.39155   0.57035   0.74501   0.00000  Uiso   1.00
O721   O     0.60845   0.42965   0.75498   0.00000  Uiso   1.00
O722   O     0.63662   0.50730   0.82247   0.00000  Uiso   1.00
O723   O     0.36338   0.49270   0.67753   0.00000  Uiso   1.00
O724   O     0.39764   0.49801   0.81439   0.00000  Uiso   1.00
O725   O     0.60236   0.50199   0.68561   0.00000  Uiso   1.00
O726   O     0.52564   0.46535   0.61962   0.00000  Uiso   1.00
Zn727  Zn    0.60366   0.50621   0.75539   0.00000  Uiso   1.00
Zn728  Zn    0.39634   0.49379   0.74460   0.00000  Uiso   1.00
C729   C     0.68167   0.59821   0.74877   0.00000  Uiso   1.00
C730   C     0.97690   0.49086   0.65985   0.00000  Uiso   1.00
C731   C     0.70537   0.52450   0.89053   0.00000  Uiso   1.00
C732   C     0.96130   0.47550   0.60947   0.00000  Uiso   1.00
C733   C     0.68207   0.55134   0.96979   0.00000  Uiso   1.00
C734   C     0.98460   0.44867   0.53021   0.00000  Uiso   1.00
C735   C     0.99825   0.54007   0.92136   0.00000  Uiso   1.00
C736   C     0.66841   0.45994   0.57864   0.00000  Uiso   1.00
C737   C     0.76310   0.52424   0.90835   0.00000  Uiso   1.00
C738   C     0.90357   0.47577   0.59165   0.00000  Uiso   1.00
C739   C     0.77565   0.51979   0.95695   0.00000  Uiso   1.00
C740   C     0.98500   0.40179   0.75123   0.00000  Uiso   1.00
C741   C     0.89102   0.48022   0.54305   0.00000  Uiso   1.00
C742   C     0.73686   0.53932   0.98814   0.00000  Uiso   1.00
C743   C     0.92981   0.46069   0.51186   0.00000  Uiso   1.00
C744   C     0.82613   0.49808   0.97512   0.00000  Uiso   1.00
C745   C     0.84054   0.50193   0.52488   0.00000  Uiso   1.00
C746   C     0.80591   0.52997   0.55469   0.00000  Uiso   1.00
C747   C     0.86076   0.47005   0.94530   0.00000  Uiso   1.00
C748   C     0.75377   0.54678   0.53671   0.00000  Uiso   1.00
C749   C     0.91290   0.45324   0.96329   0.00000  Uiso   1.00
C750   C     0.68951   0.65273   0.74809   0.00000  Uiso   1.00
C751   C     0.97716   0.34727   0.75191   0.00000  Uiso   1.00
C752   C     0.68977   0.50914   0.84015   0.00000  Uiso   1.00
H753   H     0.72651   0.56520   0.56087   0.00000  Uiso   1.00
H754   H     0.83768   0.54268   0.78444   0.00000  Uiso   1.00
H755   H     0.87065   0.43811   0.64133   0.00000  Uiso   1.00
H756   H     0.79602   0.56189   0.85866   0.00000  Uiso   1.00
H757   H     0.81839   0.53939   0.59215   0.00000  Uiso   1.00
H758   H     0.84828   0.46063   0.90784   0.00000  Uiso   1.00
H759   H     0.94015   0.43481   0.93913   0.00000  Uiso   1.00
H760   H     0.71240   0.45553   0.59198   0.00000  Uiso   1.00
H761   H     0.95427   0.54447   0.90801   0.00000  Uiso   1.00
H762   H     0.98486   0.56571   0.99325   0.00000  Uiso   1.00
H763   H     0.68180   0.43429   0.50675   0.00000  Uiso   1.00
H764   H     0.73259   0.33643   0.74447   0.00000  Uiso   1.00
H765   H     0.93408   0.66357   0.75553   0.00000  Uiso   1.00
H766   H     0.82899   0.45732   0.71556   0.00000  Uiso   1.00
N767   N     0.81362   0.48550   0.73739   0.00000  Uiso   1.00
N768   N     0.85305   0.51450   0.76260   0.00000  Uiso   1.00
O769   O     0.96386   0.57964   0.75309   0.00000  Uiso   1.00
O770   O     0.80769   0.53466   0.88037   0.00000  Uiso   1.00
O771   O     0.70281   0.42036   0.74690   0.00000  Uiso   1.00
O772   O     0.72488   0.57035   0.74501   0.00000  Uiso   1.00
O773   O     0.94178   0.42965   0.75498   0.00000  Uiso   1.00
O774   O     0.96995   0.50730   0.82247   0.00000  Uiso   1.00
O775   O     0.69672   0.49270   0.67753   0.00000  Uiso   1.00
O776   O     0.73098   0.49801   0.81439   0.00000  Uiso   1.00
O777   O     0.93569   0.50199   0.68561   0.00000  Uiso   1.00
O778   O     0.85898   0.46535   0.61962   0.00000  Uiso   1.00
Zn779  Zn    0.93700   0.50621   0.75539   0.00000  Uiso   1.00
Zn780  Zn    0.72967   0.49379   0.74460   0.00000  Uiso   1.00
C781   C     0.01500   0.93154   0.74877   0.00000  Uiso   1.00
C782   C     0.31023   0.82420   0.65985   0.00000  Uiso   1.00
C783   C     0.03870   0.85784   0.89053   0.00000  Uiso   1.00
C784   C     0.29463   0.80884   0.60947   0.00000  Uiso   1.00
C785   C     0.01540   0.88468   0.96979   0.00000  Uiso   1.00
C786   C     0.31793   0.78200   0.53021   0.00000  Uiso   1.00
C787   C     0.33159   0.87340   0.92136   0.00000  Uiso   1.00
C788   C     0.00175   0.79327   0.57864   0.00000  Uiso   1.00
C789   C     0.09643   0.85757   0.90835   0.00000  Uiso   1.00
C790   C     0.23691   0.80911   0.59165   0.00000  Uiso   1.00
C791   C     0.10899   0.85312   0.95695   0.00000  Uiso   1.00
C792   C     0.31833   0.73513   0.75123   0.00000  Uiso   1.00
C793   C     0.22435   0.81355   0.54305   0.00000  Uiso   1.00
C794   C     0.07019   0.87265   0.98814   0.00000  Uiso   1.00
C795   C     0.26314   0.79402   0.51186   0.00000  Uiso   1.00
C796   C     0.15946   0.83141   0.97512   0.00000  Uiso   1.00
C797   C     0.17387   0.83527   0.52488   0.00000  Uiso   1.00
C798   C     0.13924   0.86330   0.55469   0.00000  Uiso   1.00
C799   C     0.19409   0.80338   0.94530   0.00000  Uiso   1.00
C800   C     0.08710   0.88011   0.53671   0.00000  Uiso   1.00
C801   C     0.24624   0.78657   0.96329   0.00000  Uiso   1.00
C802   C     0.02284   0.98607   0.74809   0.00000  Uiso   1.00
C803   C     0.31049   0.68060   0.75191   0.00000  Uiso   1.00
C804   C     0.02310   0.84247   0.84015   0.00000  Uiso   1.00
H805   H     0.05985   0.89854   0.56087   0.00000  Uiso   1.00
H806   H     0.17101   0.87601   0.78444   0.00000  Uiso   1.00
H807   H     0.20398   0.77145   0.64133   0.00000  Uiso   1.00
H808   H     0.12935   0.89523   0.85866   0.00000  Uiso   1.00
H809   H     0.15172   0.87272   0.59215   0.00000  Uiso   1.00
H810   H     0.18161   0.79396   0.90784   0.00000  Uiso   1.00
H811   H     0.27349   0.76814   0.93913   0.00000  Uiso   1.00
H812   H     0.04573   0.78886   0.59198   0.00000  Uiso   1.00
H813   H     0.28760   0.87781   0.90801   0.00000  Uiso   1.00
H814   H     0.31820   0.89905   0.99325   0.00000  Uiso   1.00
H815   H     0.01514   0.76763   0.50675   0.00000  Uiso   1.00
H816   H     0.06592   0.66976   0.74447   0.00000  Uiso   1.00
H817   H     0.26741   0.99690   0.75553   0.00000  Uiso   1.00
H818   H     0.16232   0.79066   0.71556   0.00000  Uiso   1.00
N819   N     0.14695   0.81883   0.73739   0.00000  Uiso   1.00
N820   N     0.18638   0.84784   0.76260   0.00000  Uiso   1.00
O821   O     0.29719   0.91298   0.75309   0.00000  Uiso   1.00
O822   O     0.14102   0.86800   0.88037   0.00000  Uiso   1.00
O823   O     0.03614   0.75369   0.74690   0.00000  Uiso   1.00
O824   O     0.05822   0.90368   0.74501   0.00000  Uiso   1.00
O825   O     0.27512   0.76298   0.75498   0.00000  Uiso   1.00
O826   O     0.30328   0.84063   0.82247   0.00000  Uiso   1.00
O827   O     0.03005   0.82603   0.67753   0.00000  Uiso   1.00
O828   O     0.06431   0.83134   0.81439   0.00000  Uiso   1.00
O829   O     0.26902   0.83533   0.68561   0.00000  Uiso   1.00
O830   O     0.19231   0.79868   0.61962   0.00000  Uiso   1.00
Zn831  Zn    0.27033   0.83954   0.75539   0.00000  Uiso   1.00
Zn832  Zn    0.06300   0.82713   0.74460   0.00000  Uiso   1.00
C833   C     0.34833   0.93154   0.74877   0.00000  Uiso   1.00
C834   C     0.64356   0.82420   0.65985   0.00000  Uiso   1.00
C835   C     0.37204   0.85784   0.89053   0.00000  Uiso   1.00
C836   C     0.62796   0.80884   0.60947   0.00000  Uiso   1.00
C837   C     0.34874   0.88468   0.96979   0.00000  Uiso   1.00
C838   C     0.65126   0.78200   0.53021   0.00000  Uiso   1.00
C839   C     0.66492   0.87340   0.92136   0.00000  Uiso   1.00
C840   C     0.33508   0.79327   0.57864   0.00000  Uiso   1.00
C841   C     0.42976   0.85757   0.90835   0.00000  Uiso   1.00
C842   C     0.57024   0.80911   0.59165   0.00000  Uiso   1.00
C843   C     0.44232   0.85312   0.95695   0.00000  Uiso   1.00
C844   C     0.65167   0.73513   0.75123   0.00000  Uiso   1.00
C845   C     0.55768   0.81355   0.54305   0.00000  Uiso   1.00
C846   C     0.40352   0.87265   0.98814   0.00000  Uiso   1.00
C847   C     0.59648   0.79402   0.51186   0.00000  Uiso   1.00
C848   C     0.49280   0.83141   0.97512   0.00000  Uiso   1.00
C849   C     0.50721   0.83527   0.52488   0.00000  Uiso   1.00
C850   C     0.47258   0.86330   0.55469   0.00000  Uiso   1.00
C851   C     0.52742   0.80338   0.94530   0.00000  Uiso   1.00
C852   C     0.42043   0.88011   0.53671   0.00000  Uiso   1.00
C853   C     0.57957   0.78657   0.96329   0.00000  Uiso   1.00
C854   C     0.35617   0.98607   0.74809   0.00000  Uiso   1.00
C855   C     0.64383   0.68060   0.75191   0.00000  Uiso   1.00
C856   C     0.35644   0.84247   0.84015   0.00000  Uiso   1.00
H857   H     0.39318   0.89854   0.56087   0.00000  Uiso   1.00
H858   H     0.50434   0.87601   0.78444   0.00000  Uiso   1.00
H859   H     0.53731   0.77145   0.64133   0.00000  Uiso   1.00
H860   H     0.46268   0.89523   0.85866   0.00000  Uiso   1.00
H861   H     0.48505   0.87272   0.59215   0.00000  Uiso   1.00
H862   H     0.51495   0.79396   0.90784   0.00000  Uiso   1.00
H863   H     0.60682   0.76814   0.93913   0.00000  Uiso   1.00
H864   H     0.37907   0.78886   0.59198   0.00000  Uiso   1.00
H865   H     0.62093   0.87781   0.90801   0.00000  Uiso   1.00
H866   H     0.65153   0.89905   0.99325   0.00000  Uiso   1.00
H867   H     0.34847   0.76763   0.50675   0.00000  Uiso   1.00
H868   H     0.39926   0.66976   0.74447   0.00000  Uiso   1.00
H869   H     0.60074   0.99690   0.75553   0.00000  Uiso   1.00
H870   H     0.49566   0.79066   0.71556   0.00000  Uiso   1.00
N871   N     0.48029   0.81883   0.73739   0.00000  Uiso   1.00
N872   N     0.51971   0.84784   0.76260   0.00000  Uiso   1.00
O873   O     0.63052   0.91298   0.75309   0.00000  Uiso   1.00
O874   O     0.47436   0.86800   0.88037   0.00000  Uiso   1.00
O875   O     0.36948   0.75369   0.74690   0.00000  Uiso   1.00
O876   O     0.39155   0.90368   0.74501   0.00000  Uiso   1.00
O877   O     0.60845   0.76298   0.75498   0.00000  Uiso   1.00
O878   O     0.63662   0.84063   0.82247   0.00000  Uiso   1.00
O879   O     0.36338   0.82603   0.67753   0.00000  Uiso   1.00
O880   O     0.39764   0.83134   0.81439   0.00000  Uiso   1.00
O881   O     0.60236   0.83533   0.68561   0.00000  Uiso   1.00
O882   O     0.52564   0.79868   0.61962   0.00000  Uiso   1.00
Zn883  Zn    0.60366   0.83954   0.75539   0.00000  Uiso   1.00
Zn884  Zn    0.39634   0.82713   0.74460   0.00000  Uiso   1.00
C885   C     0.68167   0.93154   0.74877   0.00000  Uiso   1.00
C886   C     0.97690   0.82420   0.65985   0.00000  Uiso   1.00
C887   C     0.70537   0.85784   0.89053   0.00000  Uiso   1.00
C888   C     0.96130   0.80884   0.60947   0.00000  Uiso   1.00
C889   C     0.68207   0.88468   0.96979   0.00000  Uiso   1.00
C890   C     0.98460   0.78200   0.53021   0.00000  Uiso   1.00
C891   C     0.99825   0.87340   0.92136   0.00000  Uiso   1.00
C892   C     0.66841   0.79327   0.57864   0.00000  Uiso   1.00
C893   C     0.76310   0.85757   0.90835   0.00000  Uiso   1.00
C894   C     0.90357   0.80911   0.59165   0.00000  Uiso   1.00
C895   C     0.77565   0.85312   0.95695   0.00000  Uiso   1.00
C896   C     0.98500   0.73513   0.75123   0.00000  Uiso   1.00
C897   C     0.89102   0.81355   0.54305   0.00000  Uiso   1.00
C898   C     0.73686   0.87265   0.98814   0.00000  Uiso   1.00
C899   C     0.92981   0.79402   0.51186   0.00000  Uiso   1.00
C900   C     0.82613   0.83141   0.97512   0.00000  Uiso   1.00
C901   C     0.84054   0.83527   0.52488   0.00000  Uiso   1.00
C902   C     0.80591   0.86330   0.55469   0.00000  Uiso   1.00
C903   C     0.86076   0.80338   0.94530   0.00000  Uiso   1.00
C904   C     0.75377   0.88011   0.53671   0.00000  Uiso   1.00
C905   C     0.91290   0.78657   0.96329   0.00000  Uiso   1.00
C906   C     0.68951   0.98607   0.74809   0.00000  Uiso   1.00
C907   C     0.97716   0.68060   0.75191   0.00000  Uiso   1.00
C908   C     0.68977   0.84247   0.84015   0.00000  Uiso   1.00
H909   H     0.72651   0.89854   0.56087   0.00000  Uiso   1.00
H910   H     0.83768   0.87601   0.78444   0.00000  Uiso   1.00
H911   H     0.87065   0.77145   0.64133   0.00000  Uiso   1.00
H912   H     0.79602   0.89523   0.85866   0.00000  Uiso   1.00
H913   H     0.81839   0.87272   0.59215   0.00000  Uiso   1.00
H914   H     0.84828   0.79396   0.90784   0.00000  Uiso   1.00
H915   H     0.94015   0.76814   0.93913   0.00000  Uiso   1.00
H916   H     0.71240   0.78886   0.59198   0.00000  Uiso   1.00
H917   H     0.95427   0.87781   0.90801   0.00000  Uiso   1.00
H918   H     0.98486   0.89905   0.99325   0.00000  Uiso   1.00
H919   H     0.68180   0.76763   0.50675   0.00000  Uiso   1.00
H920   H     0.73259   0.66976   0.74447   0.00000  Uiso   1.00
H921   H     0.93408   0.99690   0.75553   0.00000  Uiso   1.00
H922   H     0.82899   0.79066   0.71556   0.00000  Uiso   1.00
N923   N     0.81362   0.81883   0.73739   0.00000  Uiso   1.00
N924   N     0.85305   0.84784   0.76260   0.00000  Uiso   1.00
O925   O     0.96386   0.91298   0.75309   0.00000  Uiso   1.00
O926   O     0.80769   0.86800   0.88037   0.00000  Uiso   1.00
O927   O     0.70281   0.75369   0.74690   0.00000  Uiso   1.00
O928   O     0.72488   0.90368   0.74501   0.00000  Uiso   1.00
O929   O     0.94178   0.76298   0.75498   0.00000  Uiso   1.00
O930   O     0.96995   0.84063   0.82247   0.00000  Uiso   1.00
O931   O     0.69672   0.82603   0.67753   0.00000  Uiso   1.00
O932   O     0.73098   0.83134   0.81439   0.00000  Uiso   1.00
O933   O     0.93569   0.83533   0.68561   0.00000  Uiso   1.00
O934   O     0.85898   0.79868   0.61962   0.00000  Uiso   1.00
Zn935  Zn    0.93700   0.83954   0.75539   0.00000  Uiso   1.00
Zn936  Zn    0.72967   0.82713   0.74460   0.00000  Uiso   1.00
loop_
_geom_bond_atom_site_label_1
_geom_bond_atom_site_label_2
_geom_bond_distance
_geom_bond_site_symmetry_2
_ccdc_geom_bond_type
C1     O44     1.289   .     A
C1     C22     1.403   .     S
C1     O145    1.277   1_455 S
C2     C4      1.460   .     S
C2     O49     1.294   .     A
C2     O99     1.299   .     S
C3     C9      1.404   .     A
C3     C24     1.460   .     S
C3     C111    1.402   1_455 S
C4     C10     1.404   .     A
C4     C60     1.402   .     S
C5     C14     1.404   .     A
C5     C111    1.397   1_455 S
C5     H138    1.084   1_455 S
C6     C15     1.404   .     A
C6     C60     1.397   .     S
C6     H87     1.084   .     S
C7     H33     1.083   .     S
C7     C55     1.402   .     S
C7     C57     1.397   .     S
C8     H32     1.083   .     S
C8     C110    1.397   1_455 S
C8     C108    1.402   1_455 S
C9     C11     1.387   .     A
C9     O42     1.381   .     S
C10    O50     1.381   .     S
C10    C13     1.387   .     A
C11    C16     1.412   .     A
C11    C14     1.414   .     A
C12    C23     1.403   .     S
C12    O45     1.289   .     A
C12    O95     1.277   .     S
C13    C17     1.412   .     A
C13    C15     1.414   .     A
C14    C488    1.390   .     S
C15    C489    1.390   1_554 S
C16    C19     1.419   .     A
C16    C485    1.409   .     S
C17    C18     1.419   .     A
C17    C484    1.409   1_554 S
C18    C20     1.389   .     A
C18    H29     1.080   .     S
C19    C21     1.389   .     A
C19    H30     1.080   .     S
C20    H25     1.084   .     S
C20    C482    1.390   1_554 S
C21    H31     1.084   .     S
C21    C483    1.390   .     S
C22    C283    1.338   1_455 S
C22    H192    1.088   .     S
C23    C386    1.338   1_545 S
C23    H349    1.088   1_545 S
C24    O48     1.294   .     A
C24    O150    1.299   1_455 S
H26    N40     1.028   .     S
H27    O50     0.992   .     S
H28    O42     0.992   .     S
H34    C57     1.084   .     S
H35    C110    1.084   1_455 S
H36    C334    1.088   1_545 S
H37    C179    1.088   .     S
H38    N39     1.028   .     S
N39    Zn52    2.020   .     S
N39    N40     1.285   .     D
N40    Zn51    2.020   .     S
O41    Zn51    1.956   .     S
O41    C53     1.277   .     S
O43    Zn52    1.956   .     S
O43    C116    1.277   1_455 S
O44    Zn52    1.980   .     S
O45    Zn51    1.980   .     S
O46    Zn51    1.976   .     S
O46    C76     1.299   .     S
O47    Zn52    1.976   .     S
O47    C106    1.299   1_455 S
O48    Zn52    1.958   .     S
O49    Zn51    1.958   .     S
C53    O96     1.289   .     A
C53    C74     1.403   .     S
C54    C56     1.460   .     S
C54    O101    1.294   .     A
C54    O151    1.299   .     S
C55    C61     1.404   .     A
C55    C76     1.460   .     S
C56    C62     1.404   .     A
C56    C112    1.402   .     S
C57    C66     1.404   .     A
C58    C67     1.404   .     A
C58    C112    1.397   .     S
C58    H139    1.084   .     S
C59    H85     1.083   .     S
C59    C107    1.402   .     S
C59    C109    1.397   .     S
C60    H84     1.083   .     S
C61    C63     1.387   .     A
C61    O94     1.381   .     S
C62    O102    1.381   .     S
C62    C65     1.387   .     A
C63    C68     1.412   .     A
C63    C66     1.414   .     A
C64    C75     1.403   .     S
C64    O97     1.289   .     A
C64    O147    1.277   .     S
C65    C69     1.412   .     A
C65    C67     1.414   .     A
C66    C540    1.390   .     S
C67    C541    1.390   1_554 S
C68    C71     1.419   .     A
C68    C537    1.409   .     S
C69    C70     1.419   .     A
C69    C536    1.409   1_554 S
C70    C72     1.389   .     A
C70    H81     1.080   .     S
C71    C73     1.389   .     A
C71    H82     1.080   .     S
C72    H77     1.084   .     S
C72    C534    1.390   1_554 S
C73    H83     1.084   .     S
C73    C535    1.390   .     S
C74    C179    1.338   .     S
C74    H244    1.088   .     S
C75    C438    1.338   1_545 S
C75    H401    1.088   1_545 S
C76    O100    1.294   .     A
H78    N92     1.028   .     S
H79    O102    0.992   .     S
H80    O94     0.992   .     S
H86    C109    1.084   .     S
H88    C386    1.088   1_545 S
H89    C231    1.088   .     S
H90    N91     1.028   .     S
N91    Zn104   2.020   .     S
N91    N92     1.285   .     D
N92    Zn103   2.020   .     S
O93    Zn103   1.956   .     S
O93    C105    1.277   .     S
O95    Zn104   1.956   .     S
O96    Zn104   1.980   .     S
O97    Zn103   1.980   .     S
O98    Zn103   1.976   .     S
O98    C128    1.299   .     S
O99    Zn104   1.976   .     S
O100   Zn104   1.958   .     S
O101   Zn103   1.958   .     S
C105   O148    1.289   .     A
C105   C126    1.403   .     S
C106   C108    1.460   .     S
C106   O153    1.294   .     A
C106   O47     1.299   1_655 S
C107   C113    1.404   .     A
C107   C128    1.460   .     S
C108   C114    1.404   .     A
C108   C8      1.402   1_655 S
C109   C118    1.404   .     A
C110   C119    1.404   .     A
C110   C8      1.397   1_655 S
C110   H35     1.084   1_655 S
C111   H137    1.083   .     S
C111   C3      1.402   1_655 S
C111   C5      1.397   1_655 S
C112   H136    1.083   .     S
C113   C115    1.387   .     A
C113   O146    1.381   .     S
C114   O154    1.381   .     S
C114   C117    1.387   .     A
C115   C120    1.412   .     A
C115   C118    1.414   .     A
C116   C127    1.403   .     S
C116   O149    1.289   .     A
C116   O43     1.277   1_655 S
C117   C121    1.412   .     A
C117   C119    1.414   .     A
C118   C592    1.390   .     S
C119   C593    1.390   1_554 S
C120   C123    1.419   .     A
C120   C589    1.409   .     S
C121   C122    1.419   .     A
C121   C588    1.409   1_554 S
C122   C124    1.389   .     A
C122   H133    1.080   .     S
C123   C125    1.389   .     A
C123   H134    1.080   .     S
C124   H129    1.084   .     S
C124   C586    1.390   1_554 S
C125   H135    1.084   .     S
C125   C587    1.390   .     S
C126   C231    1.338   .     S
C126   H296    1.088   .     S
C127   C334    1.338   1_645 S
C127   H453    1.088   1_545 S
C128   O152    1.294   .     A
H130   N144    1.028   .     S
H131   O154    0.992   .     S
H132   O146    0.992   .     S
H138   C5      1.084   1_655 S
H140   C438    1.088   1_545 S
H141   C283    1.088   .     S
H142   N143    1.028   .     S
N143   Zn156   2.020   .     S
N143   N144    1.285   .     D
N144   Zn155   2.020   .     S
O145   Zn155   1.956   .     S
O145   C1      1.277   1_655 S
O147   Zn156   1.956   .     S
O148   Zn156   1.980   .     S
O149   Zn155   1.980   .     S
O150   Zn155   1.976   .     S
O150   C24     1.299   1_655 S
O151   Zn156   1.976   .     S
O152   Zn156   1.958   .     S
O153   Zn155   1.958   .     S
C157   O200    1.289   .     A
C157   C178    1.403   .     S
C157   O301    1.277   1_455 S
C158   C160    1.460   .     S
C158   O205    1.294   .     A
C158   O255    1.299   .     S
C159   C165    1.404   .     A
C159   C180    1.460   .     S
C159   C267    1.402   1_455 S
C160   C166    1.404   .     A
C160   C216    1.402   .     S
C161   C170    1.404   .     A
C161   C267    1.397   1_455 S
C161   H294    1.084   1_455 S
C162   C171    1.404   .     A
C162   C216    1.397   .     S
C162   H243    1.084   .     S
C163   H189    1.083   .     S
C163   C211    1.402   .     S
C163   C213    1.397   .     S
C164   H188    1.083   .     S
C164   C266    1.397   1_455 S
C164   C264    1.402   1_455 S
C165   C167    1.387   .     A
C165   O198    1.381   .     S
C166   O206    1.381   .     S
C166   C169    1.387   .     A
C167   C172    1.412   .     A
C167   C170    1.414   .     A
C168   C179    1.403   .     S
C168   O201    1.289   .     A
C168   O251    1.277   .     S
C169   C173    1.412   .     A
C169   C171    1.414   .     A
C170   C644    1.390   .     S
C171   C645    1.390   1_554 S
C172   C175    1.419   .     A
C172   C641    1.409   .     S
C173   C174    1.419   .     A
C173   C640    1.409   1_554 S
C174   C176    1.389   .     A
C174   H185    1.080   .     S
C175   C177    1.389   .     A
C175   H186    1.080   .     S
C176   H181    1.084   .     S
C176   C638    1.390   1_554 S
C177   H187    1.084   .     S
C177   C639    1.390   .     S
C178   C439    1.338   1_455 S
C178   H348    1.088   .     S
C180   O204    1.294   .     A
C180   O306    1.299   1_455 S
H182   N196    1.028   .     S
H183   O206    0.992   .     S
H184   O198    0.992   .     S
H190   C213    1.084   .     S
H191   C266    1.084   1_455 S
H193   C335    1.088   .     S
H194   N195    1.028   .     S
N195   Zn208   2.020   .     S
N195   N196    1.285   .     D
N196   Zn207   2.020   .     S
O197   Zn207   1.956   .     S
O197   C209    1.277   .     S
O199   Zn208   1.956   .     S
O199   C272    1.277   1_455 S
O200   Zn208   1.980   .     S
O201   Zn207   1.980   .     S
O202   Zn207   1.976   .     S
O202   C232    1.299   .     S
O203   Zn208   1.976   .     S
O203   C262    1.299   1_455 S
O204   Zn208   1.958   .     S
O205   Zn207   1.958   .     S
C209   O252    1.289   .     A
C209   C230    1.403   .     S
C210   C212    1.460   .     S
C210   O257    1.294   .     A
C210   O307    1.299   .     S
C211   C217    1.404   .     A
C211   C232    1.460   .     S
C212   C218    1.404   .     A
C212   C268    1.402   .     S
C213   C222    1.404   .     A
C214   C223    1.404   .     A
C214   C268    1.397   .     S
C214   H295    1.084   .     S
C215   H241    1.083   .     S
C215   C263    1.402   .     S
C215   C265    1.397   .     S
C216   H240    1.083   .     S
C217   C219    1.387   .     A
C217   O250    1.381   .     S
C218   O258    1.381   .     S
C218   C221    1.387   .     A
C219   C224    1.412   .     A
C219   C222    1.414   .     A
C220   C231    1.403   .     S
C220   O253    1.289   .     A
C220   O303    1.277   .     S
C221   C225    1.412   .     A
C221   C223    1.414   .     A
C222   C696    1.390   .     S
C223   C697    1.390   1_554 S
C224   C227    1.419   .     A
C224   C693    1.409   .     S
C225   C226    1.419   .     A
C225   C692    1.409   1_554 S
C226   C228    1.389   .     A
C226   H237    1.080   .     S
C227   C229    1.389   .     A
C227   H238    1.080   .     S
C228   H233    1.084   .     S
C228   C690    1.390   1_554 S
C229   H239    1.084   .     S
C229   C691    1.390   .     S
C230   C335    1.338   .     S
C230   H400    1.088   .     S
C232   O256    1.294   .     A
H234   N248    1.028   .     S
H235   O258    0.992   .     S
H236   O250    0.992   .     S
H242   C265    1.084   .     S
H245   C387    1.088   .     S
H246   N247    1.028   .     S
N247   Zn260   2.020   .     S
N247   N248    1.285   .     D
N248   Zn259   2.020   .     S
O249   Zn259   1.956   .     S
O249   C261    1.277   .     S
O251   Zn260   1.956   .     S
O252   Zn260   1.980   .     S
O253   Zn259   1.980   .     S
O254   Zn259   1.976   .     S
O254   C284    1.299   .     S
O255   Zn260   1.976   .     S
O256   Zn260   1.958   .     S
O257   Zn259   1.958   .     S
C261   O304    1.289   .     A
C261   C282    1.403   .     S
C262   C264    1.460   .     S
C262   O309    1.294   .     A
C262   O203    1.299   1_655 S
C263   C269    1.404   .     A
C263   C284    1.460   .     S
C264   C270    1.404   .     A
C264   C164    1.402   1_655 S
C265   C274    1.404   .     A
C266   C275    1.404   .     A
C266   C164    1.397   1_655 S
C266   H191    1.084   1_655 S
C267   H293    1.083   .     S
C267   C159    1.402   1_655 S
C267   C161    1.397   1_655 S
C268   H292    1.083   .     S
C269   C271    1.387   .     A
C269   O302    1.381   .     S
C270   O310    1.381   .     S
C270   C273    1.387   .     A
C271   C276    1.412   .     A
C271   C274    1.414   .     A
C272   C283    1.403   .     S
C272   O305    1.289   .     A
C272   O199    1.277   1_655 S
C273   C277    1.412   .     A
C273   C275    1.414   .     A
C274   C748    1.390   .     S
C275   C749    1.390   1_554 S
C276   C279    1.419   .     A
C276   C745    1.409   .     S
C277   C278    1.419   .     A
C277   C744    1.409   1_554 S
C278   C280    1.389   .     A
C278   H289    1.080   .     S
C279   C281    1.389   .     A
C279   H290    1.080   .     S
C280   H285    1.084   .     S
C280   C742    1.390   1_554 S
C281   H291    1.084   .     S
C281   C743    1.390   .     S
C282   C387    1.338   .     S
C282   H452    1.088   .     S
C283   C22     1.338   1_655 S
C284   O308    1.294   .     A
H286   N300    1.028   .     S
H287   O310    0.992   .     S
H288   O302    0.992   .     S
H294   C161    1.084   1_655 S
H297   C439    1.088   .     S
H298   N299    1.028   .     S
N299   Zn312   2.020   .     S
N299   N300    1.285   .     D
N300   Zn311   2.020   .     S
O301   Zn311   1.956   .     S
O301   C157    1.277   1_655 S
O303   Zn312   1.956   .     S
O304   Zn312   1.980   .     S
O305   Zn311   1.980   .     S
O306   Zn311   1.976   .     S
O306   C180    1.299   1_655 S
O307   Zn312   1.976   .     S
O308   Zn312   1.958   .     S
O309   Zn311   1.958   .     S
C313   O356    1.289   .     A
C313   C334    1.403   .     S
C313   O457    1.277   1_455 S
C314   C316    1.460   .     S
C314   O361    1.294   .     A
C314   O411    1.299   .     S
C315   C321    1.404   .     A
C315   C336    1.460   .     S
C315   C423    1.402   1_455 S
C316   C322    1.404   .     A
C316   C372    1.402   .     S
C317   C326    1.404   .     A
C317   C423    1.397   1_455 S
C317   H450    1.084   1_455 S
C318   C327    1.404   .     A
C318   C372    1.397   .     S
C318   H399    1.084   .     S
C319   H345    1.083   .     S
C319   C367    1.402   .     S
C319   C369    1.397   .     S
C320   H344    1.083   .     S
C320   C422    1.397   1_455 S
C320   C420    1.402   1_455 S
C321   C323    1.387   .     A
C321   O354    1.381   .     S
C322   O362    1.381   .     S
C322   C325    1.387   .     A
C323   C328    1.412   .     A
C323   C326    1.414   .     A
C324   C335    1.403   .     S
C324   O357    1.289   .     A
C324   O407    1.277   .     S
C325   C329    1.412   .     A
C325   C327    1.414   .     A
C326   C800    1.390   .     S
C327   C801    1.390   1_554 S
C328   C331    1.419   .     A
C328   C797    1.409   .     S
C329   C330    1.419   .     A
C329   C796    1.409   1_554 S
C330   C332    1.389   .     A
C330   H341    1.080   .     S
C331   C333    1.389   .     A
C331   H342    1.080   .     S
C332   H337    1.084   .     S
C332   C794    1.390   1_554 S
C333   H343    1.084   .     S
C333   C795    1.390   .     S
C334   C127    1.338   1_465 S
C334   H36     1.088   1_565 S
C336   O360    1.294   .     A
C336   O462    1.299   1_455 S
H338   N352    1.028   .     S
H339   O362    0.992   .     S
H340   O354    0.992   .     S
H346   C369    1.084   .     S
H347   C422    1.084   1_455 S
H349   C23     1.088   1_565 S
H350   N351    1.028   .     S
N351   Zn364   2.020   .     S
N351   N352    1.285   .     D
N352   Zn363   2.020   .     S
O353   Zn363   1.956   .     S
O353   C365    1.277   .     S
O355   Zn364   1.956   .     S
O355   C428    1.277   1_455 S
O356   Zn364   1.980   .     S
O357   Zn363   1.980   .     S
O358   Zn363   1.976   .     S
O358   C388    1.299   .     S
O359   Zn364   1.976   .     S
O359   C418    1.299   1_455 S
O360   Zn364   1.958   .     S
O361   Zn363   1.958   .     S
C365   O408    1.289   .     A
C365   C386    1.403   .     S
C366   C368    1.460   .     S
C366   O413    1.294   .     A
C366   O463    1.299   .     S
C367   C373    1.404   .     A
C367   C388    1.460   .     S
C368   C374    1.404   .     A
C368   C424    1.402   .     S
C369   C378    1.404   .     A
C370   C379    1.404   .     A
C370   C424    1.397   .     S
C370   H451    1.084   .     S
C371   H397    1.083   .     S
C371   C419    1.402   .     S
C371   C421    1.397   .     S
C372   H396    1.083   .     S
C373   C375    1.387   .     A
C373   O406    1.381   .     S
C374   O414    1.381   .     S
C374   C377    1.387   .     A
C375   C380    1.412   .     A
C375   C378    1.414   .     A
C376   C387    1.403   .     S
C376   O409    1.289   .     A
C376   O459    1.277   .     S
C377   C381    1.412   .     A
C377   C379    1.414   .     A
C378   C852    1.390   .     S
C379   C853    1.390   1_554 S
C380   C383    1.419   .     A
C380   C849    1.409   .     S
C381   C382    1.419   .     A
C381   C848    1.409   1_554 S
C382   C384    1.389   .     A
C382   H393    1.080   .     S
C383   C385    1.389   .     A
C383   H394    1.080   .     S
C384   H389    1.084   .     S
C384   C846    1.390   1_554 S
C385   H395    1.084   .     S
C385   C847    1.390   .     S
C386   C23     1.338   1_565 S
C386   H88     1.088   1_565 S
C388   O412    1.294   .     A
H390   N404    1.028   .     S
H391   O414    0.992   .     S
H392   O406    0.992   .     S
H398   C421    1.084   .     S
H401   C75     1.088   1_565 S
H402   N403    1.028   .     S
N403   Zn416   2.020   .     S
N403   N404    1.285   .     D
N404   Zn415   2.020   .     S
O405   Zn415   1.956   .     S
O405   C417    1.277   .     S
O407   Zn416   1.956   .     S
O408   Zn416   1.980   .     S
O409   Zn415   1.980   .     S
O410   Zn415   1.976   .     S
O410   C440    1.299   .     S
O411   Zn416   1.976   .     S
O412   Zn416   1.958   .     S
O413   Zn415   1.958   .     S
C417   O460    1.289   .     A
C417   C438    1.403   .     S
C418   C420    1.460   .     S
C418   O465    1.294   .     A
C418   O359    1.299   1_655 S
C419   C425    1.404   .     A
C419   C440    1.460   .     S
C420   C426    1.404   .     A
C420   C320    1.402   1_655 S
C421   C430    1.404   .     A
C422   C431    1.404   .     A
C422   C320    1.397   1_655 S
C422   H347    1.084   1_655 S
C423   H449    1.083   .     S
C423   C315    1.402   1_655 S
C423   C317    1.397   1_655 S
C424   H448    1.083   .     S
C425   C427    1.387   .     A
C425   O458    1.381   .     S
C426   O466    1.381   .     S
C426   C429    1.387   .     A
C427   C432    1.412   .     A
C427   C430    1.414   .     A
C428   C439    1.403   .     S
C428   O461    1.289   .     A
C428   O355    1.277   1_655 S
C429   C433    1.412   .     A
C429   C431    1.414   .     A
C430   C904    1.390   .     S
C431   C905    1.390   1_554 S
C432   C435    1.419   .     A
C432   C901    1.409   .     S
C433   C434    1.419   .     A
C433   C900    1.409   1_554 S
C434   C436    1.389   .     A
C434   H445    1.080   .     S
C435   C437    1.389   .     A
C435   H446    1.080   .     S
C436   H441    1.084   .     S
C436   C898    1.390   1_554 S
C437   H447    1.084   .     S
C437   C899    1.390   .     S
C438   C75     1.338   1_565 S
C438   H140    1.088   1_565 S
C439   C178    1.338   1_655 S
C440   O464    1.294   .     A
H442   N456    1.028   .     S
H443   O466    0.992   .     S
H444   O458    0.992   .     S
H450   C317    1.084   1_655 S
H453   C127    1.088   1_565 S
H454   N455    1.028   .     S
N455   Zn468   2.020   .     S
N455   N456    1.285   .     D
N456   Zn467   2.020   .     S
O457   Zn467   1.956   .     S
O457   C313    1.277   1_655 S
O459   Zn468   1.956   .     S
O460   Zn468   1.980   .     S
O461   Zn467   1.980   .     S
O462   Zn467   1.976   .     S
O462   C336    1.299   1_655 S
O463   Zn468   1.976   .     S
O464   Zn468   1.958   .     S
O465   Zn467   1.958   .     S
C469   O512    1.289   .     A
C469   C490    1.403   .     S
C469   O613    1.277   1_455 S
C470   C472    1.460   .     S
C470   O517    1.294   .     A
C470   O567    1.299   .     S
C471   C477    1.404   .     A
C471   C492    1.460   .     S
C471   C579    1.402   1_455 S
C472   C478    1.404   .     A
C472   C528    1.402   .     S
C473   C482    1.404   .     A
C473   C579    1.397   1_455 S
C473   H606    1.084   1_455 S
C474   C483    1.404   .     A
C474   C528    1.397   .     S
C474   H555    1.084   .     S
C475   H501    1.083   .     S
C475   C523    1.402   .     S
C475   C525    1.397   .     S
C476   H500    1.083   .     S
C476   C578    1.397   1_455 S
C476   C576    1.402   1_455 S
C477   C479    1.387   .     A
C477   O510    1.381   .     S
C478   O518    1.381   .     S
C478   C481    1.387   .     A
C479   C484    1.412   .     A
C479   C482    1.414   .     A
C480   C491    1.403   .     S
C480   O513    1.289   .     A
C480   O563    1.277   .     S
C481   C485    1.412   .     A
C481   C483    1.414   .     A
C482   C20     1.390   1_556 S
C484   C487    1.419   .     A
C484   C17     1.409   1_556 S
C485   C486    1.419   .     A
C486   C488    1.389   .     A
C486   H497    1.080   .     S
C487   C489    1.389   .     A
C487   H498    1.080   .     S
C488   H493    1.084   .     S
C489   H499    1.084   .     S
C489   C15     1.390   1_556 S
C490   C751    1.338   1_455 S
C490   H660    1.088   .     S
C491   C854    1.338   1_545 S
C491   H817    1.088   1_545 S
C492   O516    1.294   .     A
C492   O618    1.299   1_455 S
H494   N508    1.028   .     S
H495   O518    0.992   .     S
H496   O510    0.992   .     S
H502   C525    1.084   .     S
H503   C578    1.084   1_455 S
H504   C802    1.088   1_545 S
H505   C647    1.088   .     S
H506   N507    1.028   .     S
N507   Zn520   2.020   .     S
N507   N508    1.285   .     D
N508   Zn519   2.020   .     S
O509   Zn519   1.956   .     S
O509   C521    1.277   .     S
O511   Zn520   1.956   .     S
O511   C584    1.277   1_455 S
O512   Zn520   1.980   .     S
O513   Zn519   1.980   .     S
O514   Zn519   1.976   .     S
O514   C544    1.299   .     S
O515   Zn520   1.976   .     S
O515   C574    1.299   1_455 S
O516   Zn520   1.958   .     S
O517   Zn519   1.958   .     S
C521   O564    1.289   .     A
C521   C542    1.403   .     S
C522   C524    1.460   .     S
C522   O569    1.294   .     A
C522   O619    1.299   .     S
C523   C529    1.404   .     A
C523   C544    1.460   .     S
C524   C530    1.404   .     A
C524   C580    1.402   .     S
C525   C534    1.404   .     A
C526   C535    1.404   .     A
C526   C580    1.397   .     S
C526   H607    1.084   .     S
C527   H553    1.083   .     S
C527   C575    1.402   .     S
C527   C577    1.397   .     S
C528   H552    1.083   .     S
C529   C531    1.387   .     A
C529   O562    1.381   .     S
C530   O570    1.381   .     S
C530   C533    1.387   .     A
C531   C536    1.412   .     A
C531   C534    1.414   .     A
C532   C543    1.403   .     S
C532   O565    1.289   .     A
C532   O615    1.277   .     S
C533   C537    1.412   .     A
C533   C535    1.414   .     A
C534   C72     1.390   1_556 S
C536   C539    1.419   .     A
C536   C69     1.409   1_556 S
C537   C538    1.419   .     A
C538   C540    1.389   .     A
C538   H549    1.080   .     S
C539   C541    1.389   .     A
C539   H550    1.080   .     S
C540   H545    1.084   .     S
C541   H551    1.084   .     S
C541   C67     1.390   1_556 S
C542   C647    1.338   .     S
C542   H712    1.088   .     S
C543   C906    1.338   1_545 S
C543   H869    1.088   1_545 S
C544   O568    1.294   .     A
H546   N560    1.028   .     S
H547   O570    0.992   .     S
H548   O562    0.992   .     S
H554   C577    1.084   .     S
H556   C854    1.088   1_545 S
H557   C699    1.088   .     S
H558   N559    1.028   .     S
N559   Zn572   2.020   .     S
N559   N560    1.285   .     D
N560   Zn571   2.020   .     S
O561   Zn571   1.956   .     S
O561   C573    1.277   .     S
O563   Zn572   1.956   .     S
O564   Zn572   1.980   .     S
O565   Zn571   1.980   .     S
O566   Zn571   1.976   .     S
O566   C596    1.299   .     S
O567   Zn572   1.976   .     S
O568   Zn572   1.958   .     S
O569   Zn571   1.958   .     S
C573   O616    1.289   .     A
C573   C594    1.403   .     S
C574   C576    1.460   .     S
C574   O621    1.294   .     A
C574   O515    1.299   1_655 S
C575   C581    1.404   .     A
C575   C596    1.460   .     S
C576   C582    1.404   .     A
C576   C476    1.402   1_655 S
C577   C586    1.404   .     A
C578   C587    1.404   .     A
C578   C476    1.397   1_655 S
C578   H503    1.084   1_655 S
C579   H605    1.083   .     S
C579   C471    1.402   1_655 S
C579   C473    1.397   1_655 S
C580   H604    1.083   .     S
C581   C583    1.387   .     A
C581   O614    1.381   .     S
C582   O622    1.381   .     S
C582   C585    1.387   .     A
C583   C588    1.412   .     A
C583   C586    1.414   .     A
C584   C595    1.403   .     S
C584   O617    1.289   .     A
C584   O511    1.277   1_655 S
C585   C589    1.412   .     A
C585   C587    1.414   .     A
C586   C124    1.390   1_556 S
C588   C591    1.419   .     A
C588   C121    1.409   1_556 S
C589   C590    1.419   .     A
C590   C592    1.389   .     A
C590   H601    1.080   .     S
C591   C593    1.389   .     A
C591   H602    1.080   .     S
C592   H597    1.084   .     S
C593   H603    1.084   .     S
C593   C119    1.390   1_556 S
C594   C699    1.338   .     S
C594   H764    1.088   .     S
C595   C802    1.338   1_645 S
C595   H921    1.088   1_545 S
C596   O620    1.294   .     A
H598   N612    1.028   .     S
H599   O622    0.992   .     S
H600   O614    0.992   .     S
H606   C473    1.084   1_655 S
H608   C906    1.088   1_545 S
H609   C751    1.088   .     S
H610   N611    1.028   .     S
N611   Zn624   2.020   .     S
N611   N612    1.285   .     D
N612   Zn623   2.020   .     S
O613   Zn623   1.956   .     S
O613   C469    1.277   1_655 S
O615   Zn624   1.956   .     S
O616   Zn624   1.980   .     S
O617   Zn623   1.980   .     S
O618   Zn623   1.976   .     S
O618   C492    1.299   1_655 S
O619   Zn624   1.976   .     S
O620   Zn624   1.958   .     S
O621   Zn623   1.958   .     S
C625   O668    1.289   .     A
C625   C646    1.403   .     S
C625   O769    1.277   1_455 S
C626   C628    1.460   .     S
C626   O673    1.294   .     A
C626   O723    1.299   .     S
C627   C633    1.404   .     A
C627   C648    1.460   .     S
C627   C735    1.402   1_455 S
C628   C634    1.404   .     A
C628   C684    1.402   .     S
C629   C638    1.404   .     A
C629   C735    1.397   1_455 S
C629   H762    1.084   1_455 S
C630   C639    1.404   .     A
C630   C684    1.397   .     S
C630   H711    1.084   .     S
C631   H657    1.083   .     S
C631   C679    1.402   .     S
C631   C681    1.397   .     S
C632   H656    1.083   .     S
C632   C734    1.397   1_455 S
C632   C732    1.402   1_455 S
C633   C635    1.387   .     A
C633   O666    1.381   .     S
C634   O674    1.381   .     S
C634   C637    1.387   .     A
C635   C640    1.412   .     A
C635   C638    1.414   .     A
C636   C647    1.403   .     S
C636   O669    1.289   .     A
C636   O719    1.277   .     S
C637   C641    1.412   .     A
C637   C639    1.414   .     A
C638   C176    1.390   1_556 S
C640   C643    1.419   .     A
C640   C173    1.409   1_556 S
C641   C642    1.419   .     A
C642   C644    1.389   .     A
C642   H653    1.080   .     S
C643   C645    1.389   .     A
C643   H654    1.080   .     S
C644   H649    1.084   .     S
C645   H655    1.084   .     S
C645   C171    1.390   1_556 S
C646   C907    1.338   1_455 S
C646   H816    1.088   .     S
C648   O672    1.294   .     A
C648   O774    1.299   1_455 S
H650   N664    1.028   .     S
H651   O674    0.992   .     S
H652   O666    0.992   .     S
H658   C681    1.084   .     S
H659   C734    1.084   1_455 S
H661   C803    1.088   .     S
H662   N663    1.028   .     S
N663   Zn676   2.020   .     S
N663   N664    1.285   .     D
N664   Zn675   2.020   .     S
O665   Zn675   1.956   .     S
O665   C677    1.277   .     S
O667   Zn676   1.956   .     S
O667   C740    1.277   1_455 S
O668   Zn676   1.980   .     S
O669   Zn675   1.980   .     S
O670   Zn675   1.976   .     S
O670   C700    1.299   .     S
O671   Zn676   1.976   .     S
O671   C730    1.299   1_455 S
O672   Zn676   1.958   .     S
O673   Zn675   1.958   .     S
C677   O720    1.289   .     A
C677   C698    1.403   .     S
C678   C680    1.460   .     S
C678   O725    1.294   .     A
C678   O775    1.299   .     S
C679   C685    1.404   .     A
C679   C700    1.460   .     S
C680   C686    1.404   .     A
C680   C736    1.402   .     S
C681   C690    1.404   .     A
C682   C691    1.404   .     A
C682   C736    1.397   .     S
C682   H763    1.084   .     S
C683   H709    1.083   .     S
C683   C731    1.402   .     S
C683   C733    1.397   .     S
C684   H708    1.083   .     S
C685   C687    1.387   .     A
C685   O718    1.381   .     S
C686   O726    1.381   .     S
C686   C689    1.387   .     A
C687   C692    1.412   .     A
C687   C690    1.414   .     A
C688   C699    1.403   .     S
C688   O721    1.289   .     A
C688   O771    1.277   .     S
C689   C693    1.412   .     A
C689   C691    1.414   .     A
C690   C228    1.390   1_556 S
C692   C695    1.419   .     A
C692   C225    1.409   1_556 S
C693   C694    1.419   .     A
C694   C696    1.389   .     A
C694   H705    1.080   .     S
C695   C697    1.389   .     A
C695   H706    1.080   .     S
C696   H701    1.084   .     S
C697   H707    1.084   .     S
C697   C223    1.390   1_556 S
C698   C803    1.338   .     S
C698   H868    1.088   .     S
C700   O724    1.294   .     A
H702   N716    1.028   .     S
H703   O726    0.992   .     S
H704   O718    0.992   .     S
H710   C733    1.084   .     S
H713   C855    1.088   .     S
H714   N715    1.028   .     S
N715   Zn728   2.020   .     S
N715   N716    1.285   .     D
N716   Zn727   2.020   .     S
O717   Zn727   1.956   .     S
O717   C729    1.277   .     S
O719   Zn728   1.956   .     S
O720   Zn728   1.980   .     S
O721   Zn727   1.980   .     S
O722   Zn727   1.976   .     S
O722   C752    1.299   .     S
O723   Zn728   1.976   .     S
O724   Zn728   1.958   .     S
O725   Zn727   1.958   .     S
C729   O772    1.289   .     A
C729   C750    1.403   .     S
C730   C732    1.460   .     S
C730   O777    1.294   .     A
C730   O671    1.299   1_655 S
C731   C737    1.404   .     A
C731   C752    1.460   .     S
C732   C738    1.404   .     A
C732   C632    1.402   1_655 S
C733   C742    1.404   .     A
C734   C743    1.404   .     A
C734   C632    1.397   1_655 S
C734   H659    1.084   1_655 S
C735   H761    1.083   .     S
C735   C627    1.402   1_655 S
C735   C629    1.397   1_655 S
C736   H760    1.083   .     S
C737   C739    1.387   .     A
C737   O770    1.381   .     S
C738   O778    1.381   .     S
C738   C741    1.387   .     A
C739   C744    1.412   .     A
C739   C742    1.414   .     A
C740   C751    1.403   .     S
C740   O773    1.289   .     A
C740   O667    1.277   1_655 S
C741   C745    1.412   .     A
C741   C743    1.414   .     A
C742   C280    1.390   1_556 S
C744   C747    1.419   .     A
C744   C277    1.409   1_556 S
C745   C746    1.419   .     A
C746   C748    1.389   .     A
C746   H757    1.080   .     S
C747   C749    1.389   .     A
C747   H758    1.080   .     S
C748   H753    1.084   .     S
C749   H759    1.084   .     S
C749   C275    1.390   1_556 S
C750   C855    1.338   .     S
C750   H920    1.088   .     S
C751   C490    1.338   1_655 S
C752   O776    1.294   .     A
H754   N768    1.028   .     S
H755   O778    0.992   .     S
H756   O770    0.992   .     S
H762   C629    1.084   1_655 S
H765   C907    1.088   .     S
H766   N767    1.028   .     S
N767   Zn780   2.020   .     S
N767   N768    1.285   .     D
N768   Zn779   2.020   .     S
O769   Zn779   1.956   .     S
O769   C625    1.277   1_655 S
O771   Zn780   1.956   .     S
O772   Zn780   1.980   .     S
O773   Zn779   1.980   .     S
O774   Zn779   1.976   .     S
O774   C648    1.299   1_655 S
O775   Zn780   1.976   .     S
O776   Zn780   1.958   .     S
O777   Zn779   1.958   .     S
C781   O824    1.289   .     A
C781   C802    1.403   .     S
C781   O925    1.277   1_455 S
C782   C784    1.460   .     S
C782   O829    1.294   .     A
C782   O879    1.299   .     S
C783   C789    1.404   .     A
C783   C804    1.460   .     S
C783   C891    1.402   1_455 S
C784   C790    1.404   .     A
C784   C840    1.402   .     S
C785   C794    1.404   .     A
C785   C891    1.397   1_455 S
C785   H918    1.084   1_455 S
C786   C795    1.404   .     A
C786   C840    1.397   .     S
C786   H867    1.084   .     S
C787   H813    1.083   .     S
C787   C835    1.402   .     S
C787   C837    1.397   .     S
C788   H812    1.083   .     S
C788   C890    1.397   1_455 S
C788   C888    1.402   1_455 S
C789   C791    1.387   .     A
C789   O822    1.381   .     S
C790   O830    1.381   .     S
C790   C793    1.387   .     A
C791   C796    1.412   .     A
C791   C794    1.414   .     A
C792   C803    1.403   .     S
C792   O825    1.289   .     A
C792   O875    1.277   .     S
C793   C797    1.412   .     A
C793   C795    1.414   .     A
C794   C332    1.390   1_556 S
C796   C799    1.419   .     A
C796   C329    1.409   1_556 S
C797   C798    1.419   .     A
C798   C800    1.389   .     A
C798   H809    1.080   .     S
C799   C801    1.389   .     A
C799   H810    1.080   .     S
C800   H805    1.084   .     S
C801   H811    1.084   .     S
C801   C327    1.390   1_556 S
C802   C595    1.338   1_465 S
C802   H504    1.088   1_565 S
C804   O828    1.294   .     A
C804   O930    1.299   1_455 S
H806   N820    1.028   .     S
H807   O830    0.992   .     S
H808   O822    0.992   .     S
H814   C837    1.084   .     S
H815   C890    1.084   1_455 S
H817   C491    1.088   1_565 S
H818   N819    1.028   .     S
N819   Zn832   2.020   .     S
N819   N820    1.285   .     D
N820   Zn831   2.020   .     S
O821   Zn831   1.956   .     S
O821   C833    1.277   .     S
O823   Zn832   1.956   .     S
O823   C896    1.277   1_455 S
O824   Zn832   1.980   .     S
O825   Zn831   1.980   .     S
O826   Zn831   1.976   .     S
O826   C856    1.299   .     S
O827   Zn832   1.976   .     S
O827   C886    1.299   1_455 S
O828   Zn832   1.958   .     S
O829   Zn831   1.958   .     S
C833   O876    1.289   .     A
C833   C854    1.403   .     S
C834   C836    1.460   .     S
C834   O881    1.294   .     A
C834   O931    1.299   .     S
C835   C841    1.404   .     A
C835   C856    1.460   .     S
C836   C842    1.404   .     A
C836   C892    1.402   .     S
C837   C846    1.404   .     A
C838   C847    1.404   .     A
C838   C892    1.397   .     S
C838   H919    1.084   .     S
C839   H865    1.083   .     S
C839   C887    1.402   .     S
C839   C889    1.397   .     S
C840   H864    1.083   .     S
C841   C843    1.387   .     A
C841   O874    1.381   .     S
C842   O882    1.381   .     S
C842   C845    1.387   .     A
C843   C848    1.412   .     A
C843   C846    1.414   .     A
C844   C855    1.403   .     S
C844   O877    1.289   .     A
C844   O927    1.277   .     S
C845   C849    1.412   .     A
C845   C847    1.414   .     A
C846   C384    1.390   1_556 S
C848   C851    1.419   .     A
C848   C381    1.409   1_556 S
C849   C850    1.419   .     A
C850   C852    1.389   .     A
C850   H861    1.080   .     S
C851   C853    1.389   .     A
C851   H862    1.080   .     S
C852   H857    1.084   .     S
C853   H863    1.084   .     S
C853   C379    1.390   1_556 S
C854   C491    1.338   1_565 S
C854   H556    1.088   1_565 S
C856   O880    1.294   .     A
H858   N872    1.028   .     S
H859   O882    0.992   .     S
H860   O874    0.992   .     S
H866   C889    1.084   .     S
H869   C543    1.088   1_565 S
H870   N871    1.028   .     S
N871   Zn884   2.020   .     S
N871   N872    1.285   .     D
N872   Zn883   2.020   .     S
O873   Zn883   1.956   .     S
O873   C885    1.277   .     S
O875   Zn884   1.956   .     S
O876   Zn884   1.980   .     S
O877   Zn883   1.980   .     S
O878   Zn883   1.976   .     S
O878   C908    1.299   .     S
O879   Zn884   1.976   .     S
O880   Zn884   1.958   .     S
O881   Zn883   1.958   .     S
C885   O928    1.289   .     A
C885   C906    1.403   .     S
C886   C888    1.460   .     S
C886   O933    1.294   .     A
C886   O827    1.299   1_655 S
C887   C893    1.404   .     A
C887   C908    1.460   .     S
C888   C894    1.404   .     A
C888   C788    1.402   1_655 S
C889   C898    1.404   .     A
C890   C899    1.404   .     A
C890   C788    1.397   1_655 S
C890   H815    1.084   1_655 S
C891   H917    1.083   .     S
C891   C783    1.402   1_655 S
C891   C785    1.397   1_655 S
C892   H916    1.083   .     S
C893   C895    1.387   .     A
C893   O926    1.381   .     S
C894   O934    1.381   .     S
C894   C897    1.387   .     A
C895   C900    1.412   .     A
C895   C898    1.414   .     A
C896   C907    1.403   .     S
C896   O929    1.289   .     A
C896   O823    1.277   1_655 S
C897   C901    1.412   .     A
C897   C899    1.414   .     A
C898   C436    1.390   1_556 S
C900   C903    1.419   .     A
C900   C433    1.409   1_556 S
C901   C902    1.419   .     A
C902   C904    1.389   .     A
C902   H913    1.080   .     S
C903   C905    1.389   .     A
C903   H914    1.080   .     S
C904   H909    1.084   .     S
C905   H915    1.084   .     S
C905   C431    1.390   1_556 S
C906   C543    1.338   1_565 S
C906   H608    1.088   1_565 S
C907   C646    1.338   1_655 S
C908   O932    1.294   .     A
H910   N924    1.028   .     S
H911   O934    0.992   .     S
H912   O926    0.992   .     S
H918   C785    1.084   1_655 S
H921   C595    1.088   1_565 S
H922   N923    1.028   .     S
N923   Zn936   2.020   .     S
N923   N924    1.285   .     D
N924   Zn935   2.020   .     S
O925   Zn935   1.956   .     S
O925   C781    1.277   1_655 S
O927   Zn936   1.956   .     S
O928   Zn936   1.980   .     S
O929   Zn935   1.980   .     S
O930   Zn935   1.976   .     S
O930   C804    1.299   1_655 S
O931   Zn936   1.976   .     S
O932   Zn936   1.958   .     S
O933   Zn935   1.958   .     S
