data_str_m3_o10_o16_pcu_sym.138
_audit_creation_date              2020-01-03
_audit_creation_method            'Materials Studio'
_symmetry_space_group_name_H-M    'P1'
_symmetry_Int_Tables_number       1
_symmetry_cell_setting            triclinic
loop_
_symmetry_equiv_pos_as_xyz
  x,y,z
_cell_length_a                    23.5004
_cell_length_b                    25.6771
_cell_length_c                    25.0828
_cell_angle_alpha                 92.6675
_cell_angle_beta                  102.9238
_cell_angle_gamma                 93.5554
loop_
_atom_site_label
_atom_site_type_symbol
_atom_site_fract_x
_atom_site_fract_y
_atom_site_fract_z
_atom_site_U_iso_or_equiv
_atom_site_adp_type
_atom_site_occupancy
C1     C     0.01489   0.26488   0.24955   0.00000  Uiso   1.00
C2     C     0.06354   0.20116   0.40954   0.00000  Uiso   1.00
C3     C     0.02007   0.31920   0.24545   0.00000  Uiso   1.00
C4     C     0.03830   0.17913   0.35311   0.00000  Uiso   1.00
C5     C     0.31664   0.01498   0.26546   0.00000  Uiso   1.00
C6     C     0.31974   0.06872   0.25452   0.00000  Uiso   1.00
C7     C     0.29643   0.16254   0.14581   0.00000  Uiso   1.00
C8     C     0.28535   0.14081   0.49577   0.00000  Uiso   1.00
C9     C     0.27513   0.16112   0.08737   0.00000  Uiso   1.00
C10    C     0.02803   0.22291   0.44129   0.00000  Uiso   1.00
C11    C     0.04964   0.23385   0.49734   0.00000  Uiso   1.00
C12    C     0.14325   0.20131   0.49027   0.00000  Uiso   1.00
C13    C     0.10552   0.22036   0.02241   0.00000  Uiso   1.00
C14    C     0.23174   0.00424   0.29916   0.00000  Uiso   1.00
C15    C     0.22032   0.03969   0.34582   0.00000  Uiso   1.00
C16    C     0.15504   0.04506   0.34026   0.00000  Uiso   1.00
C17    C     0.12386   0.19954   0.43306   0.00000  Uiso   1.00
C18    C     0.19910   0.18306   0.01180   0.00000  Uiso   1.00
C19    C     0.23334   0.16437   0.47580   0.00000  Uiso   1.00
C20    C     0.21699   0.17279   0.42069   0.00000  Uiso   1.00
C21    C     0.16560   0.19543   0.40119   0.00000  Uiso   1.00
C22    C     0.22146   0.18157   0.06753   0.00000  Uiso   1.00
C23    C     0.30666   0.13964   0.05179   0.00000  Uiso   1.00
H24    H     0.01451   0.12278   0.06722   0.00000  Uiso   1.00
H25    H     0.04846   0.00066   0.21984   0.00000  Uiso   1.00
H26    H     0.20921   0.29869   0.30056   0.00000  Uiso   1.00
H27    H     0.21171   0.01860   0.25842   0.00000  Uiso   1.00
H28    H     0.23847   0.02305   0.38569   0.00000  Uiso   1.00
H29    H     0.24280   0.07897   0.34584   0.00000  Uiso   1.00
H30    H     0.13654   0.06284   0.30131   0.00000  Uiso   1.00
H31    H     0.14821   0.07068   0.37484   0.00000  Uiso   1.00
H32    H     0.13173   0.00617   0.34092   0.00000  Uiso   1.00
H33    H     0.12248   0.09207   0.18976   0.00000  Uiso   1.00
H34    H     0.17607   0.21379   0.28260   0.00000  Uiso   1.00
H35    H     0.24454   0.16345   0.39306   0.00000  Uiso   1.00
H36    H     0.31052   0.12524   0.46819   0.00000  Uiso   1.00
H37    H     0.19821   0.19701   0.09639   0.00000  Uiso   1.00
H38    H     0.31700   0.23114   0.42294   0.00000  Uiso   1.00
H39    H     0.11788   0.22619   0.06640   0.00000  Uiso   1.00
H40    H     0.02174   0.24999   0.02192   0.00000  Uiso   1.00
H41    H     0.15866   0.20979   0.36116   0.00000  Uiso   1.00
N42    N     0.14493   0.15223   0.23543   0.00000  Uiso   1.00
N43    N     0.18840   0.18110   0.26458   0.00000  Uiso   1.00
O44    O     0.29769   0.24629   0.25358   0.00000  Uiso   1.00
O45    O     0.16003   0.11193   0.20713   0.00000  Uiso   1.00
O46    O     0.05742   0.23704   0.24424   0.00000  Uiso   1.00
O47    O     0.31490   0.17358   0.33380   0.00000  Uiso   1.00
O48    O     0.07463   0.16433   0.32446   0.00000  Uiso   1.00
O49    O     0.27592   0.09629   0.25577   0.00000  Uiso   1.00
O50    O     0.03565   0.08704   0.24643   0.00000  Uiso   1.00
O51    O     0.25870   0.16901   0.17554   0.00000  Uiso   1.00
O52    O     0.01843   0.15976   0.16620   0.00000  Uiso   1.00
O53    O     0.29241   0.33106   0.30811   0.00000  Uiso   1.00
Zn54   Zn    0.27119   0.17284   0.25624   0.00000  Uiso   1.00
Zn55   Zn    0.06214   0.16049   0.24377   0.00000  Uiso   1.00
C56    C     0.34822   0.26488   0.24955   0.00000  Uiso   1.00
C57    C     0.39687   0.20116   0.40954   0.00000  Uiso   1.00
C58    C     0.35340   0.31920   0.24545   0.00000  Uiso   1.00
C59    C     0.37163   0.17913   0.35311   0.00000  Uiso   1.00
C60    C     0.64998   0.01498   0.26546   0.00000  Uiso   1.00
C61    C     0.65307   0.06872   0.25452   0.00000  Uiso   1.00
C62    C     0.62977   0.16254   0.14581   0.00000  Uiso   1.00
C63    C     0.61868   0.14081   0.49577   0.00000  Uiso   1.00
C64    C     0.60847   0.16112   0.08737   0.00000  Uiso   1.00
C65    C     0.36136   0.22291   0.44129   0.00000  Uiso   1.00
C66    C     0.38297   0.23385   0.49734   0.00000  Uiso   1.00
C67    C     0.47658   0.20131   0.49027   0.00000  Uiso   1.00
C68    C     0.43886   0.22036   0.02241   0.00000  Uiso   1.00
C69    C     0.56507   0.00424   0.29916   0.00000  Uiso   1.00
C70    C     0.55366   0.03969   0.34582   0.00000  Uiso   1.00
C71    C     0.48838   0.04506   0.34026   0.00000  Uiso   1.00
C72    C     0.45720   0.19954   0.43306   0.00000  Uiso   1.00
C73    C     0.53244   0.18306   0.01180   0.00000  Uiso   1.00
C74    C     0.56667   0.16437   0.47580   0.00000  Uiso   1.00
C75    C     0.55033   0.17279   0.42069   0.00000  Uiso   1.00
C76    C     0.49893   0.19543   0.40119   0.00000  Uiso   1.00
C77    C     0.55480   0.18157   0.06753   0.00000  Uiso   1.00
C78    C     0.64000   0.13964   0.05179   0.00000  Uiso   1.00
H79    H     0.34784   0.12278   0.06722   0.00000  Uiso   1.00
H80    H     0.38179   0.00066   0.21984   0.00000  Uiso   1.00
H81    H     0.54254   0.29869   0.30056   0.00000  Uiso   1.00
H82    H     0.54504   0.01860   0.25842   0.00000  Uiso   1.00
H83    H     0.57180   0.02305   0.38569   0.00000  Uiso   1.00
H84    H     0.57613   0.07897   0.34584   0.00000  Uiso   1.00
H85    H     0.46987   0.06284   0.30131   0.00000  Uiso   1.00
H86    H     0.48155   0.07068   0.37484   0.00000  Uiso   1.00
H87    H     0.46506   0.00617   0.34092   0.00000  Uiso   1.00
H88    H     0.45582   0.09207   0.18976   0.00000  Uiso   1.00
H89    H     0.50940   0.21379   0.28260   0.00000  Uiso   1.00
H90    H     0.57787   0.16345   0.39306   0.00000  Uiso   1.00
H91    H     0.64385   0.12524   0.46819   0.00000  Uiso   1.00
H92    H     0.53154   0.19701   0.09639   0.00000  Uiso   1.00
H93    H     0.65034   0.23114   0.42294   0.00000  Uiso   1.00
H94    H     0.45121   0.22619   0.06640   0.00000  Uiso   1.00
H95    H     0.35507   0.24999   0.02192   0.00000  Uiso   1.00
H96    H     0.49200   0.20979   0.36116   0.00000  Uiso   1.00
N97    N     0.47827   0.15223   0.23543   0.00000  Uiso   1.00
N98    N     0.52173   0.18110   0.26458   0.00000  Uiso   1.00
O99    O     0.63102   0.24629   0.25358   0.00000  Uiso   1.00
O100   O     0.49336   0.11193   0.20713   0.00000  Uiso   1.00
O101   O     0.39075   0.23704   0.24424   0.00000  Uiso   1.00
O102   O     0.64823   0.17358   0.33380   0.00000  Uiso   1.00
O103   O     0.40796   0.16433   0.32446   0.00000  Uiso   1.00
O104   O     0.60925   0.09629   0.25577   0.00000  Uiso   1.00
O105   O     0.36898   0.08704   0.24643   0.00000  Uiso   1.00
O106   O     0.59204   0.16901   0.17554   0.00000  Uiso   1.00
O107   O     0.35177   0.15976   0.16620   0.00000  Uiso   1.00
O108   O     0.62574   0.33106   0.30811   0.00000  Uiso   1.00
Zn109  Zn    0.60453   0.17284   0.25624   0.00000  Uiso   1.00
Zn110  Zn    0.39547   0.16049   0.24377   0.00000  Uiso   1.00
C111   C     0.68156   0.26488   0.24955   0.00000  Uiso   1.00
C112   C     0.73021   0.20116   0.40954   0.00000  Uiso   1.00
C113   C     0.68673   0.31920   0.24545   0.00000  Uiso   1.00
C114   C     0.70497   0.17913   0.35311   0.00000  Uiso   1.00
C115   C     0.98331   0.01498   0.26546   0.00000  Uiso   1.00
C116   C     0.98640   0.06872   0.25452   0.00000  Uiso   1.00
C117   C     0.96310   0.16254   0.14581   0.00000  Uiso   1.00
C118   C     0.95201   0.14081   0.49577   0.00000  Uiso   1.00
C119   C     0.94180   0.16112   0.08737   0.00000  Uiso   1.00
C120   C     0.69469   0.22291   0.44129   0.00000  Uiso   1.00
C121   C     0.71631   0.23385   0.49734   0.00000  Uiso   1.00
C122   C     0.80992   0.20131   0.49027   0.00000  Uiso   1.00
C123   C     0.77219   0.22036   0.02241   0.00000  Uiso   1.00
C124   C     0.89841   0.00424   0.29916   0.00000  Uiso   1.00
C125   C     0.88699   0.03969   0.34582   0.00000  Uiso   1.00
C126   C     0.82171   0.04506   0.34026   0.00000  Uiso   1.00
C127   C     0.79053   0.19954   0.43306   0.00000  Uiso   1.00
C128   C     0.86577   0.18306   0.01180   0.00000  Uiso   1.00
C129   C     0.90001   0.16437   0.47580   0.00000  Uiso   1.00
C130   C     0.88366   0.17279   0.42069   0.00000  Uiso   1.00
C131   C     0.83226   0.19543   0.40119   0.00000  Uiso   1.00
C132   C     0.88813   0.18157   0.06753   0.00000  Uiso   1.00
C133   C     0.97333   0.13964   0.05179   0.00000  Uiso   1.00
H134   H     0.68117   0.12278   0.06722   0.00000  Uiso   1.00
H135   H     0.71512   0.00066   0.21984   0.00000  Uiso   1.00
H136   H     0.87588   0.29869   0.30056   0.00000  Uiso   1.00
H137   H     0.87838   0.01860   0.25842   0.00000  Uiso   1.00
H138   H     0.90514   0.02305   0.38569   0.00000  Uiso   1.00
H139   H     0.90947   0.07897   0.34584   0.00000  Uiso   1.00
H140   H     0.80320   0.06284   0.30131   0.00000  Uiso   1.00
H141   H     0.81488   0.07068   0.37484   0.00000  Uiso   1.00
H142   H     0.79840   0.00617   0.34092   0.00000  Uiso   1.00
H143   H     0.78915   0.09207   0.18976   0.00000  Uiso   1.00
H144   H     0.84274   0.21379   0.28260   0.00000  Uiso   1.00
H145   H     0.91121   0.16345   0.39306   0.00000  Uiso   1.00
H146   H     0.97719   0.12524   0.46819   0.00000  Uiso   1.00
H147   H     0.86488   0.19701   0.09639   0.00000  Uiso   1.00
H148   H     0.98367   0.23114   0.42294   0.00000  Uiso   1.00
H149   H     0.78455   0.22619   0.06640   0.00000  Uiso   1.00
H150   H     0.68840   0.24999   0.02192   0.00000  Uiso   1.00
H151   H     0.82533   0.20979   0.36116   0.00000  Uiso   1.00
N152   N     0.81160   0.15223   0.23543   0.00000  Uiso   1.00
N153   N     0.85507   0.18110   0.26458   0.00000  Uiso   1.00
O154   O     0.96435   0.24629   0.25358   0.00000  Uiso   1.00
O155   O     0.82670   0.11193   0.20713   0.00000  Uiso   1.00
O156   O     0.72408   0.23704   0.24424   0.00000  Uiso   1.00
O157   O     0.98157   0.17358   0.33380   0.00000  Uiso   1.00
O158   O     0.74130   0.16433   0.32446   0.00000  Uiso   1.00
O159   O     0.94258   0.09629   0.25577   0.00000  Uiso   1.00
O160   O     0.70231   0.08704   0.24643   0.00000  Uiso   1.00
O161   O     0.92537   0.16901   0.17554   0.00000  Uiso   1.00
O162   O     0.68510   0.15976   0.16620   0.00000  Uiso   1.00
O163   O     0.95908   0.33106   0.30811   0.00000  Uiso   1.00
Zn164  Zn    0.93786   0.17284   0.25624   0.00000  Uiso   1.00
Zn165  Zn    0.72881   0.16049   0.24377   0.00000  Uiso   1.00
C166   C     0.01489   0.59822   0.24955   0.00000  Uiso   1.00
C167   C     0.06354   0.53450   0.40954   0.00000  Uiso   1.00
C168   C     0.02007   0.65253   0.24545   0.00000  Uiso   1.00
C169   C     0.03830   0.51246   0.35311   0.00000  Uiso   1.00
C170   C     0.31664   0.34832   0.26546   0.00000  Uiso   1.00
C171   C     0.31974   0.40205   0.25452   0.00000  Uiso   1.00
C172   C     0.29643   0.49587   0.14581   0.00000  Uiso   1.00
C173   C     0.28535   0.47414   0.49577   0.00000  Uiso   1.00
C174   C     0.27513   0.49445   0.08737   0.00000  Uiso   1.00
C175   C     0.02803   0.55624   0.44129   0.00000  Uiso   1.00
C176   C     0.04964   0.56719   0.49734   0.00000  Uiso   1.00
C177   C     0.14325   0.53464   0.49027   0.00000  Uiso   1.00
C178   C     0.10552   0.55370   0.02241   0.00000  Uiso   1.00
C179   C     0.23174   0.33758   0.29916   0.00000  Uiso   1.00
C180   C     0.22032   0.37302   0.34582   0.00000  Uiso   1.00
C181   C     0.15504   0.37839   0.34026   0.00000  Uiso   1.00
C182   C     0.12386   0.53288   0.43306   0.00000  Uiso   1.00
C183   C     0.19910   0.51639   0.01180   0.00000  Uiso   1.00
C184   C     0.23334   0.49771   0.47580   0.00000  Uiso   1.00
C185   C     0.21699   0.50612   0.42069   0.00000  Uiso   1.00
C186   C     0.16560   0.52876   0.40119   0.00000  Uiso   1.00
C187   C     0.22146   0.51490   0.06753   0.00000  Uiso   1.00
C188   C     0.30666   0.47297   0.05179   0.00000  Uiso   1.00
H189   H     0.01451   0.45611   0.06722   0.00000  Uiso   1.00
H190   H     0.04846   0.33399   0.21984   0.00000  Uiso   1.00
H191   H     0.20921   0.63202   0.30056   0.00000  Uiso   1.00
H192   H     0.21171   0.35194   0.25842   0.00000  Uiso   1.00
H193   H     0.23847   0.35638   0.38569   0.00000  Uiso   1.00
H194   H     0.24280   0.41230   0.34584   0.00000  Uiso   1.00
H195   H     0.13654   0.39617   0.30131   0.00000  Uiso   1.00
H196   H     0.14821   0.40401   0.37484   0.00000  Uiso   1.00
H197   H     0.13173   0.33951   0.34092   0.00000  Uiso   1.00
H198   H     0.12248   0.42540   0.18976   0.00000  Uiso   1.00
H199   H     0.17607   0.54713   0.28260   0.00000  Uiso   1.00
H200   H     0.24454   0.49678   0.39306   0.00000  Uiso   1.00
H201   H     0.31052   0.45857   0.46819   0.00000  Uiso   1.00
H202   H     0.19821   0.53034   0.09639   0.00000  Uiso   1.00
H203   H     0.31700   0.56447   0.42294   0.00000  Uiso   1.00
H204   H     0.11788   0.55952   0.06640   0.00000  Uiso   1.00
H205   H     0.02174   0.58333   0.02192   0.00000  Uiso   1.00
H206   H     0.15866   0.54313   0.36116   0.00000  Uiso   1.00
N207   N     0.14493   0.48556   0.23543   0.00000  Uiso   1.00
N208   N     0.18840   0.51444   0.26458   0.00000  Uiso   1.00
O209   O     0.29769   0.57963   0.25358   0.00000  Uiso   1.00
O210   O     0.16003   0.44526   0.20713   0.00000  Uiso   1.00
O211   O     0.05742   0.57038   0.24424   0.00000  Uiso   1.00
O212   O     0.31490   0.50691   0.33380   0.00000  Uiso   1.00
O213   O     0.07463   0.49766   0.32446   0.00000  Uiso   1.00
O214   O     0.27592   0.42962   0.25577   0.00000  Uiso   1.00
O215   O     0.03565   0.42037   0.24643   0.00000  Uiso   1.00
O216   O     0.25870   0.50234   0.17554   0.00000  Uiso   1.00
O217   O     0.01843   0.49309   0.16620   0.00000  Uiso   1.00
O218   O     0.29241   0.66439   0.30811   0.00000  Uiso   1.00
Zn219  Zn    0.27119   0.50618   0.25624   0.00000  Uiso   1.00
Zn220  Zn    0.06214   0.49382   0.24377   0.00000  Uiso   1.00
C221   C     0.34822   0.59822   0.24955   0.00000  Uiso   1.00
C222   C     0.39687   0.53450   0.40954   0.00000  Uiso   1.00
C223   C     0.35340   0.65253   0.24545   0.00000  Uiso   1.00
C224   C     0.37163   0.51246   0.35311   0.00000  Uiso   1.00
C225   C     0.64998   0.34832   0.26546   0.00000  Uiso   1.00
C226   C     0.65307   0.40205   0.25452   0.00000  Uiso   1.00
C227   C     0.62977   0.49587   0.14581   0.00000  Uiso   1.00
C228   C     0.61868   0.47414   0.49577   0.00000  Uiso   1.00
C229   C     0.60847   0.49445   0.08737   0.00000  Uiso   1.00
C230   C     0.36136   0.55624   0.44129   0.00000  Uiso   1.00
C231   C     0.38297   0.56719   0.49734   0.00000  Uiso   1.00
C232   C     0.47658   0.53464   0.49027   0.00000  Uiso   1.00
C233   C     0.43886   0.55370   0.02241   0.00000  Uiso   1.00
C234   C     0.56507   0.33758   0.29916   0.00000  Uiso   1.00
C235   C     0.55366   0.37302   0.34582   0.00000  Uiso   1.00
C236   C     0.48838   0.37839   0.34026   0.00000  Uiso   1.00
C237   C     0.45720   0.53288   0.43306   0.00000  Uiso   1.00
C238   C     0.53244   0.51639   0.01180   0.00000  Uiso   1.00
C239   C     0.56667   0.49771   0.47580   0.00000  Uiso   1.00
C240   C     0.55033   0.50612   0.42069   0.00000  Uiso   1.00
C241   C     0.49893   0.52876   0.40119   0.00000  Uiso   1.00
C242   C     0.55480   0.51490   0.06753   0.00000  Uiso   1.00
C243   C     0.64000   0.47297   0.05179   0.00000  Uiso   1.00
H244   H     0.34784   0.45611   0.06722   0.00000  Uiso   1.00
H245   H     0.38179   0.33399   0.21984   0.00000  Uiso   1.00
H246   H     0.54254   0.63202   0.30056   0.00000  Uiso   1.00
H247   H     0.54504   0.35194   0.25842   0.00000  Uiso   1.00
H248   H     0.57180   0.35638   0.38569   0.00000  Uiso   1.00
H249   H     0.57613   0.41230   0.34584   0.00000  Uiso   1.00
H250   H     0.46987   0.39617   0.30131   0.00000  Uiso   1.00
H251   H     0.48155   0.40401   0.37484   0.00000  Uiso   1.00
H252   H     0.46506   0.33951   0.34092   0.00000  Uiso   1.00
H253   H     0.45582   0.42540   0.18976   0.00000  Uiso   1.00
H254   H     0.50940   0.54713   0.28260   0.00000  Uiso   1.00
H255   H     0.57787   0.49678   0.39306   0.00000  Uiso   1.00
H256   H     0.64385   0.45857   0.46819   0.00000  Uiso   1.00
H257   H     0.53154   0.53034   0.09639   0.00000  Uiso   1.00
H258   H     0.65034   0.56447   0.42294   0.00000  Uiso   1.00
H259   H     0.45121   0.55952   0.06640   0.00000  Uiso   1.00
H260   H     0.35507   0.58333   0.02192   0.00000  Uiso   1.00
H261   H     0.49200   0.54313   0.36116   0.00000  Uiso   1.00
N262   N     0.47827   0.48556   0.23543   0.00000  Uiso   1.00
N263   N     0.52173   0.51444   0.26458   0.00000  Uiso   1.00
O264   O     0.63102   0.57963   0.25358   0.00000  Uiso   1.00
O265   O     0.49336   0.44526   0.20713   0.00000  Uiso   1.00
O266   O     0.39075   0.57038   0.24424   0.00000  Uiso   1.00
O267   O     0.64823   0.50691   0.33380   0.00000  Uiso   1.00
O268   O     0.40796   0.49766   0.32446   0.00000  Uiso   1.00
O269   O     0.60925   0.42962   0.25577   0.00000  Uiso   1.00
O270   O     0.36898   0.42037   0.24643   0.00000  Uiso   1.00
O271   O     0.59204   0.50234   0.17554   0.00000  Uiso   1.00
O272   O     0.35177   0.49309   0.16620   0.00000  Uiso   1.00
O273   O     0.62574   0.66439   0.30811   0.00000  Uiso   1.00
Zn274  Zn    0.60453   0.50618   0.25624   0.00000  Uiso   1.00
Zn275  Zn    0.39547   0.49382   0.24377   0.00000  Uiso   1.00
C276   C     0.68156   0.59822   0.24955   0.00000  Uiso   1.00
C277   C     0.73021   0.53450   0.40954   0.00000  Uiso   1.00
C278   C     0.68673   0.65253   0.24545   0.00000  Uiso   1.00
C279   C     0.70497   0.51246   0.35311   0.00000  Uiso   1.00
C280   C     0.98331   0.34832   0.26546   0.00000  Uiso   1.00
C281   C     0.98640   0.40205   0.25452   0.00000  Uiso   1.00
C282   C     0.96310   0.49587   0.14581   0.00000  Uiso   1.00
C283   C     0.95201   0.47414   0.49577   0.00000  Uiso   1.00
C284   C     0.94180   0.49445   0.08737   0.00000  Uiso   1.00
C285   C     0.69469   0.55624   0.44129   0.00000  Uiso   1.00
C286   C     0.71631   0.56719   0.49734   0.00000  Uiso   1.00
C287   C     0.80992   0.53464   0.49027   0.00000  Uiso   1.00
C288   C     0.77219   0.55370   0.02241   0.00000  Uiso   1.00
C289   C     0.89841   0.33758   0.29916   0.00000  Uiso   1.00
C290   C     0.88699   0.37302   0.34582   0.00000  Uiso   1.00
C291   C     0.82171   0.37839   0.34026   0.00000  Uiso   1.00
C292   C     0.79053   0.53288   0.43306   0.00000  Uiso   1.00
C293   C     0.86577   0.51639   0.01180   0.00000  Uiso   1.00
C294   C     0.90001   0.49771   0.47580   0.00000  Uiso   1.00
C295   C     0.88366   0.50612   0.42069   0.00000  Uiso   1.00
C296   C     0.83226   0.52876   0.40119   0.00000  Uiso   1.00
C297   C     0.88813   0.51490   0.06753   0.00000  Uiso   1.00
C298   C     0.97333   0.47297   0.05179   0.00000  Uiso   1.00
H299   H     0.68117   0.45611   0.06722   0.00000  Uiso   1.00
H300   H     0.71512   0.33399   0.21984   0.00000  Uiso   1.00
H301   H     0.87588   0.63202   0.30056   0.00000  Uiso   1.00
H302   H     0.87838   0.35194   0.25842   0.00000  Uiso   1.00
H303   H     0.90514   0.35638   0.38569   0.00000  Uiso   1.00
H304   H     0.90947   0.41230   0.34584   0.00000  Uiso   1.00
H305   H     0.80320   0.39617   0.30131   0.00000  Uiso   1.00
H306   H     0.81488   0.40401   0.37484   0.00000  Uiso   1.00
H307   H     0.79840   0.33951   0.34092   0.00000  Uiso   1.00
H308   H     0.78915   0.42540   0.18976   0.00000  Uiso   1.00
H309   H     0.84274   0.54713   0.28260   0.00000  Uiso   1.00
H310   H     0.91121   0.49678   0.39306   0.00000  Uiso   1.00
H311   H     0.97719   0.45857   0.46819   0.00000  Uiso   1.00
H312   H     0.86488   0.53034   0.09639   0.00000  Uiso   1.00
H313   H     0.98367   0.56447   0.42294   0.00000  Uiso   1.00
H314   H     0.78455   0.55952   0.06640   0.00000  Uiso   1.00
H315   H     0.68840   0.58333   0.02192   0.00000  Uiso   1.00
H316   H     0.82533   0.54313   0.36116   0.00000  Uiso   1.00
N317   N     0.81160   0.48556   0.23543   0.00000  Uiso   1.00
N318   N     0.85507   0.51444   0.26458   0.00000  Uiso   1.00
O319   O     0.96435   0.57963   0.25358   0.00000  Uiso   1.00
O320   O     0.82670   0.44526   0.20713   0.00000  Uiso   1.00
O321   O     0.72408   0.57038   0.24424   0.00000  Uiso   1.00
O322   O     0.98157   0.50691   0.33380   0.00000  Uiso   1.00
O323   O     0.74130   0.49766   0.32446   0.00000  Uiso   1.00
O324   O     0.94258   0.42962   0.25577   0.00000  Uiso   1.00
O325   O     0.70231   0.42037   0.24643   0.00000  Uiso   1.00
O326   O     0.92537   0.50234   0.17554   0.00000  Uiso   1.00
O327   O     0.68510   0.49309   0.16620   0.00000  Uiso   1.00
O328   O     0.95908   0.66439   0.30811   0.00000  Uiso   1.00
Zn329  Zn    0.93786   0.50618   0.25624   0.00000  Uiso   1.00
Zn330  Zn    0.72881   0.49382   0.24377   0.00000  Uiso   1.00
C331   C     0.01489   0.93155   0.24955   0.00000  Uiso   1.00
C332   C     0.06354   0.86783   0.40954   0.00000  Uiso   1.00
C333   C     0.02007   0.98587   0.24545   0.00000  Uiso   1.00
C334   C     0.03830   0.84579   0.35311   0.00000  Uiso   1.00
C335   C     0.31664   0.68165   0.26546   0.00000  Uiso   1.00
C336   C     0.31974   0.73538   0.25452   0.00000  Uiso   1.00
C337   C     0.29643   0.82920   0.14581   0.00000  Uiso   1.00
C338   C     0.28535   0.80748   0.49577   0.00000  Uiso   1.00
C339   C     0.27513   0.82778   0.08737   0.00000  Uiso   1.00
C340   C     0.02803   0.88957   0.44129   0.00000  Uiso   1.00
C341   C     0.04964   0.90052   0.49734   0.00000  Uiso   1.00
C342   C     0.14325   0.86798   0.49027   0.00000  Uiso   1.00
C343   C     0.10552   0.88703   0.02241   0.00000  Uiso   1.00
C344   C     0.23174   0.67091   0.29916   0.00000  Uiso   1.00
C345   C     0.22032   0.70635   0.34582   0.00000  Uiso   1.00
C346   C     0.15504   0.71173   0.34026   0.00000  Uiso   1.00
C347   C     0.12386   0.86621   0.43306   0.00000  Uiso   1.00
C348   C     0.19910   0.84972   0.01180   0.00000  Uiso   1.00
C349   C     0.23334   0.83104   0.47580   0.00000  Uiso   1.00
C350   C     0.21699   0.83945   0.42069   0.00000  Uiso   1.00
C351   C     0.16560   0.86209   0.40119   0.00000  Uiso   1.00
C352   C     0.22146   0.84823   0.06753   0.00000  Uiso   1.00
C353   C     0.30666   0.80630   0.05179   0.00000  Uiso   1.00
H354   H     0.01451   0.78945   0.06722   0.00000  Uiso   1.00
H355   H     0.04846   0.66732   0.21984   0.00000  Uiso   1.00
H356   H     0.20921   0.96536   0.30056   0.00000  Uiso   1.00
H357   H     0.21171   0.68527   0.25842   0.00000  Uiso   1.00
H358   H     0.23847   0.68972   0.38569   0.00000  Uiso   1.00
H359   H     0.24280   0.74564   0.34584   0.00000  Uiso   1.00
H360   H     0.13654   0.72950   0.30131   0.00000  Uiso   1.00
H361   H     0.14821   0.73734   0.37484   0.00000  Uiso   1.00
H362   H     0.13173   0.67284   0.34092   0.00000  Uiso   1.00
H363   H     0.12248   0.75873   0.18976   0.00000  Uiso   1.00
H364   H     0.17607   0.88046   0.28260   0.00000  Uiso   1.00
H365   H     0.24454   0.83011   0.39306   0.00000  Uiso   1.00
H366   H     0.31052   0.79190   0.46819   0.00000  Uiso   1.00
H367   H     0.19821   0.86367   0.09639   0.00000  Uiso   1.00
H368   H     0.31700   0.89780   0.42294   0.00000  Uiso   1.00
H369   H     0.11788   0.89286   0.06640   0.00000  Uiso   1.00
H370   H     0.02174   0.91666   0.02192   0.00000  Uiso   1.00
H371   H     0.15866   0.87646   0.36116   0.00000  Uiso   1.00
N372   N     0.14493   0.81890   0.23543   0.00000  Uiso   1.00
N373   N     0.18840   0.84777   0.26458   0.00000  Uiso   1.00
O374   O     0.29769   0.91296   0.25358   0.00000  Uiso   1.00
O375   O     0.16003   0.77860   0.20713   0.00000  Uiso   1.00
O376   O     0.05742   0.90371   0.24424   0.00000  Uiso   1.00
O377   O     0.31490   0.84024   0.33380   0.00000  Uiso   1.00
O378   O     0.07463   0.83099   0.32446   0.00000  Uiso   1.00
O379   O     0.27592   0.76296   0.25577   0.00000  Uiso   1.00
O380   O     0.03565   0.75371   0.24643   0.00000  Uiso   1.00
O381   O     0.25870   0.83567   0.17554   0.00000  Uiso   1.00
O382   O     0.01843   0.82642   0.16620   0.00000  Uiso   1.00
O383   O     0.29241   0.99772   0.30811   0.00000  Uiso   1.00
Zn384  Zn    0.27119   0.83951   0.25624   0.00000  Uiso   1.00
Zn385  Zn    0.06214   0.82716   0.24377   0.00000  Uiso   1.00
C386   C     0.34822   0.93155   0.24955   0.00000  Uiso   1.00
C387   C     0.39687   0.86783   0.40954   0.00000  Uiso   1.00
C388   C     0.35340   0.98587   0.24545   0.00000  Uiso   1.00
C389   C     0.37163   0.84579   0.35311   0.00000  Uiso   1.00
C390   C     0.64998   0.68165   0.26546   0.00000  Uiso   1.00
C391   C     0.65307   0.73538   0.25452   0.00000  Uiso   1.00
C392   C     0.62977   0.82920   0.14581   0.00000  Uiso   1.00
C393   C     0.61868   0.80748   0.49577   0.00000  Uiso   1.00
C394   C     0.60847   0.82778   0.08737   0.00000  Uiso   1.00
C395   C     0.36136   0.88957   0.44129   0.00000  Uiso   1.00
C396   C     0.38297   0.90052   0.49734   0.00000  Uiso   1.00
C397   C     0.47658   0.86798   0.49027   0.00000  Uiso   1.00
C398   C     0.43886   0.88703   0.02241   0.00000  Uiso   1.00
C399   C     0.56507   0.67091   0.29916   0.00000  Uiso   1.00
C400   C     0.55366   0.70635   0.34582   0.00000  Uiso   1.00
C401   C     0.48838   0.71173   0.34026   0.00000  Uiso   1.00
C402   C     0.45720   0.86621   0.43306   0.00000  Uiso   1.00
C403   C     0.53244   0.84972   0.01180   0.00000  Uiso   1.00
C404   C     0.56667   0.83104   0.47580   0.00000  Uiso   1.00
C405   C     0.55033   0.83945   0.42069   0.00000  Uiso   1.00
C406   C     0.49893   0.86209   0.40119   0.00000  Uiso   1.00
C407   C     0.55480   0.84823   0.06753   0.00000  Uiso   1.00
C408   C     0.64000   0.80630   0.05179   0.00000  Uiso   1.00
H409   H     0.34784   0.78945   0.06722   0.00000  Uiso   1.00
H410   H     0.38179   0.66732   0.21984   0.00000  Uiso   1.00
H411   H     0.54254   0.96536   0.30056   0.00000  Uiso   1.00
H412   H     0.54504   0.68527   0.25842   0.00000  Uiso   1.00
H413   H     0.57180   0.68972   0.38569   0.00000  Uiso   1.00
H414   H     0.57613   0.74564   0.34584   0.00000  Uiso   1.00
H415   H     0.46987   0.72950   0.30131   0.00000  Uiso   1.00
H416   H     0.48155   0.73734   0.37484   0.00000  Uiso   1.00
H417   H     0.46506   0.67284   0.34092   0.00000  Uiso   1.00
H418   H     0.45582   0.75873   0.18976   0.00000  Uiso   1.00
H419   H     0.50940   0.88046   0.28260   0.00000  Uiso   1.00
H420   H     0.57787   0.83011   0.39306   0.00000  Uiso   1.00
H421   H     0.64385   0.79190   0.46819   0.00000  Uiso   1.00
H422   H     0.53154   0.86367   0.09639   0.00000  Uiso   1.00
H423   H     0.65034   0.89780   0.42294   0.00000  Uiso   1.00
H424   H     0.45121   0.89286   0.06640   0.00000  Uiso   1.00
H425   H     0.35507   0.91666   0.02192   0.00000  Uiso   1.00
H426   H     0.49200   0.87646   0.36116   0.00000  Uiso   1.00
N427   N     0.47827   0.81890   0.23543   0.00000  Uiso   1.00
N428   N     0.52173   0.84777   0.26458   0.00000  Uiso   1.00
O429   O     0.63102   0.91296   0.25358   0.00000  Uiso   1.00
O430   O     0.49336   0.77860   0.20713   0.00000  Uiso   1.00
O431   O     0.39075   0.90371   0.24424   0.00000  Uiso   1.00
O432   O     0.64823   0.84024   0.33380   0.00000  Uiso   1.00
O433   O     0.40796   0.83099   0.32446   0.00000  Uiso   1.00
O434   O     0.60925   0.76296   0.25577   0.00000  Uiso   1.00
O435   O     0.36898   0.75371   0.24643   0.00000  Uiso   1.00
O436   O     0.59204   0.83567   0.17554   0.00000  Uiso   1.00
O437   O     0.35177   0.82642   0.16620   0.00000  Uiso   1.00
O438   O     0.62574   0.99772   0.30811   0.00000  Uiso   1.00
Zn439  Zn    0.60453   0.83951   0.25624   0.00000  Uiso   1.00
Zn440  Zn    0.39547   0.82716   0.24377   0.00000  Uiso   1.00
C441   C     0.68156   0.93155   0.24955   0.00000  Uiso   1.00
C442   C     0.73021   0.86783   0.40954   0.00000  Uiso   1.00
C443   C     0.68673   0.98587   0.24545   0.00000  Uiso   1.00
C444   C     0.70497   0.84579   0.35311   0.00000  Uiso   1.00
C445   C     0.98331   0.68165   0.26546   0.00000  Uiso   1.00
C446   C     0.98640   0.73538   0.25452   0.00000  Uiso   1.00
C447   C     0.96310   0.82920   0.14581   0.00000  Uiso   1.00
C448   C     0.95201   0.80748   0.49577   0.00000  Uiso   1.00
C449   C     0.94180   0.82778   0.08737   0.00000  Uiso   1.00
C450   C     0.69469   0.88957   0.44129   0.00000  Uiso   1.00
C451   C     0.71631   0.90052   0.49734   0.00000  Uiso   1.00
C452   C     0.80992   0.86798   0.49027   0.00000  Uiso   1.00
C453   C     0.77219   0.88703   0.02241   0.00000  Uiso   1.00
C454   C     0.89841   0.67091   0.29916   0.00000  Uiso   1.00
C455   C     0.88699   0.70635   0.34582   0.00000  Uiso   1.00
C456   C     0.82171   0.71173   0.34026   0.00000  Uiso   1.00
C457   C     0.79053   0.86621   0.43306   0.00000  Uiso   1.00
C458   C     0.86577   0.84972   0.01180   0.00000  Uiso   1.00
C459   C     0.90001   0.83104   0.47580   0.00000  Uiso   1.00
C460   C     0.88366   0.83945   0.42069   0.00000  Uiso   1.00
C461   C     0.83226   0.86209   0.40119   0.00000  Uiso   1.00
C462   C     0.88813   0.84823   0.06753   0.00000  Uiso   1.00
C463   C     0.97333   0.80630   0.05179   0.00000  Uiso   1.00
H464   H     0.68117   0.78945   0.06722   0.00000  Uiso   1.00
H465   H     0.71512   0.66732   0.21984   0.00000  Uiso   1.00
H466   H     0.87588   0.96536   0.30056   0.00000  Uiso   1.00
H467   H     0.87838   0.68527   0.25842   0.00000  Uiso   1.00
H468   H     0.90514   0.68972   0.38569   0.00000  Uiso   1.00
H469   H     0.90947   0.74564   0.34584   0.00000  Uiso   1.00
H470   H     0.80320   0.72950   0.30131   0.00000  Uiso   1.00
H471   H     0.81488   0.73734   0.37484   0.00000  Uiso   1.00
H472   H     0.79840   0.67284   0.34092   0.00000  Uiso   1.00
H473   H     0.78915   0.75873   0.18976   0.00000  Uiso   1.00
H474   H     0.84274   0.88046   0.28260   0.00000  Uiso   1.00
H475   H     0.91121   0.83011   0.39306   0.00000  Uiso   1.00
H476   H     0.97719   0.79190   0.46819   0.00000  Uiso   1.00
H477   H     0.86488   0.86367   0.09639   0.00000  Uiso   1.00
H478   H     0.98367   0.89780   0.42294   0.00000  Uiso   1.00
H479   H     0.78455   0.89286   0.06640   0.00000  Uiso   1.00
H480   H     0.68840   0.91666   0.02192   0.00000  Uiso   1.00
H481   H     0.82533   0.87646   0.36116   0.00000  Uiso   1.00
N482   N     0.81160   0.81890   0.23543   0.00000  Uiso   1.00
N483   N     0.85507   0.84777   0.26458   0.00000  Uiso   1.00
O484   O     0.96435   0.91296   0.25358   0.00000  Uiso   1.00
O485   O     0.82670   0.77860   0.20713   0.00000  Uiso   1.00
O486   O     0.72408   0.90371   0.24424   0.00000  Uiso   1.00
O487   O     0.98157   0.84024   0.33380   0.00000  Uiso   1.00
O488   O     0.74130   0.83099   0.32446   0.00000  Uiso   1.00
O489   O     0.94258   0.76296   0.25577   0.00000  Uiso   1.00
O490   O     0.70231   0.75371   0.24643   0.00000  Uiso   1.00
O491   O     0.92537   0.83567   0.17554   0.00000  Uiso   1.00
O492   O     0.68510   0.82642   0.16620   0.00000  Uiso   1.00
O493   O     0.95908   0.99772   0.30811   0.00000  Uiso   1.00
Zn494  Zn    0.93786   0.83951   0.25624   0.00000  Uiso   1.00
Zn495  Zn    0.72881   0.82716   0.24377   0.00000  Uiso   1.00
C496   C     0.01489   0.26488   0.74955   0.00000  Uiso   1.00
C497   C     0.06354   0.20116   0.90954   0.00000  Uiso   1.00
C498   C     0.02007   0.31920   0.74545   0.00000  Uiso   1.00
C499   C     0.03830   0.17913   0.85311   0.00000  Uiso   1.00
C500   C     0.31664   0.01498   0.76546   0.00000  Uiso   1.00
C501   C     0.31974   0.06872   0.75452   0.00000  Uiso   1.00
C502   C     0.29643   0.16254   0.64581   0.00000  Uiso   1.00
C503   C     0.28535   0.14081   0.99577   0.00000  Uiso   1.00
C504   C     0.27513   0.16112   0.58737   0.00000  Uiso   1.00
C505   C     0.02803   0.22291   0.94129   0.00000  Uiso   1.00
C506   C     0.04964   0.23385   0.99734   0.00000  Uiso   1.00
C507   C     0.14325   0.20131   0.99027   0.00000  Uiso   1.00
C508   C     0.10552   0.22036   0.52241   0.00000  Uiso   1.00
C509   C     0.23174   0.00424   0.79916   0.00000  Uiso   1.00
C510   C     0.22032   0.03969   0.84582   0.00000  Uiso   1.00
C511   C     0.15504   0.04506   0.84026   0.00000  Uiso   1.00
C512   C     0.12386   0.19954   0.93306   0.00000  Uiso   1.00
C513   C     0.19910   0.18306   0.51180   0.00000  Uiso   1.00
C514   C     0.23334   0.16437   0.97580   0.00000  Uiso   1.00
C515   C     0.21699   0.17279   0.92069   0.00000  Uiso   1.00
C516   C     0.16560   0.19543   0.90119   0.00000  Uiso   1.00
C517   C     0.22146   0.18157   0.56753   0.00000  Uiso   1.00
C518   C     0.30666   0.13964   0.55179   0.00000  Uiso   1.00
H519   H     0.01451   0.12278   0.56722   0.00000  Uiso   1.00
H520   H     0.04846   0.00066   0.71984   0.00000  Uiso   1.00
H521   H     0.20921   0.29869   0.80056   0.00000  Uiso   1.00
H522   H     0.21171   0.01860   0.75842   0.00000  Uiso   1.00
H523   H     0.23847   0.02305   0.88569   0.00000  Uiso   1.00
H524   H     0.24280   0.07897   0.84584   0.00000  Uiso   1.00
H525   H     0.13654   0.06284   0.80131   0.00000  Uiso   1.00
H526   H     0.14821   0.07068   0.87484   0.00000  Uiso   1.00
H527   H     0.13173   0.00617   0.84092   0.00000  Uiso   1.00
H528   H     0.12248   0.09207   0.68976   0.00000  Uiso   1.00
H529   H     0.17607   0.21379   0.78260   0.00000  Uiso   1.00
H530   H     0.24454   0.16345   0.89306   0.00000  Uiso   1.00
H531   H     0.31052   0.12524   0.96819   0.00000  Uiso   1.00
H532   H     0.19821   0.19701   0.59639   0.00000  Uiso   1.00
H533   H     0.31700   0.23114   0.92294   0.00000  Uiso   1.00
H534   H     0.11788   0.22619   0.56640   0.00000  Uiso   1.00
H535   H     0.02174   0.24999   0.52192   0.00000  Uiso   1.00
H536   H     0.15866   0.20979   0.86116   0.00000  Uiso   1.00
N537   N     0.14493   0.15223   0.73543   0.00000  Uiso   1.00
N538   N     0.18840   0.18110   0.76458   0.00000  Uiso   1.00
O539   O     0.29769   0.24629   0.75358   0.00000  Uiso   1.00
O540   O     0.16003   0.11193   0.70713   0.00000  Uiso   1.00
O541   O     0.05742   0.23704   0.74424   0.00000  Uiso   1.00
O542   O     0.31490   0.17358   0.83380   0.00000  Uiso   1.00
O543   O     0.07463   0.16433   0.82446   0.00000  Uiso   1.00
O544   O     0.27592   0.09629   0.75577   0.00000  Uiso   1.00
O545   O     0.03565   0.08704   0.74643   0.00000  Uiso   1.00
O546   O     0.25870   0.16901   0.67554   0.00000  Uiso   1.00
O547   O     0.01843   0.15976   0.66620   0.00000  Uiso   1.00
O548   O     0.29241   0.33106   0.80811   0.00000  Uiso   1.00
Zn549  Zn    0.27119   0.17284   0.75624   0.00000  Uiso   1.00
Zn550  Zn    0.06214   0.16049   0.74377   0.00000  Uiso   1.00
C551   C     0.34822   0.26488   0.74955   0.00000  Uiso   1.00
C552   C     0.39687   0.20116   0.90954   0.00000  Uiso   1.00
C553   C     0.35340   0.31920   0.74545   0.00000  Uiso   1.00
C554   C     0.37163   0.17913   0.85311   0.00000  Uiso   1.00
C555   C     0.64998   0.01498   0.76546   0.00000  Uiso   1.00
C556   C     0.65307   0.06872   0.75452   0.00000  Uiso   1.00
C557   C     0.62977   0.16254   0.64581   0.00000  Uiso   1.00
C558   C     0.61868   0.14081   0.99577   0.00000  Uiso   1.00
C559   C     0.60847   0.16112   0.58737   0.00000  Uiso   1.00
C560   C     0.36136   0.22291   0.94129   0.00000  Uiso   1.00
C561   C     0.38297   0.23385   0.99734   0.00000  Uiso   1.00
C562   C     0.47658   0.20131   0.99027   0.00000  Uiso   1.00
C563   C     0.43886   0.22036   0.52241   0.00000  Uiso   1.00
C564   C     0.56507   0.00424   0.79916   0.00000  Uiso   1.00
C565   C     0.55366   0.03969   0.84582   0.00000  Uiso   1.00
C566   C     0.48838   0.04506   0.84026   0.00000  Uiso   1.00
C567   C     0.45720   0.19954   0.93306   0.00000  Uiso   1.00
C568   C     0.53244   0.18306   0.51180   0.00000  Uiso   1.00
C569   C     0.56667   0.16437   0.97580   0.00000  Uiso   1.00
C570   C     0.55033   0.17279   0.92069   0.00000  Uiso   1.00
C571   C     0.49893   0.19543   0.90119   0.00000  Uiso   1.00
C572   C     0.55480   0.18157   0.56753   0.00000  Uiso   1.00
C573   C     0.64000   0.13964   0.55179   0.00000  Uiso   1.00
H574   H     0.34784   0.12278   0.56722   0.00000  Uiso   1.00
H575   H     0.38179   0.00066   0.71984   0.00000  Uiso   1.00
H576   H     0.54254   0.29869   0.80056   0.00000  Uiso   1.00
H577   H     0.54504   0.01860   0.75842   0.00000  Uiso   1.00
H578   H     0.57180   0.02305   0.88569   0.00000  Uiso   1.00
H579   H     0.57613   0.07897   0.84584   0.00000  Uiso   1.00
H580   H     0.46987   0.06284   0.80131   0.00000  Uiso   1.00
H581   H     0.48155   0.07068   0.87484   0.00000  Uiso   1.00
H582   H     0.46506   0.00617   0.84092   0.00000  Uiso   1.00
H583   H     0.45582   0.09207   0.68976   0.00000  Uiso   1.00
H584   H     0.50940   0.21379   0.78260   0.00000  Uiso   1.00
H585   H     0.57787   0.16345   0.89306   0.00000  Uiso   1.00
H586   H     0.64385   0.12524   0.96819   0.00000  Uiso   1.00
H587   H     0.53154   0.19701   0.59639   0.00000  Uiso   1.00
H588   H     0.65034   0.23114   0.92294   0.00000  Uiso   1.00
H589   H     0.45121   0.22619   0.56640   0.00000  Uiso   1.00
H590   H     0.35507   0.24999   0.52192   0.00000  Uiso   1.00
H591   H     0.49200   0.20979   0.86116   0.00000  Uiso   1.00
N592   N     0.47827   0.15223   0.73543   0.00000  Uiso   1.00
N593   N     0.52173   0.18110   0.76458   0.00000  Uiso   1.00
O594   O     0.63102   0.24629   0.75358   0.00000  Uiso   1.00
O595   O     0.49336   0.11193   0.70713   0.00000  Uiso   1.00
O596   O     0.39075   0.23704   0.74424   0.00000  Uiso   1.00
O597   O     0.64823   0.17358   0.83380   0.00000  Uiso   1.00
O598   O     0.40796   0.16433   0.82446   0.00000  Uiso   1.00
O599   O     0.60925   0.09629   0.75577   0.00000  Uiso   1.00
O600   O     0.36898   0.08704   0.74643   0.00000  Uiso   1.00
O601   O     0.59204   0.16901   0.67554   0.00000  Uiso   1.00
O602   O     0.35177   0.15976   0.66620   0.00000  Uiso   1.00
O603   O     0.62574   0.33106   0.80811   0.00000  Uiso   1.00
Zn604  Zn    0.60453   0.17284   0.75624   0.00000  Uiso   1.00
Zn605  Zn    0.39547   0.16049   0.74377   0.00000  Uiso   1.00
C606   C     0.68156   0.26488   0.74955   0.00000  Uiso   1.00
C607   C     0.73021   0.20116   0.90954   0.00000  Uiso   1.00
C608   C     0.68673   0.31920   0.74545   0.00000  Uiso   1.00
C609   C     0.70497   0.17913   0.85311   0.00000  Uiso   1.00
C610   C     0.98331   0.01498   0.76546   0.00000  Uiso   1.00
C611   C     0.98640   0.06872   0.75452   0.00000  Uiso   1.00
C612   C     0.96310   0.16254   0.64581   0.00000  Uiso   1.00
C613   C     0.95201   0.14081   0.99577   0.00000  Uiso   1.00
C614   C     0.94180   0.16112   0.58737   0.00000  Uiso   1.00
C615   C     0.69469   0.22291   0.94129   0.00000  Uiso   1.00
C616   C     0.71631   0.23385   0.99734   0.00000  Uiso   1.00
C617   C     0.80992   0.20131   0.99027   0.00000  Uiso   1.00
C618   C     0.77219   0.22036   0.52241   0.00000  Uiso   1.00
C619   C     0.89841   0.00424   0.79916   0.00000  Uiso   1.00
C620   C     0.88699   0.03969   0.84582   0.00000  Uiso   1.00
C621   C     0.82171   0.04506   0.84026   0.00000  Uiso   1.00
C622   C     0.79053   0.19954   0.93306   0.00000  Uiso   1.00
C623   C     0.86577   0.18306   0.51180   0.00000  Uiso   1.00
C624   C     0.90001   0.16437   0.97580   0.00000  Uiso   1.00
C625   C     0.88366   0.17279   0.92069   0.00000  Uiso   1.00
C626   C     0.83226   0.19543   0.90119   0.00000  Uiso   1.00
C627   C     0.88813   0.18157   0.56753   0.00000  Uiso   1.00
C628   C     0.97333   0.13964   0.55179   0.00000  Uiso   1.00
H629   H     0.68117   0.12278   0.56722   0.00000  Uiso   1.00
H630   H     0.71512   0.00066   0.71984   0.00000  Uiso   1.00
H631   H     0.87588   0.29869   0.80056   0.00000  Uiso   1.00
H632   H     0.87838   0.01860   0.75842   0.00000  Uiso   1.00
H633   H     0.90514   0.02305   0.88569   0.00000  Uiso   1.00
H634   H     0.90947   0.07897   0.84584   0.00000  Uiso   1.00
H635   H     0.80320   0.06284   0.80131   0.00000  Uiso   1.00
H636   H     0.81488   0.07068   0.87484   0.00000  Uiso   1.00
H637   H     0.79840   0.00617   0.84092   0.00000  Uiso   1.00
H638   H     0.78915   0.09207   0.68976   0.00000  Uiso   1.00
H639   H     0.84274   0.21379   0.78260   0.00000  Uiso   1.00
H640   H     0.91121   0.16345   0.89306   0.00000  Uiso   1.00
H641   H     0.97719   0.12524   0.96819   0.00000  Uiso   1.00
H642   H     0.86488   0.19701   0.59639   0.00000  Uiso   1.00
H643   H     0.98367   0.23114   0.92294   0.00000  Uiso   1.00
H644   H     0.78455   0.22619   0.56640   0.00000  Uiso   1.00
H645   H     0.68840   0.24999   0.52192   0.00000  Uiso   1.00
H646   H     0.82533   0.20979   0.86116   0.00000  Uiso   1.00
N647   N     0.81160   0.15223   0.73543   0.00000  Uiso   1.00
N648   N     0.85507   0.18110   0.76458   0.00000  Uiso   1.00
O649   O     0.96435   0.24629   0.75358   0.00000  Uiso   1.00
O650   O     0.82670   0.11193   0.70713   0.00000  Uiso   1.00
O651   O     0.72408   0.23704   0.74424   0.00000  Uiso   1.00
O652   O     0.98157   0.17358   0.83380   0.00000  Uiso   1.00
O653   O     0.74130   0.16433   0.82446   0.00000  Uiso   1.00
O654   O     0.94258   0.09629   0.75577   0.00000  Uiso   1.00
O655   O     0.70231   0.08704   0.74643   0.00000  Uiso   1.00
O656   O     0.92537   0.16901   0.67554   0.00000  Uiso   1.00
O657   O     0.68510   0.15976   0.66620   0.00000  Uiso   1.00
O658   O     0.95908   0.33106   0.80811   0.00000  Uiso   1.00
Zn659  Zn    0.93786   0.17284   0.75624   0.00000  Uiso   1.00
Zn660  Zn    0.72881   0.16049   0.74377   0.00000  Uiso   1.00
C661   C     0.01489   0.59822   0.74955   0.00000  Uiso   1.00
C662   C     0.06354   0.53450   0.90954   0.00000  Uiso   1.00
C663   C     0.02007   0.65253   0.74545   0.00000  Uiso   1.00
C664   C     0.03830   0.51246   0.85311   0.00000  Uiso   1.00
C665   C     0.31664   0.34832   0.76546   0.00000  Uiso   1.00
C666   C     0.31974   0.40205   0.75452   0.00000  Uiso   1.00
C667   C     0.29643   0.49587   0.64581   0.00000  Uiso   1.00
C668   C     0.28535   0.47414   0.99577   0.00000  Uiso   1.00
C669   C     0.27513   0.49445   0.58737   0.00000  Uiso   1.00
C670   C     0.02803   0.55624   0.94129   0.00000  Uiso   1.00
C671   C     0.04964   0.56719   0.99734   0.00000  Uiso   1.00
C672   C     0.14325   0.53464   0.99027   0.00000  Uiso   1.00
C673   C     0.10552   0.55370   0.52241   0.00000  Uiso   1.00
C674   C     0.23174   0.33758   0.79916   0.00000  Uiso   1.00
C675   C     0.22032   0.37302   0.84582   0.00000  Uiso   1.00
C676   C     0.15504   0.37839   0.84026   0.00000  Uiso   1.00
C677   C     0.12386   0.53288   0.93306   0.00000  Uiso   1.00
C678   C     0.19910   0.51639   0.51180   0.00000  Uiso   1.00
C679   C     0.23334   0.49771   0.97580   0.00000  Uiso   1.00
C680   C     0.21699   0.50612   0.92069   0.00000  Uiso   1.00
C681   C     0.16560   0.52876   0.90119   0.00000  Uiso   1.00
C682   C     0.22146   0.51490   0.56753   0.00000  Uiso   1.00
C683   C     0.30666   0.47297   0.55179   0.00000  Uiso   1.00
H684   H     0.01451   0.45611   0.56722   0.00000  Uiso   1.00
H685   H     0.04846   0.33399   0.71984   0.00000  Uiso   1.00
H686   H     0.20921   0.63202   0.80056   0.00000  Uiso   1.00
H687   H     0.21171   0.35194   0.75842   0.00000  Uiso   1.00
H688   H     0.23847   0.35638   0.88569   0.00000  Uiso   1.00
H689   H     0.24280   0.41230   0.84584   0.00000  Uiso   1.00
H690   H     0.13654   0.39617   0.80131   0.00000  Uiso   1.00
H691   H     0.14821   0.40401   0.87484   0.00000  Uiso   1.00
H692   H     0.13173   0.33951   0.84092   0.00000  Uiso   1.00
H693   H     0.12248   0.42540   0.68976   0.00000  Uiso   1.00
H694   H     0.17607   0.54713   0.78260   0.00000  Uiso   1.00
H695   H     0.24454   0.49678   0.89306   0.00000  Uiso   1.00
H696   H     0.31052   0.45857   0.96819   0.00000  Uiso   1.00
H697   H     0.19821   0.53034   0.59639   0.00000  Uiso   1.00
H698   H     0.31700   0.56447   0.92294   0.00000  Uiso   1.00
H699   H     0.11788   0.55952   0.56640   0.00000  Uiso   1.00
H700   H     0.02174   0.58333   0.52192   0.00000  Uiso   1.00
H701   H     0.15866   0.54313   0.86116   0.00000  Uiso   1.00
N702   N     0.14493   0.48556   0.73543   0.00000  Uiso   1.00
N703   N     0.18840   0.51444   0.76458   0.00000  Uiso   1.00
O704   O     0.29769   0.57963   0.75358   0.00000  Uiso   1.00
O705   O     0.16003   0.44526   0.70713   0.00000  Uiso   1.00
O706   O     0.05742   0.57038   0.74424   0.00000  Uiso   1.00
O707   O     0.31490   0.50691   0.83380   0.00000  Uiso   1.00
O708   O     0.07463   0.49766   0.82446   0.00000  Uiso   1.00
O709   O     0.27592   0.42962   0.75577   0.00000  Uiso   1.00
O710   O     0.03565   0.42037   0.74643   0.00000  Uiso   1.00
O711   O     0.25870   0.50234   0.67554   0.00000  Uiso   1.00
O712   O     0.01843   0.49309   0.66620   0.00000  Uiso   1.00
O713   O     0.29241   0.66439   0.80811   0.00000  Uiso   1.00
Zn714  Zn    0.27119   0.50618   0.75624   0.00000  Uiso   1.00
Zn715  Zn    0.06214   0.49382   0.74377   0.00000  Uiso   1.00
C716   C     0.34822   0.59822   0.74955   0.00000  Uiso   1.00
C717   C     0.39687   0.53450   0.90954   0.00000  Uiso   1.00
C718   C     0.35340   0.65253   0.74545   0.00000  Uiso   1.00
C719   C     0.37163   0.51246   0.85311   0.00000  Uiso   1.00
C720   C     0.64998   0.34832   0.76546   0.00000  Uiso   1.00
C721   C     0.65307   0.40205   0.75452   0.00000  Uiso   1.00
C722   C     0.62977   0.49587   0.64581   0.00000  Uiso   1.00
C723   C     0.61868   0.47414   0.99577   0.00000  Uiso   1.00
C724   C     0.60847   0.49445   0.58737   0.00000  Uiso   1.00
C725   C     0.36136   0.55624   0.94129   0.00000  Uiso   1.00
C726   C     0.38297   0.56719   0.99734   0.00000  Uiso   1.00
C727   C     0.47658   0.53464   0.99027   0.00000  Uiso   1.00
C728   C     0.43886   0.55370   0.52241   0.00000  Uiso   1.00
C729   C     0.56507   0.33758   0.79916   0.00000  Uiso   1.00
C730   C     0.55366   0.37302   0.84582   0.00000  Uiso   1.00
C731   C     0.48838   0.37839   0.84026   0.00000  Uiso   1.00
C732   C     0.45720   0.53288   0.93306   0.00000  Uiso   1.00
C733   C     0.53244   0.51639   0.51180   0.00000  Uiso   1.00
C734   C     0.56667   0.49771   0.97580   0.00000  Uiso   1.00
C735   C     0.55033   0.50612   0.92069   0.00000  Uiso   1.00
C736   C     0.49893   0.52876   0.90119   0.00000  Uiso   1.00
C737   C     0.55480   0.51490   0.56753   0.00000  Uiso   1.00
C738   C     0.64000   0.47297   0.55179   0.00000  Uiso   1.00
H739   H     0.34784   0.45611   0.56722   0.00000  Uiso   1.00
H740   H     0.38179   0.33399   0.71984   0.00000  Uiso   1.00
H741   H     0.54254   0.63202   0.80056   0.00000  Uiso   1.00
H742   H     0.54504   0.35194   0.75842   0.00000  Uiso   1.00
H743   H     0.57180   0.35638   0.88569   0.00000  Uiso   1.00
H744   H     0.57613   0.41230   0.84584   0.00000  Uiso   1.00
H745   H     0.46987   0.39617   0.80131   0.00000  Uiso   1.00
H746   H     0.48155   0.40401   0.87484   0.00000  Uiso   1.00
H747   H     0.46506   0.33951   0.84092   0.00000  Uiso   1.00
H748   H     0.45582   0.42540   0.68976   0.00000  Uiso   1.00
H749   H     0.50940   0.54713   0.78260   0.00000  Uiso   1.00
H750   H     0.57787   0.49678   0.89306   0.00000  Uiso   1.00
H751   H     0.64385   0.45857   0.96819   0.00000  Uiso   1.00
H752   H     0.53154   0.53034   0.59639   0.00000  Uiso   1.00
H753   H     0.65034   0.56447   0.92294   0.00000  Uiso   1.00
H754   H     0.45121   0.55952   0.56640   0.00000  Uiso   1.00
H755   H     0.35507   0.58333   0.52192   0.00000  Uiso   1.00
H756   H     0.49200   0.54313   0.86116   0.00000  Uiso   1.00
N757   N     0.47827   0.48556   0.73543   0.00000  Uiso   1.00
N758   N     0.52173   0.51444   0.76458   0.00000  Uiso   1.00
O759   O     0.63102   0.57963   0.75358   0.00000  Uiso   1.00
O760   O     0.49336   0.44526   0.70713   0.00000  Uiso   1.00
O761   O     0.39075   0.57038   0.74424   0.00000  Uiso   1.00
O762   O     0.64823   0.50691   0.83380   0.00000  Uiso   1.00
O763   O     0.40796   0.49766   0.82446   0.00000  Uiso   1.00
O764   O     0.60925   0.42962   0.75577   0.00000  Uiso   1.00
O765   O     0.36898   0.42037   0.74643   0.00000  Uiso   1.00
O766   O     0.59204   0.50234   0.67554   0.00000  Uiso   1.00
O767   O     0.35177   0.49309   0.66620   0.00000  Uiso   1.00
O768   O     0.62574   0.66439   0.80811   0.00000  Uiso   1.00
Zn769  Zn    0.60453   0.50618   0.75624   0.00000  Uiso   1.00
Zn770  Zn    0.39547   0.49382   0.74377   0.00000  Uiso   1.00
C771   C     0.68156   0.59822   0.74955   0.00000  Uiso   1.00
C772   C     0.73021   0.53450   0.90954   0.00000  Uiso   1.00
C773   C     0.68673   0.65253   0.74545   0.00000  Uiso   1.00
C774   C     0.70497   0.51246   0.85311   0.00000  Uiso   1.00
C775   C     0.98331   0.34832   0.76546   0.00000  Uiso   1.00
C776   C     0.98640   0.40205   0.75452   0.00000  Uiso   1.00
C777   C     0.96310   0.49587   0.64581   0.00000  Uiso   1.00
C778   C     0.95201   0.47414   0.99577   0.00000  Uiso   1.00
C779   C     0.94180   0.49445   0.58737   0.00000  Uiso   1.00
C780   C     0.69469   0.55624   0.94129   0.00000  Uiso   1.00
C781   C     0.71631   0.56719   0.99734   0.00000  Uiso   1.00
C782   C     0.80992   0.53464   0.99027   0.00000  Uiso   1.00
C783   C     0.77219   0.55370   0.52241   0.00000  Uiso   1.00
C784   C     0.89841   0.33758   0.79916   0.00000  Uiso   1.00
C785   C     0.88699   0.37302   0.84582   0.00000  Uiso   1.00
C786   C     0.82171   0.37839   0.84026   0.00000  Uiso   1.00
C787   C     0.79053   0.53288   0.93306   0.00000  Uiso   1.00
C788   C     0.86577   0.51639   0.51180   0.00000  Uiso   1.00
C789   C     0.90001   0.49771   0.97580   0.00000  Uiso   1.00
C790   C     0.88366   0.50612   0.92069   0.00000  Uiso   1.00
C791   C     0.83226   0.52876   0.90119   0.00000  Uiso   1.00
C792   C     0.88813   0.51490   0.56753   0.00000  Uiso   1.00
C793   C     0.97333   0.47297   0.55179   0.00000  Uiso   1.00
H794   H     0.68117   0.45611   0.56722   0.00000  Uiso   1.00
H795   H     0.71512   0.33399   0.71984   0.00000  Uiso   1.00
H796   H     0.87588   0.63202   0.80056   0.00000  Uiso   1.00
H797   H     0.87838   0.35194   0.75842   0.00000  Uiso   1.00
H798   H     0.90514   0.35638   0.88569   0.00000  Uiso   1.00
H799   H     0.90947   0.41230   0.84584   0.00000  Uiso   1.00
H800   H     0.80320   0.39617   0.80131   0.00000  Uiso   1.00
H801   H     0.81488   0.40401   0.87484   0.00000  Uiso   1.00
H802   H     0.79840   0.33951   0.84092   0.00000  Uiso   1.00
H803   H     0.78915   0.42540   0.68976   0.00000  Uiso   1.00
H804   H     0.84274   0.54713   0.78260   0.00000  Uiso   1.00
H805   H     0.91121   0.49678   0.89306   0.00000  Uiso   1.00
H806   H     0.97719   0.45857   0.96819   0.00000  Uiso   1.00
H807   H     0.86488   0.53034   0.59639   0.00000  Uiso   1.00
H808   H     0.98367   0.56447   0.92294   0.00000  Uiso   1.00
H809   H     0.78455   0.55952   0.56640   0.00000  Uiso   1.00
H810   H     0.68840   0.58333   0.52192   0.00000  Uiso   1.00
H811   H     0.82533   0.54313   0.86116   0.00000  Uiso   1.00
N812   N     0.81160   0.48556   0.73543   0.00000  Uiso   1.00
N813   N     0.85507   0.51444   0.76458   0.00000  Uiso   1.00
O814   O     0.96435   0.57963   0.75358   0.00000  Uiso   1.00
O815   O     0.82670   0.44526   0.70713   0.00000  Uiso   1.00
O816   O     0.72408   0.57038   0.74424   0.00000  Uiso   1.00
O817   O     0.98157   0.50691   0.83380   0.00000  Uiso   1.00
O818   O     0.74130   0.49766   0.82446   0.00000  Uiso   1.00
O819   O     0.94258   0.42962   0.75577   0.00000  Uiso   1.00
O820   O     0.70231   0.42037   0.74643   0.00000  Uiso   1.00
O821   O     0.92537   0.50234   0.67554   0.00000  Uiso   1.00
O822   O     0.68510   0.49309   0.66620   0.00000  Uiso   1.00
O823   O     0.95908   0.66439   0.80811   0.00000  Uiso   1.00
Zn824  Zn    0.93786   0.50618   0.75624   0.00000  Uiso   1.00
Zn825  Zn    0.72881   0.49382   0.74377   0.00000  Uiso   1.00
C826   C     0.01489   0.93155   0.74955   0.00000  Uiso   1.00
C827   C     0.06354   0.86783   0.90954   0.00000  Uiso   1.00
C828   C     0.02007   0.98587   0.74545   0.00000  Uiso   1.00
C829   C     0.03830   0.84579   0.85311   0.00000  Uiso   1.00
C830   C     0.31664   0.68165   0.76546   0.00000  Uiso   1.00
C831   C     0.31974   0.73538   0.75452   0.00000  Uiso   1.00
C832   C     0.29643   0.82920   0.64581   0.00000  Uiso   1.00
C833   C     0.28535   0.80748   0.99577   0.00000  Uiso   1.00
C834   C     0.27513   0.82778   0.58737   0.00000  Uiso   1.00
C835   C     0.02803   0.88957   0.94129   0.00000  Uiso   1.00
C836   C     0.04964   0.90052   0.99734   0.00000  Uiso   1.00
C837   C     0.14325   0.86798   0.99027   0.00000  Uiso   1.00
C838   C     0.10552   0.88703   0.52241   0.00000  Uiso   1.00
C839   C     0.23174   0.67091   0.79916   0.00000  Uiso   1.00
C840   C     0.22032   0.70635   0.84582   0.00000  Uiso   1.00
C841   C     0.15504   0.71173   0.84026   0.00000  Uiso   1.00
C842   C     0.12386   0.86621   0.93306   0.00000  Uiso   1.00
C843   C     0.19910   0.84972   0.51180   0.00000  Uiso   1.00
C844   C     0.23334   0.83104   0.97580   0.00000  Uiso   1.00
C845   C     0.21699   0.83945   0.92069   0.00000  Uiso   1.00
C846   C     0.16560   0.86209   0.90119   0.00000  Uiso   1.00
C847   C     0.22146   0.84823   0.56753   0.00000  Uiso   1.00
C848   C     0.30666   0.80630   0.55179   0.00000  Uiso   1.00
H849   H     0.01451   0.78945   0.56722   0.00000  Uiso   1.00
H850   H     0.04846   0.66732   0.71984   0.00000  Uiso   1.00
H851   H     0.20921   0.96536   0.80056   0.00000  Uiso   1.00
H852   H     0.21171   0.68527   0.75842   0.00000  Uiso   1.00
H853   H     0.23847   0.68972   0.88569   0.00000  Uiso   1.00
H854   H     0.24280   0.74564   0.84584   0.00000  Uiso   1.00
H855   H     0.13654   0.72950   0.80131   0.00000  Uiso   1.00
H856   H     0.14821   0.73734   0.87484   0.00000  Uiso   1.00
H857   H     0.13173   0.67284   0.84092   0.00000  Uiso   1.00
H858   H     0.12248   0.75873   0.68976   0.00000  Uiso   1.00
H859   H     0.17607   0.88046   0.78260   0.00000  Uiso   1.00
H860   H     0.24454   0.83011   0.89306   0.00000  Uiso   1.00
H861   H     0.31052   0.79190   0.96819   0.00000  Uiso   1.00
H862   H     0.19821   0.86367   0.59639   0.00000  Uiso   1.00
H863   H     0.31700   0.89780   0.92294   0.00000  Uiso   1.00
H864   H     0.11788   0.89286   0.56640   0.00000  Uiso   1.00
H865   H     0.02174   0.91666   0.52192   0.00000  Uiso   1.00
H866   H     0.15866   0.87646   0.86116   0.00000  Uiso   1.00
N867   N     0.14493   0.81890   0.73543   0.00000  Uiso   1.00
N868   N     0.18840   0.84777   0.76458   0.00000  Uiso   1.00
O869   O     0.29769   0.91296   0.75358   0.00000  Uiso   1.00
O870   O     0.16003   0.77860   0.70713   0.00000  Uiso   1.00
O871   O     0.05742   0.90371   0.74424   0.00000  Uiso   1.00
O872   O     0.31490   0.84024   0.83380   0.00000  Uiso   1.00
O873   O     0.07463   0.83099   0.82446   0.00000  Uiso   1.00
O874   O     0.27592   0.76296   0.75577   0.00000  Uiso   1.00
O875   O     0.03565   0.75371   0.74643   0.00000  Uiso   1.00
O876   O     0.25870   0.83567   0.67554   0.00000  Uiso   1.00
O877   O     0.01843   0.82642   0.66620   0.00000  Uiso   1.00
O878   O     0.29241   0.99772   0.80811   0.00000  Uiso   1.00
Zn879  Zn    0.27119   0.83951   0.75624   0.00000  Uiso   1.00
Zn880  Zn    0.06214   0.82716   0.74377   0.00000  Uiso   1.00
C881   C     0.34822   0.93155   0.74955   0.00000  Uiso   1.00
C882   C     0.39687   0.86783   0.90954   0.00000  Uiso   1.00
C883   C     0.35340   0.98587   0.74545   0.00000  Uiso   1.00
C884   C     0.37163   0.84579   0.85311   0.00000  Uiso   1.00
C885   C     0.64998   0.68165   0.76546   0.00000  Uiso   1.00
C886   C     0.65307   0.73538   0.75452   0.00000  Uiso   1.00
C887   C     0.62977   0.82920   0.64581   0.00000  Uiso   1.00
C888   C     0.61868   0.80748   0.99577   0.00000  Uiso   1.00
C889   C     0.60847   0.82778   0.58737   0.00000  Uiso   1.00
C890   C     0.36136   0.88957   0.94129   0.00000  Uiso   1.00
C891   C     0.38297   0.90052   0.99734   0.00000  Uiso   1.00
C892   C     0.47658   0.86798   0.99027   0.00000  Uiso   1.00
C893   C     0.43886   0.88703   0.52241   0.00000  Uiso   1.00
C894   C     0.56507   0.67091   0.79916   0.00000  Uiso   1.00
C895   C     0.55366   0.70635   0.84582   0.00000  Uiso   1.00
C896   C     0.48838   0.71173   0.84026   0.00000  Uiso   1.00
C897   C     0.45720   0.86621   0.93306   0.00000  Uiso   1.00
C898   C     0.53244   0.84972   0.51180   0.00000  Uiso   1.00
C899   C     0.56667   0.83104   0.97580   0.00000  Uiso   1.00
C900   C     0.55033   0.83945   0.92069   0.00000  Uiso   1.00
C901   C     0.49893   0.86209   0.90119   0.00000  Uiso   1.00
C902   C     0.55480   0.84823   0.56753   0.00000  Uiso   1.00
C903   C     0.64000   0.80630   0.55179   0.00000  Uiso   1.00
H904   H     0.34784   0.78945   0.56722   0.00000  Uiso   1.00
H905   H     0.38179   0.66732   0.71984   0.00000  Uiso   1.00
H906   H     0.54254   0.96536   0.80056   0.00000  Uiso   1.00
H907   H     0.54504   0.68527   0.75842   0.00000  Uiso   1.00
H908   H     0.57180   0.68972   0.88569   0.00000  Uiso   1.00
H909   H     0.57613   0.74564   0.84584   0.00000  Uiso   1.00
H910   H     0.46987   0.72950   0.80131   0.00000  Uiso   1.00
H911   H     0.48155   0.73734   0.87484   0.00000  Uiso   1.00
H912   H     0.46506   0.67284   0.84092   0.00000  Uiso   1.00
H913   H     0.45582   0.75873   0.68976   0.00000  Uiso   1.00
H914   H     0.50940   0.88046   0.78260   0.00000  Uiso   1.00
H915   H     0.57787   0.83011   0.89306   0.00000  Uiso   1.00
H916   H     0.64385   0.79190   0.96819   0.00000  Uiso   1.00
H917   H     0.53154   0.86367   0.59639   0.00000  Uiso   1.00
H918   H     0.65034   0.89780   0.92294   0.00000  Uiso   1.00
H919   H     0.45121   0.89286   0.56640   0.00000  Uiso   1.00
H920   H     0.35507   0.91666   0.52192   0.00000  Uiso   1.00
H921   H     0.49200   0.87646   0.86116   0.00000  Uiso   1.00
N922   N     0.47827   0.81890   0.73543   0.00000  Uiso   1.00
N923   N     0.52173   0.84777   0.76458   0.00000  Uiso   1.00
O924   O     0.63102   0.91296   0.75358   0.00000  Uiso   1.00
O925   O     0.49336   0.77860   0.70713   0.00000  Uiso   1.00
O926   O     0.39075   0.90371   0.74424   0.00000  Uiso   1.00
O927   O     0.64823   0.84024   0.83380   0.00000  Uiso   1.00
O928   O     0.40796   0.83099   0.82446   0.00000  Uiso   1.00
O929   O     0.60925   0.76296   0.75577   0.00000  Uiso   1.00
O930   O     0.36898   0.75371   0.74643   0.00000  Uiso   1.00
O931   O     0.59204   0.83567   0.67554   0.00000  Uiso   1.00
O932   O     0.35177   0.82642   0.66620   0.00000  Uiso   1.00
O933   O     0.62574   0.99772   0.80811   0.00000  Uiso   1.00
Zn934  Zn    0.60453   0.83951   0.75624   0.00000  Uiso   1.00
Zn935  Zn    0.39547   0.82716   0.74377   0.00000  Uiso   1.00
C936   C     0.68156   0.93155   0.74955   0.00000  Uiso   1.00
C937   C     0.73021   0.86783   0.90954   0.00000  Uiso   1.00
C938   C     0.68673   0.98587   0.74545   0.00000  Uiso   1.00
C939   C     0.70497   0.84579   0.85311   0.00000  Uiso   1.00
C940   C     0.98331   0.68165   0.76546   0.00000  Uiso   1.00
C941   C     0.98640   0.73538   0.75452   0.00000  Uiso   1.00
C942   C     0.96310   0.82920   0.64581   0.00000  Uiso   1.00
C943   C     0.95201   0.80748   0.99577   0.00000  Uiso   1.00
C944   C     0.94180   0.82778   0.58737   0.00000  Uiso   1.00
C945   C     0.69469   0.88957   0.94129   0.00000  Uiso   1.00
C946   C     0.71631   0.90052   0.99734   0.00000  Uiso   1.00
C947   C     0.80992   0.86798   0.99027   0.00000  Uiso   1.00
C948   C     0.77219   0.88703   0.52241   0.00000  Uiso   1.00
C949   C     0.89841   0.67091   0.79916   0.00000  Uiso   1.00
C950   C     0.88699   0.70635   0.84582   0.00000  Uiso   1.00
C951   C     0.82171   0.71173   0.84026   0.00000  Uiso   1.00
C952   C     0.79053   0.86621   0.93306   0.00000  Uiso   1.00
C953   C     0.86577   0.84972   0.51180   0.00000  Uiso   1.00
C954   C     0.90001   0.83104   0.97580   0.00000  Uiso   1.00
C955   C     0.88366   0.83945   0.92069   0.00000  Uiso   1.00
C956   C     0.83226   0.86209   0.90119   0.00000  Uiso   1.00
C957   C     0.88813   0.84823   0.56753   0.00000  Uiso   1.00
C958   C     0.97333   0.80630   0.55179   0.00000  Uiso   1.00
H959   H     0.68117   0.78945   0.56722   0.00000  Uiso   1.00
H960   H     0.71512   0.66732   0.71984   0.00000  Uiso   1.00
H961   H     0.87588   0.96536   0.80056   0.00000  Uiso   1.00
H962   H     0.87838   0.68527   0.75842   0.00000  Uiso   1.00
H963   H     0.90514   0.68972   0.88569   0.00000  Uiso   1.00
H964   H     0.90947   0.74564   0.84584   0.00000  Uiso   1.00
H965   H     0.80320   0.72950   0.80131   0.00000  Uiso   1.00
H966   H     0.81488   0.73734   0.87484   0.00000  Uiso   1.00
H967   H     0.79840   0.67284   0.84092   0.00000  Uiso   1.00
H968   H     0.78915   0.75873   0.68976   0.00000  Uiso   1.00
H969   H     0.84274   0.88046   0.78260   0.00000  Uiso   1.00
H970   H     0.91121   0.83011   0.89306   0.00000  Uiso   1.00
H971   H     0.97719   0.79190   0.96819   0.00000  Uiso   1.00
H972   H     0.86488   0.86367   0.59639   0.00000  Uiso   1.00
H973   H     0.98367   0.89780   0.92294   0.00000  Uiso   1.00
H974   H     0.78455   0.89286   0.56640   0.00000  Uiso   1.00
H975   H     0.68840   0.91666   0.52192   0.00000  Uiso   1.00
H976   H     0.82533   0.87646   0.86116   0.00000  Uiso   1.00
N977   N     0.81160   0.81890   0.73543   0.00000  Uiso   1.00
N978   N     0.85507   0.84777   0.76458   0.00000  Uiso   1.00
O979   O     0.96435   0.91296   0.75358   0.00000  Uiso   1.00
O980   O     0.82670   0.77860   0.70713   0.00000  Uiso   1.00
O981   O     0.72408   0.90371   0.74424   0.00000  Uiso   1.00
O982   O     0.98157   0.84024   0.83380   0.00000  Uiso   1.00
O983   O     0.74130   0.83099   0.82446   0.00000  Uiso   1.00
O984   O     0.94258   0.76296   0.75577   0.00000  Uiso   1.00
O985   O     0.70231   0.75371   0.74643   0.00000  Uiso   1.00
O986   O     0.92537   0.83567   0.67554   0.00000  Uiso   1.00
O987   O     0.68510   0.82642   0.66620   0.00000  Uiso   1.00
O988   O     0.95908   0.99772   0.80811   0.00000  Uiso   1.00
Zn989  Zn    0.93786   0.83951   0.75624   0.00000  Uiso   1.00
Zn990  Zn    0.72881   0.82716   0.74377   0.00000  Uiso   1.00
loop_
_geom_bond_atom_site_label_1
_geom_bond_atom_site_label_2
_geom_bond_distance
_geom_bond_site_symmetry_2
_ccdc_geom_bond_type
C1     O46     1.291   .     A
C1     C3      1.403   .     S
C1     O154    1.279   1_455 S
C2     C4      1.478   .     S
C2     C17     1.412   .     A
C2     C10     1.399   .     A
C3     C280    1.340   1_455 S
C3     H190    1.088   .     S
C4     O48     1.296   .     A
C4     O157    1.309   1_455 S
C5     C6      1.420   .     S
C5     C388    1.340   1_545 S
C5     O383    1.396   1_545 S
C6     O49     1.291   .     A
C6     O105    1.284   .     S
C7     O51     1.293   .     A
C7     C9      1.437   .     S
C7     O107    1.294   .     S
C8     H36     1.084   .     S
C8     C19     1.399   .     A
C8     C518    1.385   .     S
C9     C22     1.393   .     A
C9     C23     1.397   .     A
C10    C11     1.393   .     A
C10    H148    1.079   1_455 S
C11    C508    1.396   .     S
C11    H535    1.083   .     S
C12    C17     1.403   .     A
C12    C508    1.418   .     S
C12    C513    1.420   .     S
C13    H39     1.077   .     S
C13    C507    1.418   1_554 S
C13    C506    1.396   1_554 S
C14    H27     1.115   .     S
C14    C15     1.530   .     S
C14    H356    1.107   1_545 S
C14    O383    1.415   1_545 S
C15    H28     1.112   .     S
C15    C16     1.525   .     S
C15    H29     1.109   .     S
C16    H32     1.111   .     S
C16    H30     1.108   .     S
C16    H31     1.110   .     S
C17    C21     1.403   .     A
C18    C22     1.382   .     A
C18    C507    1.420   1_554 S
C18    C514    1.423   1_554 S
C19    C20     1.380   .     A
C19    C513    1.423   .     S
C20    C21     1.373   .     A
C20    H35     1.078   .     S
C21    H41     1.067   .     S
C22    H37     1.076   .     S
C23    C503    1.385   1_554 S
C23    H79     1.083   .     S
H24    C133    1.083   1_455 S
H25    C333    1.088   1_545 S
H26    C179    1.107   .     S
H33    O45     0.990   .     S
H34    N43     1.023   .     S
H38    C65     1.079   .     S
H40    C506    1.083   1_554 S
N42    Zn55    2.026   .     S
N42    N43     1.284   .     D
N42    O45     1.338   .     S
N43    Zn54    2.026   .     S
O44    Zn54    1.958   .     S
O44    C56     1.279   .     S
O46    Zn55    1.975   .     S
O47    Zn54    1.985   .     S
O47    C59     1.309   .     S
O48    Zn55    1.976   .     S
O49    Zn54    1.975   .     S
O50    Zn55    1.958   .     S
O50    C116    1.284   1_455 S
O51    Zn54    1.976   .     S
O52    Zn55    1.985   .     S
O52    C117    1.294   1_455 S
O53    C179    1.415   .     S
O53    C170    1.396   .     S
C56    O101    1.291   .     A
C56    C58     1.403   .     S
C57    C59     1.478   .     S
C57    C72     1.412   .     A
C57    C65     1.399   .     A
C58    C170    1.340   .     S
C58    H245    1.088   .     S
C59    O103    1.296   .     A
C60    C61     1.420   .     S
C60    C443    1.340   1_545 S
C60    O438    1.396   1_545 S
C61    O104    1.291   .     A
C61    O160    1.284   .     S
C62    O106    1.293   .     A
C62    C64     1.437   .     S
C62    O162    1.294   .     S
C63    H91     1.084   .     S
C63    C74     1.399   .     A
C63    C573    1.385   .     S
C64    C77     1.393   .     A
C64    C78     1.397   .     A
C65    C66     1.393   .     A
C66    C563    1.396   .     S
C66    H590    1.083   .     S
C67    C72     1.403   .     A
C67    C563    1.418   .     S
C67    C568    1.420   .     S
C68    H94     1.077   .     S
C68    C562    1.418   1_554 S
C68    C561    1.396   1_554 S
C69    H82     1.115   .     S
C69    C70     1.530   .     S
C69    H411    1.107   1_545 S
C69    O438    1.415   1_545 S
C70    H83     1.112   .     S
C70    C71     1.525   .     S
C70    H84     1.109   .     S
C71    H87     1.111   .     S
C71    H85     1.108   .     S
C71    H86     1.110   .     S
C72    C76     1.403   .     A
C73    C77     1.382   .     A
C73    C562    1.420   1_554 S
C73    C569    1.423   1_554 S
C74    C75     1.380   .     A
C74    C568    1.423   .     S
C75    C76     1.373   .     A
C75    H90     1.078   .     S
C76    H96     1.067   .     S
C77    H92     1.076   .     S
C78    C558    1.385   1_554 S
C78    H134    1.083   .     S
H80    C388    1.088   1_545 S
H81    C234    1.107   .     S
H88    O100    0.990   .     S
H89    N98     1.023   .     S
H93    C120    1.079   .     S
H95    C561    1.083   1_554 S
N97    Zn110   2.026   .     S
N97    N98     1.284   .     D
N97    O100    1.338   .     S
N98    Zn109   2.026   .     S
O99    Zn109   1.958   .     S
O99    C111    1.279   .     S
O101   Zn110   1.975   .     S
O102   Zn109   1.985   .     S
O102   C114    1.309   .     S
O103   Zn110   1.976   .     S
O104   Zn109   1.975   .     S
O105   Zn110   1.958   .     S
O106   Zn109   1.976   .     S
O107   Zn110   1.985   .     S
O108   C234    1.415   .     S
O108   C225    1.396   .     S
C111   O156    1.291   .     A
C111   C113    1.403   .     S
C112   C114    1.478   .     S
C112   C127    1.412   .     A
C112   C120    1.399   .     A
C113   C225    1.340   .     S
C113   H300    1.088   .     S
C114   O158    1.296   .     A
C115   C116    1.420   .     S
C115   C333    1.340   1_645 S
C115   O493    1.396   1_545 S
C116   O159    1.291   .     A
C116   O50     1.284   1_655 S
C117   O161    1.293   .     A
C117   C119    1.437   .     S
C117   O52     1.294   1_655 S
C118   H146    1.084   .     S
C118   C129    1.399   .     A
C118   C628    1.385   .     S
C119   C132    1.393   .     A
C119   C133    1.397   .     A
C120   C121    1.393   .     A
C121   C618    1.396   .     S
C121   H645    1.083   .     S
C122   C127    1.403   .     A
C122   C618    1.418   .     S
C122   C623    1.420   .     S
C123   H149    1.077   .     S
C123   C617    1.418   1_554 S
C123   C616    1.396   1_554 S
C124   H137    1.115   .     S
C124   C125    1.530   .     S
C124   H466    1.107   1_545 S
C124   O493    1.415   1_545 S
C125   H138    1.112   .     S
C125   C126    1.525   .     S
C125   H139    1.109   .     S
C126   H142    1.111   .     S
C126   H140    1.108   .     S
C126   H141    1.110   .     S
C127   C131    1.403   .     A
C128   C132    1.382   .     A
C128   C617    1.420   1_554 S
C128   C624    1.423   1_554 S
C129   C130    1.380   .     A
C129   C623    1.423   .     S
C130   C131    1.373   .     A
C130   H145    1.078   .     S
C131   H151    1.067   .     S
C132   H147    1.076   .     S
C133   C613    1.385   1_554 S
C133   H24     1.083   1_655 S
H135   C443    1.088   1_545 S
H136   C289    1.107   .     S
H143   O155    0.990   .     S
H144   N153    1.023   .     S
H148   C10     1.079   1_655 S
H150   C616    1.083   1_554 S
N152   Zn165   2.026   .     S
N152   N153    1.284   .     D
N152   O155    1.338   .     S
N153   Zn164   2.026   .     S
O154   Zn164   1.958   .     S
O154   C1      1.279   1_655 S
O156   Zn165   1.975   .     S
O157   Zn164   1.985   .     S
O157   C4      1.309   1_655 S
O158   Zn165   1.976   .     S
O159   Zn164   1.975   .     S
O160   Zn165   1.958   .     S
O161   Zn164   1.976   .     S
O162   Zn165   1.985   .     S
O163   C289    1.415   .     S
O163   C280    1.396   .     S
C166   O211    1.291   .     A
C166   C168    1.403   .     S
C166   O319    1.279   1_455 S
C167   C169    1.478   .     S
C167   C182    1.412   .     A
C167   C175    1.399   .     A
C168   C445    1.340   1_455 S
C168   H355    1.088   .     S
C169   O213    1.296   .     A
C169   O322    1.309   1_455 S
C170   C171    1.420   .     S
C171   O214    1.291   .     A
C171   O270    1.284   .     S
C172   O216    1.293   .     A
C172   C174    1.437   .     S
C172   O272    1.294   .     S
C173   H201    1.084   .     S
C173   C184    1.399   .     A
C173   C683    1.385   .     S
C174   C187    1.393   .     A
C174   C188    1.397   .     A
C175   C176    1.393   .     A
C175   H313    1.079   1_455 S
C176   C673    1.396   .     S
C176   H700    1.083   .     S
C177   C182    1.403   .     A
C177   C673    1.418   .     S
C177   C678    1.420   .     S
C178   H204    1.077   .     S
C178   C672    1.418   1_554 S
C178   C671    1.396   1_554 S
C179   H192    1.115   .     S
C179   C180    1.530   .     S
C180   H193    1.112   .     S
C180   C181    1.525   .     S
C180   H194    1.109   .     S
C181   H197    1.111   .     S
C181   H195    1.108   .     S
C181   H196    1.110   .     S
C182   C186    1.403   .     A
C183   C187    1.382   .     A
C183   C672    1.420   1_554 S
C183   C679    1.423   1_554 S
C184   C185    1.380   .     A
C184   C678    1.423   .     S
C185   C186    1.373   .     A
C185   H200    1.078   .     S
C186   H206    1.067   .     S
C187   H202    1.076   .     S
C188   C668    1.385   1_554 S
C188   H244    1.083   .     S
H189   C298    1.083   1_455 S
H191   C344    1.107   .     S
H198   O210    0.990   .     S
H199   N208    1.023   .     S
H203   C230    1.079   .     S
H205   C671    1.083   1_554 S
N207   Zn220   2.026   .     S
N207   N208    1.284   .     D
N207   O210    1.338   .     S
N208   Zn219   2.026   .     S
O209   Zn219   1.958   .     S
O209   C221    1.279   .     S
O211   Zn220   1.975   .     S
O212   Zn219   1.985   .     S
O212   C224    1.309   .     S
O213   Zn220   1.976   .     S
O214   Zn219   1.975   .     S
O215   Zn220   1.958   .     S
O215   C281    1.284   1_455 S
O216   Zn219   1.976   .     S
O217   Zn220   1.985   .     S
O217   C282    1.294   1_455 S
O218   C344    1.415   .     S
O218   C335    1.396   .     S
C221   O266    1.291   .     A
C221   C223    1.403   .     S
C222   C224    1.478   .     S
C222   C237    1.412   .     A
C222   C230    1.399   .     A
C223   C335    1.340   .     S
C223   H410    1.088   .     S
C224   O268    1.296   .     A
C225   C226    1.420   .     S
C226   O269    1.291   .     A
C226   O325    1.284   .     S
C227   O271    1.293   .     A
C227   C229    1.437   .     S
C227   O327    1.294   .     S
C228   H256    1.084   .     S
C228   C239    1.399   .     A
C228   C738    1.385   .     S
C229   C242    1.393   .     A
C229   C243    1.397   .     A
C230   C231    1.393   .     A
C231   C728    1.396   .     S
C231   H755    1.083   .     S
C232   C237    1.403   .     A
C232   C728    1.418   .     S
C232   C733    1.420   .     S
C233   H259    1.077   .     S
C233   C727    1.418   1_554 S
C233   C726    1.396   1_554 S
C234   H247    1.115   .     S
C234   C235    1.530   .     S
C235   H248    1.112   .     S
C235   C236    1.525   .     S
C235   H249    1.109   .     S
C236   H252    1.111   .     S
C236   H250    1.108   .     S
C236   H251    1.110   .     S
C237   C241    1.403   .     A
C238   C242    1.382   .     A
C238   C727    1.420   1_554 S
C238   C734    1.423   1_554 S
C239   C240    1.380   .     A
C239   C733    1.423   .     S
C240   C241    1.373   .     A
C240   H255    1.078   .     S
C241   H261    1.067   .     S
C242   H257    1.076   .     S
C243   C723    1.385   1_554 S
C243   H299    1.083   .     S
H246   C399    1.107   .     S
H253   O265    0.990   .     S
H254   N263    1.023   .     S
H258   C285    1.079   .     S
H260   C726    1.083   1_554 S
N262   Zn275   2.026   .     S
N262   N263    1.284   .     D
N262   O265    1.338   .     S
N263   Zn274   2.026   .     S
O264   Zn274   1.958   .     S
O264   C276    1.279   .     S
O266   Zn275   1.975   .     S
O267   Zn274   1.985   .     S
O267   C279    1.309   .     S
O268   Zn275   1.976   .     S
O269   Zn274   1.975   .     S
O270   Zn275   1.958   .     S
O271   Zn274   1.976   .     S
O272   Zn275   1.985   .     S
O273   C399    1.415   .     S
O273   C390    1.396   .     S
C276   O321    1.291   .     A
C276   C278    1.403   .     S
C277   C279    1.478   .     S
C277   C292    1.412   .     A
C277   C285    1.399   .     A
C278   C390    1.340   .     S
C278   H465    1.088   .     S
C279   O323    1.296   .     A
C280   C281    1.420   .     S
C280   C3      1.340   1_655 S
C281   O324    1.291   .     A
C281   O215    1.284   1_655 S
C282   O326    1.293   .     A
C282   C284    1.437   .     S
C282   O217    1.294   1_655 S
C283   H311    1.084   .     S
C283   C294    1.399   .     A
C283   C793    1.385   .     S
C284   C297    1.393   .     A
C284   C298    1.397   .     A
C285   C286    1.393   .     A
C286   C783    1.396   .     S
C286   H810    1.083   .     S
C287   C292    1.403   .     A
C287   C783    1.418   .     S
C287   C788    1.420   .     S
C288   H314    1.077   .     S
C288   C782    1.418   1_554 S
C288   C781    1.396   1_554 S
C289   H302    1.115   .     S
C289   C290    1.530   .     S
C290   H303    1.112   .     S
C290   C291    1.525   .     S
C290   H304    1.109   .     S
C291   H307    1.111   .     S
C291   H305    1.108   .     S
C291   H306    1.110   .     S
C292   C296    1.403   .     A
C293   C297    1.382   .     A
C293   C782    1.420   1_554 S
C293   C789    1.423   1_554 S
C294   C295    1.380   .     A
C294   C788    1.423   .     S
C295   C296    1.373   .     A
C295   H310    1.078   .     S
C296   H316    1.067   .     S
C297   H312    1.076   .     S
C298   C778    1.385   1_554 S
C298   H189    1.083   1_655 S
H301   C454    1.107   .     S
H308   O320    0.990   .     S
H309   N318    1.023   .     S
H313   C175    1.079   1_655 S
H315   C781    1.083   1_554 S
N317   Zn330   2.026   .     S
N317   N318    1.284   .     D
N317   O320    1.338   .     S
N318   Zn329   2.026   .     S
O319   Zn329   1.958   .     S
O319   C166    1.279   1_655 S
O321   Zn330   1.975   .     S
O322   Zn329   1.985   .     S
O322   C169    1.309   1_655 S
O323   Zn330   1.976   .     S
O324   Zn329   1.975   .     S
O325   Zn330   1.958   .     S
O326   Zn329   1.976   .     S
O327   Zn330   1.985   .     S
O328   C454    1.415   .     S
O328   C445    1.396   .     S
C331   O376    1.291   .     A
C331   C333    1.403   .     S
C331   O484    1.279   1_455 S
C332   C334    1.478   .     S
C332   C347    1.412   .     A
C332   C340    1.399   .     A
C333   C115    1.340   1_465 S
C333   H25     1.088   1_565 S
C334   O378    1.296   .     A
C334   O487    1.309   1_455 S
C335   C336    1.420   .     S
C336   O379    1.291   .     A
C336   O435    1.284   .     S
C337   O381    1.293   .     A
C337   C339    1.437   .     S
C337   O437    1.294   .     S
C338   H366    1.084   .     S
C338   C349    1.399   .     A
C338   C848    1.385   .     S
C339   C352    1.393   .     A
C339   C353    1.397   .     A
C340   C341    1.393   .     A
C340   H478    1.079   1_455 S
C341   C838    1.396   .     S
C341   H865    1.083   .     S
C342   C347    1.403   .     A
C342   C838    1.418   .     S
C342   C843    1.420   .     S
C343   H369    1.077   .     S
C343   C837    1.418   1_554 S
C343   C836    1.396   1_554 S
C344   H357    1.115   .     S
C344   C345    1.530   .     S
C345   H358    1.112   .     S
C345   C346    1.525   .     S
C345   H359    1.109   .     S
C346   H362    1.111   .     S
C346   H360    1.108   .     S
C346   H361    1.110   .     S
C347   C351    1.403   .     A
C348   C352    1.382   .     A
C348   C837    1.420   1_554 S
C348   C844    1.423   1_554 S
C349   C350    1.380   .     A
C349   C843    1.423   .     S
C350   C351    1.373   .     A
C350   H365    1.078   .     S
C351   H371    1.067   .     S
C352   H367    1.076   .     S
C353   C833    1.385   1_554 S
C353   H409    1.083   .     S
H354   C463    1.083   1_455 S
H356   C14     1.107   1_565 S
H363   O375    0.990   .     S
H364   N373    1.023   .     S
H368   C395    1.079   .     S
H370   C836    1.083   1_554 S
N372   Zn385   2.026   .     S
N372   N373    1.284   .     D
N372   O375    1.338   .     S
N373   Zn384   2.026   .     S
O374   Zn384   1.958   .     S
O374   C386    1.279   .     S
O376   Zn385   1.975   .     S
O377   Zn384   1.985   .     S
O377   C389    1.309   .     S
O378   Zn385   1.976   .     S
O379   Zn384   1.975   .     S
O380   Zn385   1.958   .     S
O380   C446    1.284   1_455 S
O381   Zn384   1.976   .     S
O382   Zn385   1.985   .     S
O382   C447    1.294   1_455 S
O383   C14     1.415   1_565 S
O383   C5      1.396   1_565 S
C386   O431    1.291   .     A
C386   C388    1.403   .     S
C387   C389    1.478   .     S
C387   C402    1.412   .     A
C387   C395    1.399   .     A
C388   C5      1.340   1_565 S
C388   H80     1.088   1_565 S
C389   O433    1.296   .     A
C390   C391    1.420   .     S
C391   O434    1.291   .     A
C391   O490    1.284   .     S
C392   O436    1.293   .     A
C392   C394    1.437   .     S
C392   O492    1.294   .     S
C393   H421    1.084   .     S
C393   C404    1.399   .     A
C393   C903    1.385   .     S
C394   C407    1.393   .     A
C394   C408    1.397   .     A
C395   C396    1.393   .     A
C396   C893    1.396   .     S
C396   H920    1.083   .     S
C397   C402    1.403   .     A
C397   C893    1.418   .     S
C397   C898    1.420   .     S
C398   H424    1.077   .     S
C398   C892    1.418   1_554 S
C398   C891    1.396   1_554 S
C399   H412    1.115   .     S
C399   C400    1.530   .     S
C400   H413    1.112   .     S
C400   C401    1.525   .     S
C400   H414    1.109   .     S
C401   H417    1.111   .     S
C401   H415    1.108   .     S
C401   H416    1.110   .     S
C402   C406    1.403   .     A
C403   C407    1.382   .     A
C403   C892    1.420   1_554 S
C403   C899    1.423   1_554 S
C404   C405    1.380   .     A
C404   C898    1.423   .     S
C405   C406    1.373   .     A
C405   H420    1.078   .     S
C406   H426    1.067   .     S
C407   H422    1.076   .     S
C408   C888    1.385   1_554 S
C408   H464    1.083   .     S
H411   C69     1.107   1_565 S
H418   O430    0.990   .     S
H419   N428    1.023   .     S
H423   C450    1.079   .     S
H425   C891    1.083   1_554 S
N427   Zn440   2.026   .     S
N427   N428    1.284   .     D
N427   O430    1.338   .     S
N428   Zn439   2.026   .     S
O429   Zn439   1.958   .     S
O429   C441    1.279   .     S
O431   Zn440   1.975   .     S
O432   Zn439   1.985   .     S
O432   C444    1.309   .     S
O433   Zn440   1.976   .     S
O434   Zn439   1.975   .     S
O435   Zn440   1.958   .     S
O436   Zn439   1.976   .     S
O437   Zn440   1.985   .     S
O438   C69     1.415   1_565 S
O438   C60     1.396   1_565 S
C441   O486    1.291   .     A
C441   C443    1.403   .     S
C442   C444    1.478   .     S
C442   C457    1.412   .     A
C442   C450    1.399   .     A
C443   C60     1.340   1_565 S
C443   H135    1.088   1_565 S
C444   O488    1.296   .     A
C445   C446    1.420   .     S
C445   C168    1.340   1_655 S
C446   O489    1.291   .     A
C446   O380    1.284   1_655 S
C447   O491    1.293   .     A
C447   C449    1.437   .     S
C447   O382    1.294   1_655 S
C448   H476    1.084   .     S
C448   C459    1.399   .     A
C448   C958    1.385   .     S
C449   C462    1.393   .     A
C449   C463    1.397   .     A
C450   C451    1.393   .     A
C451   C948    1.396   .     S
C451   H975    1.083   .     S
C452   C457    1.403   .     A
C452   C948    1.418   .     S
C452   C953    1.420   .     S
C453   H479    1.077   .     S
C453   C947    1.418   1_554 S
C453   C946    1.396   1_554 S
C454   H467    1.115   .     S
C454   C455    1.530   .     S
C455   H468    1.112   .     S
C455   C456    1.525   .     S
C455   H469    1.109   .     S
C456   H472    1.111   .     S
C456   H470    1.108   .     S
C456   H471    1.110   .     S
C457   C461    1.403   .     A
C458   C462    1.382   .     A
C458   C947    1.420   1_554 S
C458   C954    1.423   1_554 S
C459   C460    1.380   .     A
C459   C953    1.423   .     S
C460   C461    1.373   .     A
C460   H475    1.078   .     S
C461   H481    1.067   .     S
C462   H477    1.076   .     S
C463   C943    1.385   1_554 S
C463   H354    1.083   1_655 S
H466   C124    1.107   1_565 S
H473   O485    0.990   .     S
H474   N483    1.023   .     S
H478   C340    1.079   1_655 S
H480   C946    1.083   1_554 S
N482   Zn495   2.026   .     S
N482   N483    1.284   .     D
N482   O485    1.338   .     S
N483   Zn494   2.026   .     S
O484   Zn494   1.958   .     S
O484   C331    1.279   1_655 S
O486   Zn495   1.975   .     S
O487   Zn494   1.985   .     S
O487   C334    1.309   1_655 S
O488   Zn495   1.976   .     S
O489   Zn494   1.975   .     S
O490   Zn495   1.958   .     S
O491   Zn494   1.976   .     S
O492   Zn495   1.985   .     S
O493   C124    1.415   1_565 S
O493   C115    1.396   1_565 S
C496   O541    1.291   .     A
C496   C498    1.403   .     S
C496   O649    1.279   1_455 S
C497   C499    1.478   .     S
C497   C512    1.412   .     A
C497   C505    1.399   .     A
C498   C775    1.340   1_455 S
C498   H685    1.088   .     S
C499   O543    1.296   .     A
C499   O652    1.309   1_455 S
C500   C501    1.420   .     S
C500   C883    1.340   1_545 S
C500   O878    1.396   1_545 S
C501   O544    1.291   .     A
C501   O600    1.284   .     S
C502   O546    1.293   .     A
C502   C504    1.437   .     S
C502   O602    1.294   .     S
C503   H531    1.084   .     S
C503   C514    1.399   .     A
C503   C23     1.385   1_556 S
C504   C517    1.393   .     A
C504   C518    1.397   .     A
C505   C506    1.393   .     A
C505   H643    1.079   1_455 S
C506   C13     1.396   1_556 S
C506   H40     1.083   1_556 S
C507   C512    1.403   .     A
C507   C13     1.418   1_556 S
C507   C18     1.420   1_556 S
C508   H534    1.077   .     S
C509   H522    1.115   .     S
C509   C510    1.530   .     S
C509   H851    1.107   1_545 S
C509   O878    1.415   1_545 S
C510   H523    1.112   .     S
C510   C511    1.525   .     S
C510   H524    1.109   .     S
C511   H527    1.111   .     S
C511   H525    1.108   .     S
C511   H526    1.110   .     S
C512   C516    1.403   .     A
C513   C517    1.382   .     A
C514   C515    1.380   .     A
C514   C18     1.423   1_556 S
C515   C516    1.373   .     A
C515   H530    1.078   .     S
C516   H536    1.067   .     S
C517   H532    1.076   .     S
C518   H574    1.083   .     S
H519   C628    1.083   1_455 S
H520   C828    1.088   1_545 S
H521   C674    1.107   .     S
H528   O540    0.990   .     S
H529   N538    1.023   .     S
H533   C560    1.079   .     S
N537   Zn550   2.026   .     S
N537   N538    1.284   .     D
N537   O540    1.338   .     S
N538   Zn549   2.026   .     S
O539   Zn549   1.958   .     S
O539   C551    1.279   .     S
O541   Zn550   1.975   .     S
O542   Zn549   1.985   .     S
O542   C554    1.309   .     S
O543   Zn550   1.976   .     S
O544   Zn549   1.975   .     S
O545   Zn550   1.958   .     S
O545   C611    1.284   1_455 S
O546   Zn549   1.976   .     S
O547   Zn550   1.985   .     S
O547   C612    1.294   1_455 S
O548   C674    1.415   .     S
O548   C665    1.396   .     S
C551   O596    1.291   .     A
C551   C553    1.403   .     S
C552   C554    1.478   .     S
C552   C567    1.412   .     A
C552   C560    1.399   .     A
C553   C665    1.340   .     S
C553   H740    1.088   .     S
C554   O598    1.296   .     A
C555   C556    1.420   .     S
C555   C938    1.340   1_545 S
C555   O933    1.396   1_545 S
C556   O599    1.291   .     A
C556   O655    1.284   .     S
C557   O601    1.293   .     A
C557   C559    1.437   .     S
C557   O657    1.294   .     S
C558   H586    1.084   .     S
C558   C569    1.399   .     A
C558   C78     1.385   1_556 S
C559   C572    1.393   .     A
C559   C573    1.397   .     A
C560   C561    1.393   .     A
C561   C68     1.396   1_556 S
C561   H95     1.083   1_556 S
C562   C567    1.403   .     A
C562   C68     1.418   1_556 S
C562   C73     1.420   1_556 S
C563   H589    1.077   .     S
C564   H577    1.115   .     S
C564   C565    1.530   .     S
C564   H906    1.107   1_545 S
C564   O933    1.415   1_545 S
C565   H578    1.112   .     S
C565   C566    1.525   .     S
C565   H579    1.109   .     S
C566   H582    1.111   .     S
C566   H580    1.108   .     S
C566   H581    1.110   .     S
C567   C571    1.403   .     A
C568   C572    1.382   .     A
C569   C570    1.380   .     A
C569   C73     1.423   1_556 S
C570   C571    1.373   .     A
C570   H585    1.078   .     S
C571   H591    1.067   .     S
C572   H587    1.076   .     S
C573   H629    1.083   .     S
H575   C883    1.088   1_545 S
H576   C729    1.107   .     S
H583   O595    0.990   .     S
H584   N593    1.023   .     S
H588   C615    1.079   .     S
N592   Zn605   2.026   .     S
N592   N593    1.284   .     D
N592   O595    1.338   .     S
N593   Zn604   2.026   .     S
O594   Zn604   1.958   .     S
O594   C606    1.279   .     S
O596   Zn605   1.975   .     S
O597   Zn604   1.985   .     S
O597   C609    1.309   .     S
O598   Zn605   1.976   .     S
O599   Zn604   1.975   .     S
O600   Zn605   1.958   .     S
O601   Zn604   1.976   .     S
O602   Zn605   1.985   .     S
O603   C729    1.415   .     S
O603   C720    1.396   .     S
C606   O651    1.291   .     A
C606   C608    1.403   .     S
C607   C609    1.478   .     S
C607   C622    1.412   .     A
C607   C615    1.399   .     A
C608   C720    1.340   .     S
C608   H795    1.088   .     S
C609   O653    1.296   .     A
C610   C611    1.420   .     S
C610   C828    1.340   1_645 S
C610   O988    1.396   1_545 S
C611   O654    1.291   .     A
C611   O545    1.284   1_655 S
C612   O656    1.293   .     A
C612   C614    1.437   .     S
C612   O547    1.294   1_655 S
C613   H641    1.084   .     S
C613   C624    1.399   .     A
C613   C133    1.385   1_556 S
C614   C627    1.393   .     A
C614   C628    1.397   .     A
C615   C616    1.393   .     A
C616   C123    1.396   1_556 S
C616   H150    1.083   1_556 S
C617   C622    1.403   .     A
C617   C123    1.418   1_556 S
C617   C128    1.420   1_556 S
C618   H644    1.077   .     S
C619   H632    1.115   .     S
C619   C620    1.530   .     S
C619   H961    1.107   1_545 S
C619   O988    1.415   1_545 S
C620   H633    1.112   .     S
C620   C621    1.525   .     S
C620   H634    1.109   .     S
C621   H637    1.111   .     S
C621   H635    1.108   .     S
C621   H636    1.110   .     S
C622   C626    1.403   .     A
C623   C627    1.382   .     A
C624   C625    1.380   .     A
C624   C128    1.423   1_556 S
C625   C626    1.373   .     A
C625   H640    1.078   .     S
C626   H646    1.067   .     S
C627   H642    1.076   .     S
C628   H519    1.083   1_655 S
H630   C938    1.088   1_545 S
H631   C784    1.107   .     S
H638   O650    0.990   .     S
H639   N648    1.023   .     S
H643   C505    1.079   1_655 S
N647   Zn660   2.026   .     S
N647   N648    1.284   .     D
N647   O650    1.338   .     S
N648   Zn659   2.026   .     S
O649   Zn659   1.958   .     S
O649   C496    1.279   1_655 S
O651   Zn660   1.975   .     S
O652   Zn659   1.985   .     S
O652   C499    1.309   1_655 S
O653   Zn660   1.976   .     S
O654   Zn659   1.975   .     S
O655   Zn660   1.958   .     S
O656   Zn659   1.976   .     S
O657   Zn660   1.985   .     S
O658   C784    1.415   .     S
O658   C775    1.396   .     S
C661   O706    1.291   .     A
C661   C663    1.403   .     S
C661   O814    1.279   1_455 S
C662   C664    1.478   .     S
C662   C677    1.412   .     A
C662   C670    1.399   .     A
C663   C940    1.340   1_455 S
C663   H850    1.088   .     S
C664   O708    1.296   .     A
C664   O817    1.309   1_455 S
C665   C666    1.420   .     S
C666   O709    1.291   .     A
C666   O765    1.284   .     S
C667   O711    1.293   .     A
C667   C669    1.437   .     S
C667   O767    1.294   .     S
C668   H696    1.084   .     S
C668   C679    1.399   .     A
C668   C188    1.385   1_556 S
C669   C682    1.393   .     A
C669   C683    1.397   .     A
C670   C671    1.393   .     A
C670   H808    1.079   1_455 S
C671   C178    1.396   1_556 S
C671   H205    1.083   1_556 S
C672   C677    1.403   .     A
C672   C178    1.418   1_556 S
C672   C183    1.420   1_556 S
C673   H699    1.077   .     S
C674   H687    1.115   .     S
C674   C675    1.530   .     S
C675   H688    1.112   .     S
C675   C676    1.525   .     S
C675   H689    1.109   .     S
C676   H692    1.111   .     S
C676   H690    1.108   .     S
C676   H691    1.110   .     S
C677   C681    1.403   .     A
C678   C682    1.382   .     A
C679   C680    1.380   .     A
C679   C183    1.423   1_556 S
C680   C681    1.373   .     A
C680   H695    1.078   .     S
C681   H701    1.067   .     S
C682   H697    1.076   .     S
C683   H739    1.083   .     S
H684   C793    1.083   1_455 S
H686   C839    1.107   .     S
H693   O705    0.990   .     S
H694   N703    1.023   .     S
H698   C725    1.079   .     S
N702   Zn715   2.026   .     S
N702   N703    1.284   .     D
N702   O705    1.338   .     S
N703   Zn714   2.026   .     S
O704   Zn714   1.958   .     S
O704   C716    1.279   .     S
O706   Zn715   1.975   .     S
O707   Zn714   1.985   .     S
O707   C719    1.309   .     S
O708   Zn715   1.976   .     S
O709   Zn714   1.975   .     S
O710   Zn715   1.958   .     S
O710   C776    1.284   1_455 S
O711   Zn714   1.976   .     S
O712   Zn715   1.985   .     S
O712   C777    1.294   1_455 S
O713   C839    1.415   .     S
O713   C830    1.396   .     S
C716   O761    1.291   .     A
C716   C718    1.403   .     S
C717   C719    1.478   .     S
C717   C732    1.412   .     A
C717   C725    1.399   .     A
C718   C830    1.340   .     S
C718   H905    1.088   .     S
C719   O763    1.296   .     A
C720   C721    1.420   .     S
C721   O764    1.291   .     A
C721   O820    1.284   .     S
C722   O766    1.293   .     A
C722   C724    1.437   .     S
C722   O822    1.294   .     S
C723   H751    1.084   .     S
C723   C734    1.399   .     A
C723   C243    1.385   1_556 S
C724   C737    1.393   .     A
C724   C738    1.397   .     A
C725   C726    1.393   .     A
C726   C233    1.396   1_556 S
C726   H260    1.083   1_556 S
C727   C732    1.403   .     A
C727   C233    1.418   1_556 S
C727   C238    1.420   1_556 S
C728   H754    1.077   .     S
C729   H742    1.115   .     S
C729   C730    1.530   .     S
C730   H743    1.112   .     S
C730   C731    1.525   .     S
C730   H744    1.109   .     S
C731   H747    1.111   .     S
C731   H745    1.108   .     S
C731   H746    1.110   .     S
C732   C736    1.403   .     A
C733   C737    1.382   .     A
C734   C735    1.380   .     A
C734   C238    1.423   1_556 S
C735   C736    1.373   .     A
C735   H750    1.078   .     S
C736   H756    1.067   .     S
C737   H752    1.076   .     S
C738   H794    1.083   .     S
H741   C894    1.107   .     S
H748   O760    0.990   .     S
H749   N758    1.023   .     S
H753   C780    1.079   .     S
N757   Zn770   2.026   .     S
N757   N758    1.284   .     D
N757   O760    1.338   .     S
N758   Zn769   2.026   .     S
O759   Zn769   1.958   .     S
O759   C771    1.279   .     S
O761   Zn770   1.975   .     S
O762   Zn769   1.985   .     S
O762   C774    1.309   .     S
O763   Zn770   1.976   .     S
O764   Zn769   1.975   .     S
O765   Zn770   1.958   .     S
O766   Zn769   1.976   .     S
O767   Zn770   1.985   .     S
O768   C894    1.415   .     S
O768   C885    1.396   .     S
C771   O816    1.291   .     A
C771   C773    1.403   .     S
C772   C774    1.478   .     S
C772   C787    1.412   .     A
C772   C780    1.399   .     A
C773   C885    1.340   .     S
C773   H960    1.088   .     S
C774   O818    1.296   .     A
C775   C776    1.420   .     S
C775   C498    1.340   1_655 S
C776   O819    1.291   .     A
C776   O710    1.284   1_655 S
C777   O821    1.293   .     A
C777   C779    1.437   .     S
C777   O712    1.294   1_655 S
C778   H806    1.084   .     S
C778   C789    1.399   .     A
C778   C298    1.385   1_556 S
C779   C792    1.393   .     A
C779   C793    1.397   .     A
C780   C781    1.393   .     A
C781   C288    1.396   1_556 S
C781   H315    1.083   1_556 S
C782   C787    1.403   .     A
C782   C288    1.418   1_556 S
C782   C293    1.420   1_556 S
C783   H809    1.077   .     S
C784   H797    1.115   .     S
C784   C785    1.530   .     S
C785   H798    1.112   .     S
C785   C786    1.525   .     S
C785   H799    1.109   .     S
C786   H802    1.111   .     S
C786   H800    1.108   .     S
C786   H801    1.110   .     S
C787   C791    1.403   .     A
C788   C792    1.382   .     A
C789   C790    1.380   .     A
C789   C293    1.423   1_556 S
C790   C791    1.373   .     A
C790   H805    1.078   .     S
C791   H811    1.067   .     S
C792   H807    1.076   .     S
C793   H684    1.083   1_655 S
H796   C949    1.107   .     S
H803   O815    0.990   .     S
H804   N813    1.023   .     S
H808   C670    1.079   1_655 S
N812   Zn825   2.026   .     S
N812   N813    1.284   .     D
N812   O815    1.338   .     S
N813   Zn824   2.026   .     S
O814   Zn824   1.958   .     S
O814   C661    1.279   1_655 S
O816   Zn825   1.975   .     S
O817   Zn824   1.985   .     S
O817   C664    1.309   1_655 S
O818   Zn825   1.976   .     S
O819   Zn824   1.975   .     S
O820   Zn825   1.958   .     S
O821   Zn824   1.976   .     S
O822   Zn825   1.985   .     S
O823   C949    1.415   .     S
O823   C940    1.396   .     S
C826   O871    1.291   .     A
C826   C828    1.403   .     S
C826   O979    1.279   1_455 S
C827   C829    1.478   .     S
C827   C842    1.412   .     A
C827   C835    1.399   .     A
C828   C610    1.340   1_465 S
C828   H520    1.088   1_565 S
C829   O873    1.296   .     A
C829   O982    1.309   1_455 S
C830   C831    1.420   .     S
C831   O874    1.291   .     A
C831   O930    1.284   .     S
C832   O876    1.293   .     A
C832   C834    1.437   .     S
C832   O932    1.294   .     S
C833   H861    1.084   .     S
C833   C844    1.399   .     A
C833   C353    1.385   1_556 S
C834   C847    1.393   .     A
C834   C848    1.397   .     A
C835   C836    1.393   .     A
C835   H973    1.079   1_455 S
C836   C343    1.396   1_556 S
C836   H370    1.083   1_556 S
C837   C842    1.403   .     A
C837   C343    1.418   1_556 S
C837   C348    1.420   1_556 S
C838   H864    1.077   .     S
C839   H852    1.115   .     S
C839   C840    1.530   .     S
C840   H853    1.112   .     S
C840   C841    1.525   .     S
C840   H854    1.109   .     S
C841   H857    1.111   .     S
C841   H855    1.108   .     S
C841   H856    1.110   .     S
C842   C846    1.403   .     A
C843   C847    1.382   .     A
C844   C845    1.380   .     A
C844   C348    1.423   1_556 S
C845   C846    1.373   .     A
C845   H860    1.078   .     S
C846   H866    1.067   .     S
C847   H862    1.076   .     S
C848   H904    1.083   .     S
H849   C958    1.083   1_455 S
H851   C509    1.107   1_565 S
H858   O870    0.990   .     S
H859   N868    1.023   .     S
H863   C890    1.079   .     S
N867   Zn880   2.026   .     S
N867   N868    1.284   .     D
N867   O870    1.338   .     S
N868   Zn879   2.026   .     S
O869   Zn879   1.958   .     S
O869   C881    1.279   .     S
O871   Zn880   1.975   .     S
O872   Zn879   1.985   .     S
O872   C884    1.309   .     S
O873   Zn880   1.976   .     S
O874   Zn879   1.975   .     S
O875   Zn880   1.958   .     S
O875   C941    1.284   1_455 S
O876   Zn879   1.976   .     S
O877   Zn880   1.985   .     S
O877   C942    1.294   1_455 S
O878   C509    1.415   1_565 S
O878   C500    1.396   1_565 S
C881   O926    1.291   .     A
C881   C883    1.403   .     S
C882   C884    1.478   .     S
C882   C897    1.412   .     A
C882   C890    1.399   .     A
C883   C500    1.340   1_565 S
C883   H575    1.088   1_565 S
C884   O928    1.296   .     A
C885   C886    1.420   .     S
C886   O929    1.291   .     A
C886   O985    1.284   .     S
C887   O931    1.293   .     A
C887   C889    1.437   .     S
C887   O987    1.294   .     S
C888   H916    1.084   .     S
C888   C899    1.399   .     A
C888   C408    1.385   1_556 S
C889   C902    1.393   .     A
C889   C903    1.397   .     A
C890   C891    1.393   .     A
C891   C398    1.396   1_556 S
C891   H425    1.083   1_556 S
C892   C897    1.403   .     A
C892   C398    1.418   1_556 S
C892   C403    1.420   1_556 S
C893   H919    1.077   .     S
C894   H907    1.115   .     S
C894   C895    1.530   .     S
C895   H908    1.112   .     S
C895   C896    1.525   .     S
C895   H909    1.109   .     S
C896   H912    1.111   .     S
C896   H910    1.108   .     S
C896   H911    1.110   .     S
C897   C901    1.403   .     A
C898   C902    1.382   .     A
C899   C900    1.380   .     A
C899   C403    1.423   1_556 S
C900   C901    1.373   .     A
C900   H915    1.078   .     S
C901   H921    1.067   .     S
C902   H917    1.076   .     S
C903   H959    1.083   .     S
H906   C564    1.107   1_565 S
H913   O925    0.990   .     S
H914   N923    1.023   .     S
H918   C945    1.079   .     S
N922   Zn935   2.026   .     S
N922   N923    1.284   .     D
N922   O925    1.338   .     S
N923   Zn934   2.026   .     S
O924   Zn934   1.958   .     S
O924   C936    1.279   .     S
O926   Zn935   1.975   .     S
O927   Zn934   1.985   .     S
O927   C939    1.309   .     S
O928   Zn935   1.976   .     S
O929   Zn934   1.975   .     S
O930   Zn935   1.958   .     S
O931   Zn934   1.976   .     S
O932   Zn935   1.985   .     S
O933   C564    1.415   1_565 S
O933   C555    1.396   1_565 S
C936   O981    1.291   .     A
C936   C938    1.403   .     S
C937   C939    1.478   .     S
C937   C952    1.412   .     A
C937   C945    1.399   .     A
C938   C555    1.340   1_565 S
C938   H630    1.088   1_565 S
C939   O983    1.296   .     A
C940   C941    1.420   .     S
C940   C663    1.340   1_655 S
C941   O984    1.291   .     A
C941   O875    1.284   1_655 S
C942   O986    1.293   .     A
C942   C944    1.437   .     S
C942   O877    1.294   1_655 S
C943   H971    1.084   .     S
C943   C954    1.399   .     A
C943   C463    1.385   1_556 S
C944   C957    1.393   .     A
C944   C958    1.397   .     A
C945   C946    1.393   .     A
C946   C453    1.396   1_556 S
C946   H480    1.083   1_556 S
C947   C952    1.403   .     A
C947   C453    1.418   1_556 S
C947   C458    1.420   1_556 S
C948   H974    1.077   .     S
C949   H962    1.115   .     S
C949   C950    1.530   .     S
C950   H963    1.112   .     S
C950   C951    1.525   .     S
C950   H964    1.109   .     S
C951   H967    1.111   .     S
C951   H965    1.108   .     S
C951   H966    1.110   .     S
C952   C956    1.403   .     A
C953   C957    1.382   .     A
C954   C955    1.380   .     A
C954   C458    1.423   1_556 S
C955   C956    1.373   .     A
C955   H970    1.078   .     S
C956   H976    1.067   .     S
C957   H972    1.076   .     S
C958   H849    1.083   1_655 S
H961   C619    1.107   1_565 S
H968   O980    0.990   .     S
H969   N978    1.023   .     S
H973   C835    1.079   1_655 S
N977   Zn990   2.026   .     S
N977   N978    1.284   .     D
N977   O980    1.338   .     S
N978   Zn989   2.026   .     S
O979   Zn989   1.958   .     S
O979   C826    1.279   1_655 S
O981   Zn990   1.975   .     S
O982   Zn989   1.985   .     S
O982   C829    1.309   1_655 S
O983   Zn990   1.976   .     S
O984   Zn989   1.975   .     S
O985   Zn990   1.958   .     S
O986   Zn989   1.976   .     S
O987   Zn990   1.985   .     S
O988   C619    1.415   1_565 S
O988   C610    1.396   1_565 S
