data_str_m3_o1_o1_pcu_sym.31
_audit_creation_date              2020-01-03
_audit_creation_method            'Materials Studio'
_symmetry_space_group_name_H-M    'P1'
_symmetry_Int_Tables_number       1
_symmetry_cell_setting            triclinic
loop_
_symmetry_equiv_pos_as_xyz
  x,y,z
_cell_length_a                    31.1881
_cell_length_b                    29.1151
_cell_length_c                    30.1643
_cell_angle_alpha                 90.0059
_cell_angle_beta                  89.9956
_cell_angle_gamma                 90.0003
loop_
_atom_site_label
_atom_site_type_symbol
_atom_site_fract_x
_atom_site_fract_y
_atom_site_fract_z
_atom_site_U_iso_or_equiv
_atom_site_adp_type
_atom_site_occupancy
C1     C     0.05927   0.18970   0.16663   0.00000  Uiso   1.00
C2     C     0.49965   0.20959   0.30952   0.00000  Uiso   1.00
C3     C     0.00039   0.20959   0.02380   0.00000  Uiso   1.00
C4     C     0.00035   0.29041   0.30953   0.00000  Uiso   1.00
C5     C     0.25036   0.04041   0.02381   0.00000  Uiso   1.00
C6     C     0.25038   0.45959   0.30952   0.00000  Uiso   1.00
C7     C     0.24964   0.45959   0.02380   0.00000  Uiso   1.00
C8     C     0.24963   0.04041   0.30953   0.00000  Uiso   1.00
C9     C     0.41414   0.11446   0.14557   0.00000  Uiso   1.00
C10    C     0.13096   0.33260   0.18852   0.00000  Uiso   1.00
C11    C     0.08586   0.38554   0.14558   0.00000  Uiso   1.00
C12    C     0.44073   0.31030   0.16664   0.00000  Uiso   1.00
C13    C     0.36903   0.16742   0.18852   0.00000  Uiso   1.00
C14    C     0.08585   0.11445   0.18774   0.00000  Uiso   1.00
C15    C     0.36905   0.33260   0.14480   0.00000  Uiso   1.00
C16    C     0.41413   0.38553   0.18778   0.00000  Uiso   1.00
C17    C     0.13097   0.16740   0.14481   0.00000  Uiso   1.00
C18    C     0.11904   0.41741   0.14481   0.00000  Uiso   1.00
C19    C     0.33586   0.13554   0.18776   0.00000  Uiso   1.00
C20    C     0.38096   0.08259   0.14481   0.00000  Uiso   1.00
C21    C     0.16414   0.36447   0.18776   0.00000  Uiso   1.00
C22    C     0.38096   0.41740   0.18853   0.00000  Uiso   1.00
C23    C     0.44073   0.18970   0.16670   0.00000  Uiso   1.00
C24    C     0.16415   0.13554   0.14559   0.00000  Uiso   1.00
C25    C     0.11903   0.08259   0.18851   0.00000  Uiso   1.00
C26    C     0.33587   0.36447   0.14556   0.00000  Uiso   1.00
C27    C     0.09256   0.34339   0.16689   0.00000  Uiso   1.00
C28    C     0.40744   0.15661   0.16688   0.00000  Uiso   1.00
C29    C     0.40744   0.34339   0.16645   0.00000  Uiso   1.00
C30    C     0.09255   0.15660   0.16644   0.00000  Uiso   1.00
C31    C     0.34256   0.09340   0.16645   0.00000  Uiso   1.00
C32    C     0.15744   0.40661   0.16645   0.00000  Uiso   1.00
C33    C     0.15744   0.09339   0.16689   0.00000  Uiso   1.00
C34    C     0.05927   0.31030   0.16670   0.00000  Uiso   1.00
C35    C     0.34256   0.40661   0.16688   0.00000  Uiso   1.00
C36    C     0.49805   0.33613   0.04719   0.00000  Uiso   1.00
C37    C     0.49813   0.16387   0.28615   0.00000  Uiso   1.00
C38    C     0.00199   0.16387   0.04717   0.00000  Uiso   1.00
C39    C     0.00188   0.33613   0.28616   0.00000  Uiso   1.00
C40    C     0.25191   0.08613   0.04719   0.00000  Uiso   1.00
C41    C     0.25196   0.41387   0.28614   0.00000  Uiso   1.00
C42    C     0.24809   0.41387   0.04717   0.00000  Uiso   1.00
C43    C     0.24808   0.08613   0.28617   0.00000  Uiso   1.00
C44    C     0.30927   0.43970   0.16670   0.00000  Uiso   1.00
C45    C     0.19073   0.06030   0.16670   0.00000  Uiso   1.00
C46    C     0.19073   0.43970   0.16663   0.00000  Uiso   1.00
C47    C     0.30927   0.06030   0.16663   0.00000  Uiso   1.00
C48    C     0.49962   0.29041   0.02381   0.00000  Uiso   1.00
H49    H     0.49966   0.33370   0.08297   0.00000  Uiso   1.00
H50    H     0.00033   0.33370   0.25038   0.00000  Uiso   1.00
H51    H     0.47417   0.35747   0.29640   0.00000  Uiso   1.00
H52    H     0.03224   0.35419   0.29419   0.00000  Uiso   1.00
H53    H     0.25034   0.08370   0.08297   0.00000  Uiso   1.00
H54    H     0.28229   0.10416   0.03917   0.00000  Uiso   1.00
H55    H     0.22423   0.10750   0.03695   0.00000  Uiso   1.00
H56    H     0.25033   0.41630   0.25037   0.00000  Uiso   1.00
H57    H     0.28237   0.39590   0.29411   0.00000  Uiso   1.00
H58    H     0.22433   0.39246   0.29642   0.00000  Uiso   1.00
H59    H     0.24967   0.41630   0.08295   0.00000  Uiso   1.00
H60    H     0.02571   0.35753   0.03692   0.00000  Uiso   1.00
H61    H     0.21771   0.39584   0.03916   0.00000  Uiso   1.00
H62    H     0.27577   0.39251   0.03692   0.00000  Uiso   1.00
H63    H     0.24966   0.08370   0.25038   0.00000  Uiso   1.00
H64    H     0.21770   0.10416   0.29419   0.00000  Uiso   1.00
H65    H     0.27577   0.10750   0.29641   0.00000  Uiso   1.00
H66    H     0.45081   0.09401   0.09377   0.00000  Uiso   1.00
H67    H     0.46794   0.07566   0.14387   0.00000  Uiso   1.00
H68    H     0.16265   0.27239   0.19876   0.00000  Uiso   1.00
H69    H     0.14047   0.29584   0.24477   0.00000  Uiso   1.00
H70    H     0.04918   0.40600   0.09380   0.00000  Uiso   1.00
H71    H     0.46765   0.35413   0.03920   0.00000  Uiso   1.00
H72    H     0.03206   0.42434   0.14391   0.00000  Uiso   1.00
H73    H     0.33735   0.22763   0.19873   0.00000  Uiso   1.00
H74    H     0.35951   0.20420   0.24476   0.00000  Uiso   1.00
H75    H     0.04915   0.09399   0.23951   0.00000  Uiso   1.00
H76    H     0.03206   0.07564   0.18939   0.00000  Uiso   1.00
H77    H     0.33736   0.27239   0.13453   0.00000  Uiso   1.00
H78    H     0.35956   0.29584   0.08853   0.00000  Uiso   1.00
H79    H     0.45077   0.40598   0.23960   0.00000  Uiso   1.00
H80    H     0.46794   0.42434   0.18951   0.00000  Uiso   1.00
H81    H     0.16265   0.22762   0.13460   0.00000  Uiso   1.00
H82    H     0.49967   0.16630   0.25037   0.00000  Uiso   1.00
H83    H     0.14050   0.20417   0.08857   0.00000  Uiso   1.00
H84    H     0.08735   0.47761   0.13456   0.00000  Uiso   1.00
H85    H     0.10954   0.45416   0.08856   0.00000  Uiso   1.00
H86    H     0.29919   0.15599   0.23956   0.00000  Uiso   1.00
H87    H     0.28206   0.17436   0.18946   0.00000  Uiso   1.00
H88    H     0.41265   0.02237   0.13460   0.00000  Uiso   1.00
H89    H     0.39049   0.04579   0.08857   0.00000  Uiso   1.00
H90    H     0.20082   0.34400   0.23954   0.00000  Uiso   1.00
H91    H     0.21794   0.32567   0.18942   0.00000  Uiso   1.00
H92    H     0.41264   0.47761   0.19881   0.00000  Uiso   1.00
H93    H     0.02584   0.14253   0.29637   0.00000  Uiso   1.00
H94    H     0.39043   0.45416   0.24480   0.00000  Uiso   1.00
H95    H     0.20087   0.15604   0.09386   0.00000  Uiso   1.00
H96    H     0.21794   0.17433   0.14400   0.00000  Uiso   1.00
H97    H     0.08735   0.02237   0.19873   0.00000  Uiso   1.00
H98    H     0.10950   0.04582   0.24476   0.00000  Uiso   1.00
H99    H     0.29923   0.34404   0.09373   0.00000  Uiso   1.00
H100   H     0.28206   0.32566   0.14382   0.00000  Uiso   1.00
H101   H     0.46777   0.14581   0.29418   0.00000  Uiso   1.00
H102   H     0.00034   0.16630   0.08295   0.00000  Uiso   1.00
H103   H     0.47437   0.14243   0.03688   0.00000  Uiso   1.00
H104   H     0.03243   0.14592   0.03920   0.00000  Uiso   1.00
N105   N     0.00000   0.25000   0.28573   0.00000  Uiso   1.00
N106   N     0.36434   0.28938   0.12226   0.00000  Uiso   1.00
N107   N     0.45518   0.39628   0.20659   0.00000  Uiso   1.00
N108   N     0.13569   0.21063   0.12229   0.00000  Uiso   1.00
N109   N     0.11433   0.46062   0.12228   0.00000  Uiso   1.00
N110   N     0.29481   0.14630   0.20655   0.00000  Uiso   1.00
N111   N     0.38568   0.03936   0.12230   0.00000  Uiso   1.00
N112   N     0.20519   0.35371   0.20653   0.00000  Uiso   1.00
N113   N     0.38566   0.46062   0.21108   0.00000  Uiso   1.00
N114   N     0.20521   0.14631   0.12685   0.00000  Uiso   1.00
N115   N     0.11431   0.03937   0.21104   0.00000  Uiso   1.00
N116   N     0.00000   0.25000   0.04760   0.00000  Uiso   1.00
N117   N     0.29483   0.35372   0.12674   0.00000  Uiso   1.00
N118   N     0.25000   0.00000   0.28573   0.00000  Uiso   1.00
N119   N     0.25000   0.00000   0.04760   0.00000  Uiso   1.00
N120   N     0.45519   0.10370   0.12678   0.00000  Uiso   1.00
N121   N     0.13568   0.28938   0.21105   0.00000  Uiso   1.00
N122   N     0.04480   0.39629   0.12680   0.00000  Uiso   1.00
N123   N     0.36432   0.21064   0.21104   0.00000  Uiso   1.00
N124   N     0.04479   0.10369   0.20650   0.00000  Uiso   1.00
O125   O     0.04581   0.20419   0.20487   0.00000  Uiso   1.00
O126   O     0.20420   0.04581   0.12846   0.00000  Uiso   1.00
O127   O     0.20420   0.04581   0.20487   0.00000  Uiso   1.00
O128   O     0.29581   0.45419   0.12846   0.00000  Uiso   1.00
O129   O     0.20420   0.45419   0.12846   0.00000  Uiso   1.00
O130   O     0.29581   0.04581   0.20487   0.00000  Uiso   1.00
O131   O     0.29581   0.04581   0.12846   0.00000  Uiso   1.00
O132   O     0.20420   0.45419   0.20487   0.00000  Uiso   1.00
O133   O     0.45420   0.29581   0.12846   0.00000  Uiso   1.00
O134   O     0.45420   0.29581   0.20487   0.00000  Uiso   1.00
O135   O     0.04581   0.20419   0.12846   0.00000  Uiso   1.00
O136   O     0.45420   0.20419   0.12846   0.00000  Uiso   1.00
O137   O     0.04581   0.29581   0.20487   0.00000  Uiso   1.00
O138   O     0.04581   0.29581   0.12846   0.00000  Uiso   1.00
O139   O     0.45420   0.20419   0.20487   0.00000  Uiso   1.00
O140   O     0.29581   0.45419   0.20487   0.00000  Uiso   1.00
Zn141  Zn    0.00000   0.25000   0.21771   0.00000  Uiso   1.00
Zn142  Zn    0.00000   0.25000   0.11563   0.00000  Uiso   1.00
Zn143  Zn    0.25000   0.00000   0.21771   0.00000  Uiso   1.00
Zn144  Zn    0.25000   0.00000   0.11563   0.00000  Uiso   1.00
C145   C     0.55927   0.18970   0.16663   0.00000  Uiso   1.00
C146   C     0.99965   0.20959   0.30952   0.00000  Uiso   1.00
C147   C     0.50039   0.20959   0.02380   0.00000  Uiso   1.00
C148   C     0.50035   0.29041   0.30953   0.00000  Uiso   1.00
C149   C     0.75036   0.04041   0.02381   0.00000  Uiso   1.00
C150   C     0.75038   0.45959   0.30952   0.00000  Uiso   1.00
C151   C     0.74964   0.45959   0.02380   0.00000  Uiso   1.00
C152   C     0.74963   0.04041   0.30953   0.00000  Uiso   1.00
C153   C     0.91414   0.11446   0.14557   0.00000  Uiso   1.00
C154   C     0.63096   0.33260   0.18852   0.00000  Uiso   1.00
C155   C     0.58586   0.38554   0.14558   0.00000  Uiso   1.00
C156   C     0.94073   0.31030   0.16664   0.00000  Uiso   1.00
C157   C     0.86903   0.16742   0.18852   0.00000  Uiso   1.00
C158   C     0.58585   0.11445   0.18774   0.00000  Uiso   1.00
C159   C     0.86905   0.33260   0.14480   0.00000  Uiso   1.00
C160   C     0.91413   0.38553   0.18778   0.00000  Uiso   1.00
C161   C     0.63097   0.16740   0.14481   0.00000  Uiso   1.00
C162   C     0.61904   0.41741   0.14481   0.00000  Uiso   1.00
C163   C     0.83586   0.13554   0.18776   0.00000  Uiso   1.00
C164   C     0.88096   0.08259   0.14481   0.00000  Uiso   1.00
C165   C     0.66414   0.36447   0.18776   0.00000  Uiso   1.00
C166   C     0.88096   0.41740   0.18853   0.00000  Uiso   1.00
C167   C     0.94073   0.18970   0.16670   0.00000  Uiso   1.00
C168   C     0.66415   0.13554   0.14559   0.00000  Uiso   1.00
C169   C     0.61903   0.08259   0.18851   0.00000  Uiso   1.00
C170   C     0.83587   0.36447   0.14556   0.00000  Uiso   1.00
C171   C     0.59256   0.34339   0.16689   0.00000  Uiso   1.00
C172   C     0.90744   0.15661   0.16688   0.00000  Uiso   1.00
C173   C     0.90744   0.34339   0.16645   0.00000  Uiso   1.00
C174   C     0.59255   0.15660   0.16644   0.00000  Uiso   1.00
C175   C     0.84256   0.09340   0.16645   0.00000  Uiso   1.00
C176   C     0.65744   0.40661   0.16645   0.00000  Uiso   1.00
C177   C     0.65744   0.09339   0.16689   0.00000  Uiso   1.00
C178   C     0.55927   0.31030   0.16670   0.00000  Uiso   1.00
C179   C     0.84256   0.40661   0.16688   0.00000  Uiso   1.00
C180   C     0.99805   0.33613   0.04719   0.00000  Uiso   1.00
C181   C     0.99813   0.16387   0.28615   0.00000  Uiso   1.00
C182   C     0.50199   0.16387   0.04717   0.00000  Uiso   1.00
C183   C     0.50188   0.33613   0.28616   0.00000  Uiso   1.00
C184   C     0.75191   0.08613   0.04719   0.00000  Uiso   1.00
C185   C     0.75196   0.41387   0.28614   0.00000  Uiso   1.00
C186   C     0.74809   0.41387   0.04717   0.00000  Uiso   1.00
C187   C     0.74808   0.08613   0.28617   0.00000  Uiso   1.00
C188   C     0.80927   0.43970   0.16670   0.00000  Uiso   1.00
C189   C     0.69073   0.06030   0.16670   0.00000  Uiso   1.00
C190   C     0.69073   0.43970   0.16663   0.00000  Uiso   1.00
C191   C     0.80927   0.06030   0.16663   0.00000  Uiso   1.00
C192   C     0.99962   0.29041   0.02381   0.00000  Uiso   1.00
H193   H     0.99966   0.33370   0.08297   0.00000  Uiso   1.00
H194   H     0.50033   0.33370   0.25038   0.00000  Uiso   1.00
H195   H     0.97417   0.35747   0.29640   0.00000  Uiso   1.00
H196   H     0.53224   0.35419   0.29419   0.00000  Uiso   1.00
H197   H     0.75034   0.08370   0.08297   0.00000  Uiso   1.00
H198   H     0.78229   0.10416   0.03917   0.00000  Uiso   1.00
H199   H     0.72423   0.10750   0.03695   0.00000  Uiso   1.00
H200   H     0.75033   0.41630   0.25037   0.00000  Uiso   1.00
H201   H     0.78237   0.39590   0.29411   0.00000  Uiso   1.00
H202   H     0.72433   0.39246   0.29642   0.00000  Uiso   1.00
H203   H     0.74967   0.41630   0.08295   0.00000  Uiso   1.00
H204   H     0.52571   0.35753   0.03692   0.00000  Uiso   1.00
H205   H     0.71771   0.39584   0.03916   0.00000  Uiso   1.00
H206   H     0.77577   0.39251   0.03692   0.00000  Uiso   1.00
H207   H     0.74966   0.08370   0.25038   0.00000  Uiso   1.00
H208   H     0.71770   0.10416   0.29419   0.00000  Uiso   1.00
H209   H     0.77577   0.10750   0.29641   0.00000  Uiso   1.00
H210   H     0.95081   0.09401   0.09377   0.00000  Uiso   1.00
H211   H     0.96794   0.07566   0.14387   0.00000  Uiso   1.00
H212   H     0.66265   0.27239   0.19876   0.00000  Uiso   1.00
H213   H     0.64047   0.29584   0.24477   0.00000  Uiso   1.00
H214   H     0.54918   0.40600   0.09380   0.00000  Uiso   1.00
H215   H     0.96765   0.35413   0.03920   0.00000  Uiso   1.00
H216   H     0.53206   0.42434   0.14391   0.00000  Uiso   1.00
H217   H     0.83735   0.22763   0.19873   0.00000  Uiso   1.00
H218   H     0.85951   0.20420   0.24476   0.00000  Uiso   1.00
H219   H     0.54915   0.09399   0.23951   0.00000  Uiso   1.00
H220   H     0.53206   0.07564   0.18939   0.00000  Uiso   1.00
H221   H     0.83736   0.27239   0.13453   0.00000  Uiso   1.00
H222   H     0.85956   0.29584   0.08853   0.00000  Uiso   1.00
H223   H     0.95077   0.40598   0.23960   0.00000  Uiso   1.00
H224   H     0.96794   0.42434   0.18951   0.00000  Uiso   1.00
H225   H     0.66265   0.22762   0.13460   0.00000  Uiso   1.00
H226   H     0.99967   0.16630   0.25037   0.00000  Uiso   1.00
H227   H     0.64050   0.20417   0.08857   0.00000  Uiso   1.00
H228   H     0.58735   0.47761   0.13456   0.00000  Uiso   1.00
H229   H     0.60954   0.45416   0.08856   0.00000  Uiso   1.00
H230   H     0.79919   0.15599   0.23956   0.00000  Uiso   1.00
H231   H     0.78206   0.17436   0.18946   0.00000  Uiso   1.00
H232   H     0.91265   0.02237   0.13460   0.00000  Uiso   1.00
H233   H     0.89049   0.04579   0.08857   0.00000  Uiso   1.00
H234   H     0.70082   0.34400   0.23954   0.00000  Uiso   1.00
H235   H     0.71794   0.32567   0.18942   0.00000  Uiso   1.00
H236   H     0.91264   0.47761   0.19881   0.00000  Uiso   1.00
H237   H     0.52584   0.14253   0.29637   0.00000  Uiso   1.00
H238   H     0.89043   0.45416   0.24480   0.00000  Uiso   1.00
H239   H     0.70087   0.15604   0.09386   0.00000  Uiso   1.00
H240   H     0.71794   0.17433   0.14400   0.00000  Uiso   1.00
H241   H     0.58735   0.02237   0.19873   0.00000  Uiso   1.00
H242   H     0.60950   0.04582   0.24476   0.00000  Uiso   1.00
H243   H     0.79923   0.34404   0.09373   0.00000  Uiso   1.00
H244   H     0.78206   0.32566   0.14382   0.00000  Uiso   1.00
H245   H     0.96777   0.14581   0.29418   0.00000  Uiso   1.00
H246   H     0.50034   0.16630   0.08295   0.00000  Uiso   1.00
H247   H     0.97437   0.14243   0.03688   0.00000  Uiso   1.00
H248   H     0.53243   0.14592   0.03920   0.00000  Uiso   1.00
N249   N     0.50000   0.25000   0.28573   0.00000  Uiso   1.00
N250   N     0.86434   0.28938   0.12226   0.00000  Uiso   1.00
N251   N     0.95518   0.39628   0.20659   0.00000  Uiso   1.00
N252   N     0.63569   0.21063   0.12229   0.00000  Uiso   1.00
N253   N     0.61433   0.46062   0.12228   0.00000  Uiso   1.00
N254   N     0.79481   0.14630   0.20655   0.00000  Uiso   1.00
N255   N     0.88568   0.03936   0.12230   0.00000  Uiso   1.00
N256   N     0.70519   0.35371   0.20653   0.00000  Uiso   1.00
N257   N     0.88566   0.46062   0.21108   0.00000  Uiso   1.00
N258   N     0.70521   0.14631   0.12685   0.00000  Uiso   1.00
N259   N     0.61431   0.03937   0.21104   0.00000  Uiso   1.00
N260   N     0.50000   0.25000   0.04760   0.00000  Uiso   1.00
N261   N     0.79483   0.35372   0.12674   0.00000  Uiso   1.00
N262   N     0.75000   0.00000   0.28573   0.00000  Uiso   1.00
N263   N     0.75000   0.00000   0.04760   0.00000  Uiso   1.00
N264   N     0.95519   0.10370   0.12678   0.00000  Uiso   1.00
N265   N     0.63568   0.28938   0.21105   0.00000  Uiso   1.00
N266   N     0.54480   0.39629   0.12680   0.00000  Uiso   1.00
N267   N     0.86432   0.21064   0.21104   0.00000  Uiso   1.00
N268   N     0.54479   0.10369   0.20650   0.00000  Uiso   1.00
O269   O     0.54581   0.20419   0.20487   0.00000  Uiso   1.00
O270   O     0.70420   0.04581   0.12846   0.00000  Uiso   1.00
O271   O     0.70420   0.04581   0.20487   0.00000  Uiso   1.00
O272   O     0.79581   0.45419   0.12846   0.00000  Uiso   1.00
O273   O     0.70420   0.45419   0.12846   0.00000  Uiso   1.00
O274   O     0.79581   0.04581   0.20487   0.00000  Uiso   1.00
O275   O     0.79581   0.04581   0.12846   0.00000  Uiso   1.00
O276   O     0.70420   0.45419   0.20487   0.00000  Uiso   1.00
O277   O     0.95420   0.29581   0.12846   0.00000  Uiso   1.00
O278   O     0.95420   0.29581   0.20487   0.00000  Uiso   1.00
O279   O     0.54581   0.20419   0.12846   0.00000  Uiso   1.00
O280   O     0.95420   0.20419   0.12846   0.00000  Uiso   1.00
O281   O     0.54581   0.29581   0.20487   0.00000  Uiso   1.00
O282   O     0.54581   0.29581   0.12846   0.00000  Uiso   1.00
O283   O     0.95420   0.20419   0.20487   0.00000  Uiso   1.00
O284   O     0.79581   0.45419   0.20487   0.00000  Uiso   1.00
Zn285  Zn    0.50000   0.25000   0.21771   0.00000  Uiso   1.00
Zn286  Zn    0.50000   0.25000   0.11563   0.00000  Uiso   1.00
Zn287  Zn    0.75000   0.00000   0.21771   0.00000  Uiso   1.00
Zn288  Zn    0.75000   0.00000   0.11563   0.00000  Uiso   1.00
C289   C     0.05927   0.68970   0.16663   0.00000  Uiso   1.00
C290   C     0.49965   0.70959   0.30952   0.00000  Uiso   1.00
C291   C     0.00039   0.70959   0.02380   0.00000  Uiso   1.00
C292   C     0.00035   0.79041   0.30953   0.00000  Uiso   1.00
C293   C     0.25036   0.54041   0.02381   0.00000  Uiso   1.00
C294   C     0.25038   0.95959   0.30952   0.00000  Uiso   1.00
C295   C     0.24964   0.95959   0.02380   0.00000  Uiso   1.00
C296   C     0.24963   0.54041   0.30953   0.00000  Uiso   1.00
C297   C     0.41414   0.61446   0.14557   0.00000  Uiso   1.00
C298   C     0.13096   0.83260   0.18852   0.00000  Uiso   1.00
C299   C     0.08586   0.88554   0.14558   0.00000  Uiso   1.00
C300   C     0.44073   0.81030   0.16664   0.00000  Uiso   1.00
C301   C     0.36903   0.66742   0.18852   0.00000  Uiso   1.00
C302   C     0.08585   0.61445   0.18774   0.00000  Uiso   1.00
C303   C     0.36905   0.83260   0.14480   0.00000  Uiso   1.00
C304   C     0.41413   0.88553   0.18778   0.00000  Uiso   1.00
C305   C     0.13097   0.66740   0.14481   0.00000  Uiso   1.00
C306   C     0.11904   0.91741   0.14481   0.00000  Uiso   1.00
C307   C     0.33586   0.63554   0.18776   0.00000  Uiso   1.00
C308   C     0.38096   0.58259   0.14481   0.00000  Uiso   1.00
C309   C     0.16414   0.86447   0.18776   0.00000  Uiso   1.00
C310   C     0.38096   0.91740   0.18853   0.00000  Uiso   1.00
C311   C     0.44073   0.68970   0.16670   0.00000  Uiso   1.00
C312   C     0.16415   0.63554   0.14559   0.00000  Uiso   1.00
C313   C     0.11903   0.58259   0.18851   0.00000  Uiso   1.00
C314   C     0.33587   0.86447   0.14556   0.00000  Uiso   1.00
C315   C     0.09256   0.84339   0.16689   0.00000  Uiso   1.00
C316   C     0.40744   0.65661   0.16688   0.00000  Uiso   1.00
C317   C     0.40744   0.84339   0.16645   0.00000  Uiso   1.00
C318   C     0.09255   0.65660   0.16644   0.00000  Uiso   1.00
C319   C     0.34256   0.59340   0.16645   0.00000  Uiso   1.00
C320   C     0.15744   0.90661   0.16645   0.00000  Uiso   1.00
C321   C     0.15744   0.59339   0.16689   0.00000  Uiso   1.00
C322   C     0.05927   0.81030   0.16670   0.00000  Uiso   1.00
C323   C     0.34256   0.90661   0.16688   0.00000  Uiso   1.00
C324   C     0.49805   0.83613   0.04719   0.00000  Uiso   1.00
C325   C     0.49813   0.66387   0.28615   0.00000  Uiso   1.00
C326   C     0.00199   0.66387   0.04717   0.00000  Uiso   1.00
C327   C     0.00188   0.83613   0.28616   0.00000  Uiso   1.00
C328   C     0.25191   0.58613   0.04719   0.00000  Uiso   1.00
C329   C     0.25196   0.91387   0.28614   0.00000  Uiso   1.00
C330   C     0.24809   0.91387   0.04717   0.00000  Uiso   1.00
C331   C     0.24808   0.58613   0.28617   0.00000  Uiso   1.00
C332   C     0.30927   0.93970   0.16670   0.00000  Uiso   1.00
C333   C     0.19073   0.56030   0.16670   0.00000  Uiso   1.00
C334   C     0.19073   0.93970   0.16663   0.00000  Uiso   1.00
C335   C     0.30927   0.56030   0.16663   0.00000  Uiso   1.00
C336   C     0.49962   0.79041   0.02381   0.00000  Uiso   1.00
H337   H     0.49966   0.83370   0.08297   0.00000  Uiso   1.00
H338   H     0.00033   0.83370   0.25038   0.00000  Uiso   1.00
H339   H     0.47417   0.85747   0.29640   0.00000  Uiso   1.00
H340   H     0.03224   0.85419   0.29419   0.00000  Uiso   1.00
H341   H     0.25034   0.58370   0.08297   0.00000  Uiso   1.00
H342   H     0.28229   0.60416   0.03917   0.00000  Uiso   1.00
H343   H     0.22423   0.60750   0.03695   0.00000  Uiso   1.00
H344   H     0.25033   0.91630   0.25037   0.00000  Uiso   1.00
H345   H     0.28237   0.89590   0.29411   0.00000  Uiso   1.00
H346   H     0.22433   0.89246   0.29642   0.00000  Uiso   1.00
H347   H     0.24967   0.91630   0.08295   0.00000  Uiso   1.00
H348   H     0.02571   0.85753   0.03692   0.00000  Uiso   1.00
H349   H     0.21771   0.89584   0.03916   0.00000  Uiso   1.00
H350   H     0.27577   0.89251   0.03692   0.00000  Uiso   1.00
H351   H     0.24966   0.58370   0.25038   0.00000  Uiso   1.00
H352   H     0.21770   0.60416   0.29419   0.00000  Uiso   1.00
H353   H     0.27577   0.60750   0.29641   0.00000  Uiso   1.00
H354   H     0.45081   0.59401   0.09377   0.00000  Uiso   1.00
H355   H     0.46794   0.57566   0.14387   0.00000  Uiso   1.00
H356   H     0.16265   0.77239   0.19876   0.00000  Uiso   1.00
H357   H     0.14047   0.79584   0.24477   0.00000  Uiso   1.00
H358   H     0.04918   0.90600   0.09380   0.00000  Uiso   1.00
H359   H     0.46765   0.85413   0.03920   0.00000  Uiso   1.00
H360   H     0.03206   0.92434   0.14391   0.00000  Uiso   1.00
H361   H     0.33735   0.72763   0.19873   0.00000  Uiso   1.00
H362   H     0.35951   0.70420   0.24476   0.00000  Uiso   1.00
H363   H     0.04915   0.59399   0.23951   0.00000  Uiso   1.00
H364   H     0.03206   0.57564   0.18939   0.00000  Uiso   1.00
H365   H     0.33736   0.77239   0.13453   0.00000  Uiso   1.00
H366   H     0.35956   0.79584   0.08853   0.00000  Uiso   1.00
H367   H     0.45077   0.90598   0.23960   0.00000  Uiso   1.00
H368   H     0.46794   0.92434   0.18951   0.00000  Uiso   1.00
H369   H     0.16265   0.72762   0.13460   0.00000  Uiso   1.00
H370   H     0.49967   0.66630   0.25037   0.00000  Uiso   1.00
H371   H     0.14050   0.70417   0.08857   0.00000  Uiso   1.00
H372   H     0.08735   0.97761   0.13456   0.00000  Uiso   1.00
H373   H     0.10954   0.95416   0.08856   0.00000  Uiso   1.00
H374   H     0.29919   0.65599   0.23956   0.00000  Uiso   1.00
H375   H     0.28206   0.67436   0.18946   0.00000  Uiso   1.00
H376   H     0.41265   0.52237   0.13460   0.00000  Uiso   1.00
H377   H     0.39049   0.54579   0.08857   0.00000  Uiso   1.00
H378   H     0.20082   0.84400   0.23954   0.00000  Uiso   1.00
H379   H     0.21794   0.82567   0.18942   0.00000  Uiso   1.00
H380   H     0.41264   0.97761   0.19881   0.00000  Uiso   1.00
H381   H     0.02584   0.64253   0.29637   0.00000  Uiso   1.00
H382   H     0.39043   0.95416   0.24480   0.00000  Uiso   1.00
H383   H     0.20087   0.65604   0.09386   0.00000  Uiso   1.00
H384   H     0.21794   0.67433   0.14400   0.00000  Uiso   1.00
H385   H     0.08735   0.52237   0.19873   0.00000  Uiso   1.00
H386   H     0.10950   0.54582   0.24476   0.00000  Uiso   1.00
H387   H     0.29923   0.84404   0.09373   0.00000  Uiso   1.00
H388   H     0.28206   0.82566   0.14382   0.00000  Uiso   1.00
H389   H     0.46777   0.64581   0.29418   0.00000  Uiso   1.00
H390   H     0.00034   0.66630   0.08295   0.00000  Uiso   1.00
H391   H     0.47437   0.64243   0.03688   0.00000  Uiso   1.00
H392   H     0.03243   0.64592   0.03920   0.00000  Uiso   1.00
N393   N     0.00000   0.75000   0.28573   0.00000  Uiso   1.00
N394   N     0.36434   0.78938   0.12226   0.00000  Uiso   1.00
N395   N     0.45518   0.89628   0.20659   0.00000  Uiso   1.00
N396   N     0.13569   0.71063   0.12229   0.00000  Uiso   1.00
N397   N     0.11433   0.96062   0.12228   0.00000  Uiso   1.00
N398   N     0.29481   0.64630   0.20655   0.00000  Uiso   1.00
N399   N     0.38568   0.53936   0.12230   0.00000  Uiso   1.00
N400   N     0.20519   0.85371   0.20653   0.00000  Uiso   1.00
N401   N     0.38566   0.96062   0.21108   0.00000  Uiso   1.00
N402   N     0.20521   0.64631   0.12685   0.00000  Uiso   1.00
N403   N     0.11431   0.53937   0.21104   0.00000  Uiso   1.00
N404   N     0.00000   0.75000   0.04760   0.00000  Uiso   1.00
N405   N     0.29483   0.85372   0.12674   0.00000  Uiso   1.00
N406   N     0.25000   0.50000   0.28573   0.00000  Uiso   1.00
N407   N     0.25000   0.50000   0.04760   0.00000  Uiso   1.00
N408   N     0.45519   0.60370   0.12678   0.00000  Uiso   1.00
N409   N     0.13568   0.78938   0.21105   0.00000  Uiso   1.00
N410   N     0.04480   0.89629   0.12680   0.00000  Uiso   1.00
N411   N     0.36432   0.71064   0.21104   0.00000  Uiso   1.00
N412   N     0.04479   0.60369   0.20650   0.00000  Uiso   1.00
O413   O     0.04581   0.70419   0.20487   0.00000  Uiso   1.00
O414   O     0.20420   0.54581   0.12846   0.00000  Uiso   1.00
O415   O     0.20420   0.54581   0.20487   0.00000  Uiso   1.00
O416   O     0.29581   0.95419   0.12846   0.00000  Uiso   1.00
O417   O     0.20420   0.95419   0.12846   0.00000  Uiso   1.00
O418   O     0.29581   0.54581   0.20487   0.00000  Uiso   1.00
O419   O     0.29581   0.54581   0.12846   0.00000  Uiso   1.00
O420   O     0.20420   0.95419   0.20487   0.00000  Uiso   1.00
O421   O     0.45420   0.79581   0.12846   0.00000  Uiso   1.00
O422   O     0.45420   0.79581   0.20487   0.00000  Uiso   1.00
O423   O     0.04581   0.70419   0.12846   0.00000  Uiso   1.00
O424   O     0.45420   0.70419   0.12846   0.00000  Uiso   1.00
O425   O     0.04581   0.79581   0.20487   0.00000  Uiso   1.00
O426   O     0.04581   0.79581   0.12846   0.00000  Uiso   1.00
O427   O     0.45420   0.70419   0.20487   0.00000  Uiso   1.00
O428   O     0.29581   0.95419   0.20487   0.00000  Uiso   1.00
Zn429  Zn    0.00000   0.75000   0.21771   0.00000  Uiso   1.00
Zn430  Zn    0.00000   0.75000   0.11563   0.00000  Uiso   1.00
Zn431  Zn    0.25000   0.50000   0.21771   0.00000  Uiso   1.00
Zn432  Zn    0.25000   0.50000   0.11563   0.00000  Uiso   1.00
C433   C     0.55927   0.68970   0.16663   0.00000  Uiso   1.00
C434   C     0.99965   0.70959   0.30952   0.00000  Uiso   1.00
C435   C     0.50039   0.70959   0.02380   0.00000  Uiso   1.00
C436   C     0.50035   0.79041   0.30953   0.00000  Uiso   1.00
C437   C     0.75036   0.54041   0.02381   0.00000  Uiso   1.00
C438   C     0.75038   0.95959   0.30952   0.00000  Uiso   1.00
C439   C     0.74964   0.95959   0.02380   0.00000  Uiso   1.00
C440   C     0.74963   0.54041   0.30953   0.00000  Uiso   1.00
C441   C     0.91414   0.61446   0.14557   0.00000  Uiso   1.00
C442   C     0.63096   0.83260   0.18852   0.00000  Uiso   1.00
C443   C     0.58586   0.88554   0.14558   0.00000  Uiso   1.00
C444   C     0.94073   0.81030   0.16664   0.00000  Uiso   1.00
C445   C     0.86903   0.66742   0.18852   0.00000  Uiso   1.00
C446   C     0.58585   0.61445   0.18774   0.00000  Uiso   1.00
C447   C     0.86905   0.83260   0.14480   0.00000  Uiso   1.00
C448   C     0.91413   0.88553   0.18778   0.00000  Uiso   1.00
C449   C     0.63097   0.66740   0.14481   0.00000  Uiso   1.00
C450   C     0.61904   0.91741   0.14481   0.00000  Uiso   1.00
C451   C     0.83586   0.63554   0.18776   0.00000  Uiso   1.00
C452   C     0.88096   0.58259   0.14481   0.00000  Uiso   1.00
C453   C     0.66414   0.86447   0.18776   0.00000  Uiso   1.00
C454   C     0.88096   0.91740   0.18853   0.00000  Uiso   1.00
C455   C     0.94073   0.68970   0.16670   0.00000  Uiso   1.00
C456   C     0.66415   0.63554   0.14559   0.00000  Uiso   1.00
C457   C     0.61903   0.58259   0.18851   0.00000  Uiso   1.00
C458   C     0.83587   0.86447   0.14556   0.00000  Uiso   1.00
C459   C     0.59256   0.84339   0.16689   0.00000  Uiso   1.00
C460   C     0.90744   0.65661   0.16688   0.00000  Uiso   1.00
C461   C     0.90744   0.84339   0.16645   0.00000  Uiso   1.00
C462   C     0.59255   0.65660   0.16644   0.00000  Uiso   1.00
C463   C     0.84256   0.59340   0.16645   0.00000  Uiso   1.00
C464   C     0.65744   0.90661   0.16645   0.00000  Uiso   1.00
C465   C     0.65744   0.59339   0.16689   0.00000  Uiso   1.00
C466   C     0.55927   0.81030   0.16670   0.00000  Uiso   1.00
C467   C     0.84256   0.90661   0.16688   0.00000  Uiso   1.00
C468   C     0.99805   0.83613   0.04719   0.00000  Uiso   1.00
C469   C     0.99813   0.66387   0.28615   0.00000  Uiso   1.00
C470   C     0.50199   0.66387   0.04717   0.00000  Uiso   1.00
C471   C     0.50188   0.83613   0.28616   0.00000  Uiso   1.00
C472   C     0.75191   0.58613   0.04719   0.00000  Uiso   1.00
C473   C     0.75196   0.91387   0.28614   0.00000  Uiso   1.00
C474   C     0.74809   0.91387   0.04717   0.00000  Uiso   1.00
C475   C     0.74808   0.58613   0.28617   0.00000  Uiso   1.00
C476   C     0.80927   0.93970   0.16670   0.00000  Uiso   1.00
C477   C     0.69073   0.56030   0.16670   0.00000  Uiso   1.00
C478   C     0.69073   0.93970   0.16663   0.00000  Uiso   1.00
C479   C     0.80927   0.56030   0.16663   0.00000  Uiso   1.00
C480   C     0.99962   0.79041   0.02381   0.00000  Uiso   1.00
H481   H     0.99966   0.83370   0.08297   0.00000  Uiso   1.00
H482   H     0.50033   0.83370   0.25038   0.00000  Uiso   1.00
H483   H     0.97417   0.85747   0.29640   0.00000  Uiso   1.00
H484   H     0.53224   0.85419   0.29419   0.00000  Uiso   1.00
H485   H     0.75034   0.58370   0.08297   0.00000  Uiso   1.00
H486   H     0.78229   0.60416   0.03917   0.00000  Uiso   1.00
H487   H     0.72423   0.60750   0.03695   0.00000  Uiso   1.00
H488   H     0.75033   0.91630   0.25037   0.00000  Uiso   1.00
H489   H     0.78237   0.89590   0.29411   0.00000  Uiso   1.00
H490   H     0.72433   0.89246   0.29642   0.00000  Uiso   1.00
H491   H     0.74967   0.91630   0.08295   0.00000  Uiso   1.00
H492   H     0.52571   0.85753   0.03692   0.00000  Uiso   1.00
H493   H     0.71771   0.89584   0.03916   0.00000  Uiso   1.00
H494   H     0.77577   0.89251   0.03692   0.00000  Uiso   1.00
H495   H     0.74966   0.58370   0.25038   0.00000  Uiso   1.00
H496   H     0.71770   0.60416   0.29419   0.00000  Uiso   1.00
H497   H     0.77577   0.60750   0.29641   0.00000  Uiso   1.00
H498   H     0.95081   0.59401   0.09377   0.00000  Uiso   1.00
H499   H     0.96794   0.57566   0.14387   0.00000  Uiso   1.00
H500   H     0.66265   0.77239   0.19876   0.00000  Uiso   1.00
H501   H     0.64047   0.79584   0.24477   0.00000  Uiso   1.00
H502   H     0.54918   0.90600   0.09380   0.00000  Uiso   1.00
H503   H     0.96765   0.85413   0.03920   0.00000  Uiso   1.00
H504   H     0.53206   0.92434   0.14391   0.00000  Uiso   1.00
H505   H     0.83735   0.72763   0.19873   0.00000  Uiso   1.00
H506   H     0.85951   0.70420   0.24476   0.00000  Uiso   1.00
H507   H     0.54915   0.59399   0.23951   0.00000  Uiso   1.00
H508   H     0.53206   0.57564   0.18939   0.00000  Uiso   1.00
H509   H     0.83736   0.77239   0.13453   0.00000  Uiso   1.00
H510   H     0.85956   0.79584   0.08853   0.00000  Uiso   1.00
H511   H     0.95077   0.90598   0.23960   0.00000  Uiso   1.00
H512   H     0.96794   0.92434   0.18951   0.00000  Uiso   1.00
H513   H     0.66265   0.72762   0.13460   0.00000  Uiso   1.00
H514   H     0.99967   0.66630   0.25037   0.00000  Uiso   1.00
H515   H     0.64050   0.70417   0.08857   0.00000  Uiso   1.00
H516   H     0.58735   0.97761   0.13456   0.00000  Uiso   1.00
H517   H     0.60954   0.95416   0.08856   0.00000  Uiso   1.00
H518   H     0.79919   0.65599   0.23956   0.00000  Uiso   1.00
H519   H     0.78206   0.67436   0.18946   0.00000  Uiso   1.00
H520   H     0.91265   0.52237   0.13460   0.00000  Uiso   1.00
H521   H     0.89049   0.54579   0.08857   0.00000  Uiso   1.00
H522   H     0.70082   0.84400   0.23954   0.00000  Uiso   1.00
H523   H     0.71794   0.82567   0.18942   0.00000  Uiso   1.00
H524   H     0.91264   0.97761   0.19881   0.00000  Uiso   1.00
H525   H     0.52584   0.64253   0.29637   0.00000  Uiso   1.00
H526   H     0.89043   0.95416   0.24480   0.00000  Uiso   1.00
H527   H     0.70087   0.65604   0.09386   0.00000  Uiso   1.00
H528   H     0.71794   0.67433   0.14400   0.00000  Uiso   1.00
H529   H     0.58735   0.52237   0.19873   0.00000  Uiso   1.00
H530   H     0.60950   0.54582   0.24476   0.00000  Uiso   1.00
H531   H     0.79923   0.84404   0.09373   0.00000  Uiso   1.00
H532   H     0.78206   0.82566   0.14382   0.00000  Uiso   1.00
H533   H     0.96777   0.64581   0.29418   0.00000  Uiso   1.00
H534   H     0.50034   0.66630   0.08295   0.00000  Uiso   1.00
H535   H     0.97437   0.64243   0.03688   0.00000  Uiso   1.00
H536   H     0.53243   0.64592   0.03920   0.00000  Uiso   1.00
N537   N     0.50000   0.75000   0.28573   0.00000  Uiso   1.00
N538   N     0.86434   0.78938   0.12226   0.00000  Uiso   1.00
N539   N     0.95518   0.89628   0.20659   0.00000  Uiso   1.00
N540   N     0.63569   0.71063   0.12229   0.00000  Uiso   1.00
N541   N     0.61433   0.96062   0.12228   0.00000  Uiso   1.00
N542   N     0.79481   0.64630   0.20655   0.00000  Uiso   1.00
N543   N     0.88568   0.53936   0.12230   0.00000  Uiso   1.00
N544   N     0.70519   0.85371   0.20653   0.00000  Uiso   1.00
N545   N     0.88566   0.96062   0.21108   0.00000  Uiso   1.00
N546   N     0.70521   0.64631   0.12685   0.00000  Uiso   1.00
N547   N     0.61431   0.53937   0.21104   0.00000  Uiso   1.00
N548   N     0.50000   0.75000   0.04760   0.00000  Uiso   1.00
N549   N     0.79483   0.85372   0.12674   0.00000  Uiso   1.00
N550   N     0.75000   0.50000   0.28573   0.00000  Uiso   1.00
N551   N     0.75000   0.50000   0.04760   0.00000  Uiso   1.00
N552   N     0.95519   0.60370   0.12678   0.00000  Uiso   1.00
N553   N     0.63568   0.78938   0.21105   0.00000  Uiso   1.00
N554   N     0.54480   0.89629   0.12680   0.00000  Uiso   1.00
N555   N     0.86432   0.71064   0.21104   0.00000  Uiso   1.00
N556   N     0.54479   0.60369   0.20650   0.00000  Uiso   1.00
O557   O     0.54581   0.70419   0.20487   0.00000  Uiso   1.00
O558   O     0.70420   0.54581   0.12846   0.00000  Uiso   1.00
O559   O     0.70420   0.54581   0.20487   0.00000  Uiso   1.00
O560   O     0.79581   0.95419   0.12846   0.00000  Uiso   1.00
O561   O     0.70420   0.95419   0.12846   0.00000  Uiso   1.00
O562   O     0.79581   0.54581   0.20487   0.00000  Uiso   1.00
O563   O     0.79581   0.54581   0.12846   0.00000  Uiso   1.00
O564   O     0.70420   0.95419   0.20487   0.00000  Uiso   1.00
O565   O     0.95420   0.79581   0.12846   0.00000  Uiso   1.00
O566   O     0.95420   0.79581   0.20487   0.00000  Uiso   1.00
O567   O     0.54581   0.70419   0.12846   0.00000  Uiso   1.00
O568   O     0.95420   0.70419   0.12846   0.00000  Uiso   1.00
O569   O     0.54581   0.79581   0.20487   0.00000  Uiso   1.00
O570   O     0.54581   0.79581   0.12846   0.00000  Uiso   1.00
O571   O     0.95420   0.70419   0.20487   0.00000  Uiso   1.00
O572   O     0.79581   0.95419   0.20487   0.00000  Uiso   1.00
Zn573  Zn    0.50000   0.75000   0.21771   0.00000  Uiso   1.00
Zn574  Zn    0.50000   0.75000   0.11563   0.00000  Uiso   1.00
Zn575  Zn    0.75000   0.50000   0.21771   0.00000  Uiso   1.00
Zn576  Zn    0.75000   0.50000   0.11563   0.00000  Uiso   1.00
C577   C     0.05927   0.18970   0.49996   0.00000  Uiso   1.00
C578   C     0.49965   0.20959   0.64286   0.00000  Uiso   1.00
C579   C     0.00039   0.20959   0.35714   0.00000  Uiso   1.00
C580   C     0.00035   0.29041   0.64286   0.00000  Uiso   1.00
C581   C     0.25036   0.04041   0.35714   0.00000  Uiso   1.00
C582   C     0.25038   0.45959   0.64286   0.00000  Uiso   1.00
C583   C     0.24964   0.45959   0.35713   0.00000  Uiso   1.00
C584   C     0.24963   0.04041   0.64287   0.00000  Uiso   1.00
C585   C     0.41414   0.11446   0.47891   0.00000  Uiso   1.00
C586   C     0.13096   0.33260   0.52186   0.00000  Uiso   1.00
C587   C     0.08586   0.38554   0.47891   0.00000  Uiso   1.00
C588   C     0.44073   0.31030   0.49997   0.00000  Uiso   1.00
C589   C     0.36903   0.16742   0.52185   0.00000  Uiso   1.00
C590   C     0.08585   0.11445   0.52107   0.00000  Uiso   1.00
C591   C     0.36905   0.33260   0.47813   0.00000  Uiso   1.00
C592   C     0.41413   0.38553   0.52111   0.00000  Uiso   1.00
C593   C     0.13097   0.16740   0.47815   0.00000  Uiso   1.00
C594   C     0.11904   0.41741   0.47814   0.00000  Uiso   1.00
C595   C     0.33586   0.13554   0.52109   0.00000  Uiso   1.00
C596   C     0.38096   0.08259   0.47815   0.00000  Uiso   1.00
C597   C     0.16414   0.36447   0.52109   0.00000  Uiso   1.00
C598   C     0.38096   0.41740   0.52187   0.00000  Uiso   1.00
C599   C     0.44073   0.18970   0.50003   0.00000  Uiso   1.00
C600   C     0.16415   0.13554   0.47892   0.00000  Uiso   1.00
C601   C     0.11903   0.08259   0.52184   0.00000  Uiso   1.00
C602   C     0.33587   0.36447   0.47889   0.00000  Uiso   1.00
C603   C     0.09256   0.34339   0.50022   0.00000  Uiso   1.00
C604   C     0.40744   0.15661   0.50022   0.00000  Uiso   1.00
C605   C     0.40744   0.34339   0.49979   0.00000  Uiso   1.00
C606   C     0.09255   0.15660   0.49977   0.00000  Uiso   1.00
C607   C     0.34256   0.09340   0.49978   0.00000  Uiso   1.00
C608   C     0.15744   0.40661   0.49978   0.00000  Uiso   1.00
C609   C     0.15744   0.09339   0.50022   0.00000  Uiso   1.00
C610   C     0.05927   0.31030   0.50003   0.00000  Uiso   1.00
C611   C     0.34256   0.40661   0.50021   0.00000  Uiso   1.00
C612   C     0.49805   0.33613   0.38052   0.00000  Uiso   1.00
C613   C     0.49813   0.16387   0.61948   0.00000  Uiso   1.00
C614   C     0.00199   0.16387   0.38050   0.00000  Uiso   1.00
C615   C     0.00188   0.33613   0.61950   0.00000  Uiso   1.00
C616   C     0.25191   0.08613   0.38052   0.00000  Uiso   1.00
C617   C     0.25196   0.41387   0.61948   0.00000  Uiso   1.00
C618   C     0.24809   0.41387   0.38050   0.00000  Uiso   1.00
C619   C     0.24808   0.08613   0.61950   0.00000  Uiso   1.00
C620   C     0.30927   0.43970   0.50003   0.00000  Uiso   1.00
C621   C     0.19073   0.06030   0.50004   0.00000  Uiso   1.00
C622   C     0.19073   0.43970   0.49997   0.00000  Uiso   1.00
C623   C     0.30927   0.06030   0.49997   0.00000  Uiso   1.00
C624   C     0.49962   0.29041   0.35714   0.00000  Uiso   1.00
H625   H     0.49966   0.33370   0.41630   0.00000  Uiso   1.00
H626   H     0.00033   0.33370   0.58372   0.00000  Uiso   1.00
H627   H     0.47417   0.35747   0.62974   0.00000  Uiso   1.00
H628   H     0.03224   0.35419   0.62753   0.00000  Uiso   1.00
H629   H     0.25034   0.08370   0.41630   0.00000  Uiso   1.00
H630   H     0.28229   0.10416   0.37251   0.00000  Uiso   1.00
H631   H     0.22423   0.10750   0.37029   0.00000  Uiso   1.00
H632   H     0.25033   0.41630   0.58370   0.00000  Uiso   1.00
H633   H     0.28237   0.39590   0.62745   0.00000  Uiso   1.00
H634   H     0.22433   0.39246   0.62975   0.00000  Uiso   1.00
H635   H     0.24967   0.41630   0.41628   0.00000  Uiso   1.00
H636   H     0.02571   0.35753   0.37025   0.00000  Uiso   1.00
H637   H     0.21771   0.39584   0.37249   0.00000  Uiso   1.00
H638   H     0.27577   0.39251   0.37025   0.00000  Uiso   1.00
H639   H     0.24966   0.08370   0.58372   0.00000  Uiso   1.00
H640   H     0.21770   0.10416   0.62752   0.00000  Uiso   1.00
H641   H     0.27577   0.10750   0.62975   0.00000  Uiso   1.00
H642   H     0.45081   0.09401   0.42710   0.00000  Uiso   1.00
H643   H     0.46794   0.07566   0.47720   0.00000  Uiso   1.00
H644   H     0.16265   0.27239   0.53209   0.00000  Uiso   1.00
H645   H     0.14047   0.29584   0.57811   0.00000  Uiso   1.00
H646   H     0.04918   0.40600   0.42713   0.00000  Uiso   1.00
H647   H     0.46765   0.35413   0.37253   0.00000  Uiso   1.00
H648   H     0.03206   0.42434   0.47725   0.00000  Uiso   1.00
H649   H     0.33735   0.22763   0.53206   0.00000  Uiso   1.00
H650   H     0.35951   0.20420   0.57809   0.00000  Uiso   1.00
H651   H     0.04915   0.09399   0.57284   0.00000  Uiso   1.00
H652   H     0.03206   0.07564   0.52272   0.00000  Uiso   1.00
H653   H     0.33736   0.27239   0.46787   0.00000  Uiso   1.00
H654   H     0.35956   0.29584   0.42187   0.00000  Uiso   1.00
H655   H     0.45077   0.40598   0.57293   0.00000  Uiso   1.00
H656   H     0.46794   0.42434   0.52284   0.00000  Uiso   1.00
H657   H     0.16265   0.22762   0.46794   0.00000  Uiso   1.00
H658   H     0.49967   0.16630   0.58370   0.00000  Uiso   1.00
H659   H     0.14050   0.20417   0.42191   0.00000  Uiso   1.00
H660   H     0.08735   0.47761   0.46789   0.00000  Uiso   1.00
H661   H     0.10954   0.45416   0.42189   0.00000  Uiso   1.00
H662   H     0.29919   0.15599   0.57289   0.00000  Uiso   1.00
H663   H     0.28206   0.17436   0.52279   0.00000  Uiso   1.00
H664   H     0.41265   0.02237   0.46794   0.00000  Uiso   1.00
H665   H     0.39049   0.04579   0.42191   0.00000  Uiso   1.00
H666   H     0.20082   0.34400   0.57287   0.00000  Uiso   1.00
H667   H     0.21794   0.32567   0.52275   0.00000  Uiso   1.00
H668   H     0.41264   0.47761   0.53215   0.00000  Uiso   1.00
H669   H     0.02584   0.14253   0.62971   0.00000  Uiso   1.00
H670   H     0.39043   0.45416   0.57814   0.00000  Uiso   1.00
H671   H     0.20087   0.15604   0.42719   0.00000  Uiso   1.00
H672   H     0.21794   0.17433   0.47733   0.00000  Uiso   1.00
H673   H     0.08735   0.02237   0.53207   0.00000  Uiso   1.00
H674   H     0.10950   0.04582   0.57809   0.00000  Uiso   1.00
H675   H     0.29923   0.34404   0.42706   0.00000  Uiso   1.00
H676   H     0.28206   0.32566   0.47715   0.00000  Uiso   1.00
H677   H     0.46777   0.14581   0.62752   0.00000  Uiso   1.00
H678   H     0.00034   0.16630   0.41628   0.00000  Uiso   1.00
H679   H     0.47437   0.14243   0.37021   0.00000  Uiso   1.00
H680   H     0.03243   0.14592   0.37253   0.00000  Uiso   1.00
N681   N     0.00000   0.25000   0.61907   0.00000  Uiso   1.00
N682   N     0.36434   0.28938   0.45559   0.00000  Uiso   1.00
N683   N     0.45518   0.39628   0.53992   0.00000  Uiso   1.00
N684   N     0.13569   0.21063   0.45563   0.00000  Uiso   1.00
N685   N     0.11433   0.46062   0.45561   0.00000  Uiso   1.00
N686   N     0.29481   0.14630   0.53988   0.00000  Uiso   1.00
N687   N     0.38568   0.03936   0.45563   0.00000  Uiso   1.00
N688   N     0.20519   0.35371   0.53987   0.00000  Uiso   1.00
N689   N     0.38566   0.46062   0.54441   0.00000  Uiso   1.00
N690   N     0.20521   0.14631   0.46019   0.00000  Uiso   1.00
N691   N     0.11431   0.03937   0.54437   0.00000  Uiso   1.00
N692   N     0.00000   0.25000   0.38093   0.00000  Uiso   1.00
N693   N     0.29483   0.35372   0.46008   0.00000  Uiso   1.00
N694   N     0.25000   0.00000   0.61907   0.00000  Uiso   1.00
N695   N     0.25000   0.00000   0.38093   0.00000  Uiso   1.00
N696   N     0.45519   0.10370   0.46011   0.00000  Uiso   1.00
N697   N     0.13568   0.28938   0.54439   0.00000  Uiso   1.00
N698   N     0.04480   0.39629   0.46014   0.00000  Uiso   1.00
N699   N     0.36432   0.21064   0.54437   0.00000  Uiso   1.00
N700   N     0.04479   0.10369   0.53983   0.00000  Uiso   1.00
O701   O     0.04581   0.20419   0.53821   0.00000  Uiso   1.00
O702   O     0.20420   0.04581   0.46179   0.00000  Uiso   1.00
O703   O     0.20420   0.04581   0.53821   0.00000  Uiso   1.00
O704   O     0.29581   0.45419   0.46179   0.00000  Uiso   1.00
O705   O     0.20420   0.45419   0.46179   0.00000  Uiso   1.00
O706   O     0.29581   0.04581   0.53821   0.00000  Uiso   1.00
O707   O     0.29581   0.04581   0.46179   0.00000  Uiso   1.00
O708   O     0.20420   0.45419   0.53821   0.00000  Uiso   1.00
O709   O     0.45420   0.29581   0.46179   0.00000  Uiso   1.00
O710   O     0.45420   0.29581   0.53821   0.00000  Uiso   1.00
O711   O     0.04581   0.20419   0.46179   0.00000  Uiso   1.00
O712   O     0.45420   0.20419   0.46179   0.00000  Uiso   1.00
O713   O     0.04581   0.29581   0.53821   0.00000  Uiso   1.00
O714   O     0.04581   0.29581   0.46179   0.00000  Uiso   1.00
O715   O     0.45420   0.20419   0.53821   0.00000  Uiso   1.00
O716   O     0.29581   0.45419   0.53821   0.00000  Uiso   1.00
Zn717  Zn    0.00000   0.25000   0.55104   0.00000  Uiso   1.00
Zn718  Zn    0.00000   0.25000   0.44896   0.00000  Uiso   1.00
Zn719  Zn    0.25000   0.00000   0.55104   0.00000  Uiso   1.00
Zn720  Zn    0.25000   0.00000   0.44896   0.00000  Uiso   1.00
C721   C     0.55927   0.18970   0.49996   0.00000  Uiso   1.00
C722   C     0.99965   0.20959   0.64286   0.00000  Uiso   1.00
C723   C     0.50039   0.20959   0.35714   0.00000  Uiso   1.00
C724   C     0.50035   0.29041   0.64286   0.00000  Uiso   1.00
C725   C     0.75036   0.04041   0.35714   0.00000  Uiso   1.00
C726   C     0.75038   0.45959   0.64286   0.00000  Uiso   1.00
C727   C     0.74964   0.45959   0.35713   0.00000  Uiso   1.00
C728   C     0.74963   0.04041   0.64287   0.00000  Uiso   1.00
C729   C     0.91414   0.11446   0.47891   0.00000  Uiso   1.00
C730   C     0.63096   0.33260   0.52186   0.00000  Uiso   1.00
C731   C     0.58586   0.38554   0.47891   0.00000  Uiso   1.00
C732   C     0.94073   0.31030   0.49997   0.00000  Uiso   1.00
C733   C     0.86903   0.16742   0.52185   0.00000  Uiso   1.00
C734   C     0.58585   0.11445   0.52107   0.00000  Uiso   1.00
C735   C     0.86905   0.33260   0.47813   0.00000  Uiso   1.00
C736   C     0.91413   0.38553   0.52111   0.00000  Uiso   1.00
C737   C     0.63097   0.16740   0.47815   0.00000  Uiso   1.00
C738   C     0.61904   0.41741   0.47814   0.00000  Uiso   1.00
C739   C     0.83586   0.13554   0.52109   0.00000  Uiso   1.00
C740   C     0.88096   0.08259   0.47815   0.00000  Uiso   1.00
C741   C     0.66414   0.36447   0.52109   0.00000  Uiso   1.00
C742   C     0.88096   0.41740   0.52187   0.00000  Uiso   1.00
C743   C     0.94073   0.18970   0.50003   0.00000  Uiso   1.00
C744   C     0.66415   0.13554   0.47892   0.00000  Uiso   1.00
C745   C     0.61903   0.08259   0.52184   0.00000  Uiso   1.00
C746   C     0.83587   0.36447   0.47889   0.00000  Uiso   1.00
C747   C     0.59256   0.34339   0.50022   0.00000  Uiso   1.00
C748   C     0.90744   0.15661   0.50022   0.00000  Uiso   1.00
C749   C     0.90744   0.34339   0.49979   0.00000  Uiso   1.00
C750   C     0.59255   0.15660   0.49977   0.00000  Uiso   1.00
C751   C     0.84256   0.09340   0.49978   0.00000  Uiso   1.00
C752   C     0.65744   0.40661   0.49978   0.00000  Uiso   1.00
C753   C     0.65744   0.09339   0.50022   0.00000  Uiso   1.00
C754   C     0.55927   0.31030   0.50003   0.00000  Uiso   1.00
C755   C     0.84256   0.40661   0.50021   0.00000  Uiso   1.00
C756   C     0.99805   0.33613   0.38052   0.00000  Uiso   1.00
C757   C     0.99813   0.16387   0.61948   0.00000  Uiso   1.00
C758   C     0.50199   0.16387   0.38050   0.00000  Uiso   1.00
C759   C     0.50188   0.33613   0.61950   0.00000  Uiso   1.00
C760   C     0.75191   0.08613   0.38052   0.00000  Uiso   1.00
C761   C     0.75196   0.41387   0.61948   0.00000  Uiso   1.00
C762   C     0.74809   0.41387   0.38050   0.00000  Uiso   1.00
C763   C     0.74808   0.08613   0.61950   0.00000  Uiso   1.00
C764   C     0.80927   0.43970   0.50003   0.00000  Uiso   1.00
C765   C     0.69073   0.06030   0.50004   0.00000  Uiso   1.00
C766   C     0.69073   0.43970   0.49997   0.00000  Uiso   1.00
C767   C     0.80927   0.06030   0.49997   0.00000  Uiso   1.00
C768   C     0.99962   0.29041   0.35714   0.00000  Uiso   1.00
H769   H     0.99966   0.33370   0.41630   0.00000  Uiso   1.00
H770   H     0.50033   0.33370   0.58372   0.00000  Uiso   1.00
H771   H     0.97417   0.35747   0.62974   0.00000  Uiso   1.00
H772   H     0.53224   0.35419   0.62753   0.00000  Uiso   1.00
H773   H     0.75034   0.08370   0.41630   0.00000  Uiso   1.00
H774   H     0.78229   0.10416   0.37251   0.00000  Uiso   1.00
H775   H     0.72423   0.10750   0.37029   0.00000  Uiso   1.00
H776   H     0.75033   0.41630   0.58370   0.00000  Uiso   1.00
H777   H     0.78237   0.39590   0.62745   0.00000  Uiso   1.00
H778   H     0.72433   0.39246   0.62975   0.00000  Uiso   1.00
H779   H     0.74967   0.41630   0.41628   0.00000  Uiso   1.00
H780   H     0.52571   0.35753   0.37025   0.00000  Uiso   1.00
H781   H     0.71771   0.39584   0.37249   0.00000  Uiso   1.00
H782   H     0.77577   0.39251   0.37025   0.00000  Uiso   1.00
H783   H     0.74966   0.08370   0.58372   0.00000  Uiso   1.00
H784   H     0.71770   0.10416   0.62752   0.00000  Uiso   1.00
H785   H     0.77577   0.10750   0.62975   0.00000  Uiso   1.00
H786   H     0.95081   0.09401   0.42710   0.00000  Uiso   1.00
H787   H     0.96794   0.07566   0.47720   0.00000  Uiso   1.00
H788   H     0.66265   0.27239   0.53209   0.00000  Uiso   1.00
H789   H     0.64047   0.29584   0.57811   0.00000  Uiso   1.00
H790   H     0.54918   0.40600   0.42713   0.00000  Uiso   1.00
H791   H     0.96765   0.35413   0.37253   0.00000  Uiso   1.00
H792   H     0.53206   0.42434   0.47725   0.00000  Uiso   1.00
H793   H     0.83735   0.22763   0.53206   0.00000  Uiso   1.00
H794   H     0.85951   0.20420   0.57809   0.00000  Uiso   1.00
H795   H     0.54915   0.09399   0.57284   0.00000  Uiso   1.00
H796   H     0.53206   0.07564   0.52272   0.00000  Uiso   1.00
H797   H     0.83736   0.27239   0.46787   0.00000  Uiso   1.00
H798   H     0.85956   0.29584   0.42187   0.00000  Uiso   1.00
H799   H     0.95077   0.40598   0.57293   0.00000  Uiso   1.00
H800   H     0.96794   0.42434   0.52284   0.00000  Uiso   1.00
H801   H     0.66265   0.22762   0.46794   0.00000  Uiso   1.00
H802   H     0.99967   0.16630   0.58370   0.00000  Uiso   1.00
H803   H     0.64050   0.20417   0.42191   0.00000  Uiso   1.00
H804   H     0.58735   0.47761   0.46789   0.00000  Uiso   1.00
H805   H     0.60954   0.45416   0.42189   0.00000  Uiso   1.00
H806   H     0.79919   0.15599   0.57289   0.00000  Uiso   1.00
H807   H     0.78206   0.17436   0.52279   0.00000  Uiso   1.00
H808   H     0.91265   0.02237   0.46794   0.00000  Uiso   1.00
H809   H     0.89049   0.04579   0.42191   0.00000  Uiso   1.00
H810   H     0.70082   0.34400   0.57287   0.00000  Uiso   1.00
H811   H     0.71794   0.32567   0.52275   0.00000  Uiso   1.00
H812   H     0.91264   0.47761   0.53215   0.00000  Uiso   1.00
H813   H     0.52584   0.14253   0.62971   0.00000  Uiso   1.00
H814   H     0.89043   0.45416   0.57814   0.00000  Uiso   1.00
H815   H     0.70087   0.15604   0.42719   0.00000  Uiso   1.00
H816   H     0.71794   0.17433   0.47733   0.00000  Uiso   1.00
H817   H     0.58735   0.02237   0.53207   0.00000  Uiso   1.00
H818   H     0.60950   0.04582   0.57809   0.00000  Uiso   1.00
H819   H     0.79923   0.34404   0.42706   0.00000  Uiso   1.00
H820   H     0.78206   0.32566   0.47715   0.00000  Uiso   1.00
H821   H     0.96777   0.14581   0.62752   0.00000  Uiso   1.00
H822   H     0.50034   0.16630   0.41628   0.00000  Uiso   1.00
H823   H     0.97437   0.14243   0.37021   0.00000  Uiso   1.00
H824   H     0.53243   0.14592   0.37253   0.00000  Uiso   1.00
N825   N     0.50000   0.25000   0.61907   0.00000  Uiso   1.00
N826   N     0.86434   0.28938   0.45559   0.00000  Uiso   1.00
N827   N     0.95518   0.39628   0.53992   0.00000  Uiso   1.00
N828   N     0.63569   0.21063   0.45563   0.00000  Uiso   1.00
N829   N     0.61433   0.46062   0.45561   0.00000  Uiso   1.00
N830   N     0.79481   0.14630   0.53988   0.00000  Uiso   1.00
N831   N     0.88568   0.03936   0.45563   0.00000  Uiso   1.00
N832   N     0.70519   0.35371   0.53987   0.00000  Uiso   1.00
N833   N     0.88566   0.46062   0.54441   0.00000  Uiso   1.00
N834   N     0.70521   0.14631   0.46019   0.00000  Uiso   1.00
N835   N     0.61431   0.03937   0.54437   0.00000  Uiso   1.00
N836   N     0.50000   0.25000   0.38093   0.00000  Uiso   1.00
N837   N     0.79483   0.35372   0.46008   0.00000  Uiso   1.00
N838   N     0.75000   0.00000   0.61907   0.00000  Uiso   1.00
N839   N     0.75000   0.00000   0.38093   0.00000  Uiso   1.00
N840   N     0.95519   0.10370   0.46011   0.00000  Uiso   1.00
N841   N     0.63568   0.28938   0.54439   0.00000  Uiso   1.00
N842   N     0.54480   0.39629   0.46014   0.00000  Uiso   1.00
N843   N     0.86432   0.21064   0.54437   0.00000  Uiso   1.00
N844   N     0.54479   0.10369   0.53983   0.00000  Uiso   1.00
O845   O     0.54581   0.20419   0.53821   0.00000  Uiso   1.00
O846   O     0.70420   0.04581   0.46179   0.00000  Uiso   1.00
O847   O     0.70420   0.04581   0.53821   0.00000  Uiso   1.00
O848   O     0.79581   0.45419   0.46179   0.00000  Uiso   1.00
O849   O     0.70420   0.45419   0.46179   0.00000  Uiso   1.00
O850   O     0.79581   0.04581   0.53821   0.00000  Uiso   1.00
O851   O     0.79581   0.04581   0.46179   0.00000  Uiso   1.00
O852   O     0.70420   0.45419   0.53821   0.00000  Uiso   1.00
O853   O     0.95420   0.29581   0.46179   0.00000  Uiso   1.00
O854   O     0.95420   0.29581   0.53821   0.00000  Uiso   1.00
O855   O     0.54581   0.20419   0.46179   0.00000  Uiso   1.00
O856   O     0.95420   0.20419   0.46179   0.00000  Uiso   1.00
O857   O     0.54581   0.29581   0.53821   0.00000  Uiso   1.00
O858   O     0.54581   0.29581   0.46179   0.00000  Uiso   1.00
O859   O     0.95420   0.20419   0.53821   0.00000  Uiso   1.00
O860   O     0.79581   0.45419   0.53821   0.00000  Uiso   1.00
Zn861  Zn    0.50000   0.25000   0.55104   0.00000  Uiso   1.00
Zn862  Zn    0.50000   0.25000   0.44896   0.00000  Uiso   1.00
Zn863  Zn    0.75000   0.00000   0.55104   0.00000  Uiso   1.00
Zn864  Zn    0.75000   0.00000   0.44896   0.00000  Uiso   1.00
C865   C     0.05927   0.68970   0.49996   0.00000  Uiso   1.00
C866   C     0.49965   0.70959   0.64286   0.00000  Uiso   1.00
C867   C     0.00039   0.70959   0.35714   0.00000  Uiso   1.00
C868   C     0.00035   0.79041   0.64286   0.00000  Uiso   1.00
C869   C     0.25036   0.54041   0.35714   0.00000  Uiso   1.00
C870   C     0.25038   0.95959   0.64286   0.00000  Uiso   1.00
C871   C     0.24964   0.95959   0.35713   0.00000  Uiso   1.00
C872   C     0.24963   0.54041   0.64287   0.00000  Uiso   1.00
C873   C     0.41414   0.61446   0.47891   0.00000  Uiso   1.00
C874   C     0.13096   0.83260   0.52186   0.00000  Uiso   1.00
C875   C     0.08586   0.88554   0.47891   0.00000  Uiso   1.00
C876   C     0.44073   0.81030   0.49997   0.00000  Uiso   1.00
C877   C     0.36903   0.66742   0.52185   0.00000  Uiso   1.00
C878   C     0.08585   0.61445   0.52107   0.00000  Uiso   1.00
C879   C     0.36905   0.83260   0.47813   0.00000  Uiso   1.00
C880   C     0.41413   0.88553   0.52111   0.00000  Uiso   1.00
C881   C     0.13097   0.66740   0.47815   0.00000  Uiso   1.00
C882   C     0.11904   0.91741   0.47814   0.00000  Uiso   1.00
C883   C     0.33586   0.63554   0.52109   0.00000  Uiso   1.00
C884   C     0.38096   0.58259   0.47815   0.00000  Uiso   1.00
C885   C     0.16414   0.86447   0.52109   0.00000  Uiso   1.00
C886   C     0.38096   0.91740   0.52187   0.00000  Uiso   1.00
C887   C     0.44073   0.68970   0.50003   0.00000  Uiso   1.00
C888   C     0.16415   0.63554   0.47892   0.00000  Uiso   1.00
C889   C     0.11903   0.58259   0.52184   0.00000  Uiso   1.00
C890   C     0.33587   0.86447   0.47889   0.00000  Uiso   1.00
C891   C     0.09256   0.84339   0.50022   0.00000  Uiso   1.00
C892   C     0.40744   0.65661   0.50022   0.00000  Uiso   1.00
C893   C     0.40744   0.84339   0.49979   0.00000  Uiso   1.00
C894   C     0.09255   0.65660   0.49977   0.00000  Uiso   1.00
C895   C     0.34256   0.59340   0.49978   0.00000  Uiso   1.00
C896   C     0.15744   0.90661   0.49978   0.00000  Uiso   1.00
C897   C     0.15744   0.59339   0.50022   0.00000  Uiso   1.00
C898   C     0.05927   0.81030   0.50003   0.00000  Uiso   1.00
C899   C     0.34256   0.90661   0.50021   0.00000  Uiso   1.00
C900   C     0.49805   0.83613   0.38052   0.00000  Uiso   1.00
C901   C     0.49813   0.66387   0.61948   0.00000  Uiso   1.00
C902   C     0.00199   0.66387   0.38050   0.00000  Uiso   1.00
C903   C     0.00188   0.83613   0.61950   0.00000  Uiso   1.00
C904   C     0.25191   0.58613   0.38052   0.00000  Uiso   1.00
C905   C     0.25196   0.91387   0.61948   0.00000  Uiso   1.00
C906   C     0.24809   0.91387   0.38050   0.00000  Uiso   1.00
C907   C     0.24808   0.58613   0.61950   0.00000  Uiso   1.00
C908   C     0.30927   0.93970   0.50003   0.00000  Uiso   1.00
C909   C     0.19073   0.56030   0.50004   0.00000  Uiso   1.00
C910   C     0.19073   0.93970   0.49997   0.00000  Uiso   1.00
C911   C     0.30927   0.56030   0.49997   0.00000  Uiso   1.00
C912   C     0.49962   0.79041   0.35714   0.00000  Uiso   1.00
H913   H     0.49966   0.83370   0.41630   0.00000  Uiso   1.00
H914   H     0.00033   0.83370   0.58372   0.00000  Uiso   1.00
H915   H     0.47417   0.85747   0.62974   0.00000  Uiso   1.00
H916   H     0.03224   0.85419   0.62753   0.00000  Uiso   1.00
H917   H     0.25034   0.58370   0.41630   0.00000  Uiso   1.00
H918   H     0.28229   0.60416   0.37251   0.00000  Uiso   1.00
H919   H     0.22423   0.60750   0.37029   0.00000  Uiso   1.00
H920   H     0.25033   0.91630   0.58370   0.00000  Uiso   1.00
H921   H     0.28237   0.89590   0.62745   0.00000  Uiso   1.00
H922   H     0.22433   0.89246   0.62975   0.00000  Uiso   1.00
H923   H     0.24967   0.91630   0.41628   0.00000  Uiso   1.00
H924   H     0.02571   0.85753   0.37025   0.00000  Uiso   1.00
H925   H     0.21771   0.89584   0.37249   0.00000  Uiso   1.00
H926   H     0.27577   0.89251   0.37025   0.00000  Uiso   1.00
H927   H     0.24966   0.58370   0.58372   0.00000  Uiso   1.00
H928   H     0.21770   0.60416   0.62752   0.00000  Uiso   1.00
H929   H     0.27577   0.60750   0.62975   0.00000  Uiso   1.00
H930   H     0.45081   0.59401   0.42710   0.00000  Uiso   1.00
H931   H     0.46794   0.57566   0.47720   0.00000  Uiso   1.00
H932   H     0.16265   0.77239   0.53209   0.00000  Uiso   1.00
H933   H     0.14047   0.79584   0.57811   0.00000  Uiso   1.00
H934   H     0.04918   0.90600   0.42713   0.00000  Uiso   1.00
H935   H     0.46765   0.85413   0.37253   0.00000  Uiso   1.00
H936   H     0.03206   0.92434   0.47725   0.00000  Uiso   1.00
H937   H     0.33735   0.72763   0.53206   0.00000  Uiso   1.00
H938   H     0.35951   0.70420   0.57809   0.00000  Uiso   1.00
H939   H     0.04915   0.59399   0.57284   0.00000  Uiso   1.00
H940   H     0.03206   0.57564   0.52272   0.00000  Uiso   1.00
H941   H     0.33736   0.77239   0.46787   0.00000  Uiso   1.00
H942   H     0.35956   0.79584   0.42187   0.00000  Uiso   1.00
H943   H     0.45077   0.90598   0.57293   0.00000  Uiso   1.00
H944   H     0.46794   0.92434   0.52284   0.00000  Uiso   1.00
H945   H     0.16265   0.72762   0.46794   0.00000  Uiso   1.00
H946   H     0.49967   0.66630   0.58370   0.00000  Uiso   1.00
H947   H     0.14050   0.70417   0.42191   0.00000  Uiso   1.00
H948   H     0.08735   0.97761   0.46789   0.00000  Uiso   1.00
H949   H     0.10954   0.95416   0.42189   0.00000  Uiso   1.00
H950   H     0.29919   0.65599   0.57289   0.00000  Uiso   1.00
H951   H     0.28206   0.67436   0.52279   0.00000  Uiso   1.00
H952   H     0.41265   0.52237   0.46794   0.00000  Uiso   1.00
H953   H     0.39049   0.54579   0.42191   0.00000  Uiso   1.00
H954   H     0.20082   0.84400   0.57287   0.00000  Uiso   1.00
H955   H     0.21794   0.82567   0.52275   0.00000  Uiso   1.00
H956   H     0.41264   0.97761   0.53215   0.00000  Uiso   1.00
H957   H     0.02584   0.64253   0.62971   0.00000  Uiso   1.00
H958   H     0.39043   0.95416   0.57814   0.00000  Uiso   1.00
H959   H     0.20087   0.65604   0.42719   0.00000  Uiso   1.00
H960   H     0.21794   0.67433   0.47733   0.00000  Uiso   1.00
H961   H     0.08735   0.52237   0.53207   0.00000  Uiso   1.00
H962   H     0.10950   0.54582   0.57809   0.00000  Uiso   1.00
H963   H     0.29923   0.84404   0.42706   0.00000  Uiso   1.00
H964   H     0.28206   0.82566   0.47715   0.00000  Uiso   1.00
H965   H     0.46777   0.64581   0.62752   0.00000  Uiso   1.00
H966   H     0.00034   0.66630   0.41628   0.00000  Uiso   1.00
H967   H     0.47437   0.64243   0.37021   0.00000  Uiso   1.00
H968   H     0.03243   0.64592   0.37253   0.00000  Uiso   1.00
N969   N     0.00000   0.75000   0.61907   0.00000  Uiso   1.00
N970   N     0.36434   0.78938   0.45559   0.00000  Uiso   1.00
N971   N     0.45518   0.89628   0.53992   0.00000  Uiso   1.00
N972   N     0.13569   0.71063   0.45563   0.00000  Uiso   1.00
N973   N     0.11433   0.96062   0.45561   0.00000  Uiso   1.00
N974   N     0.29481   0.64630   0.53988   0.00000  Uiso   1.00
N975   N     0.38568   0.53936   0.45563   0.00000  Uiso   1.00
N976   N     0.20519   0.85371   0.53987   0.00000  Uiso   1.00
N977   N     0.38566   0.96062   0.54441   0.00000  Uiso   1.00
N978   N     0.20521   0.64631   0.46019   0.00000  Uiso   1.00
N979   N     0.11431   0.53937   0.54437   0.00000  Uiso   1.00
N980   N     0.00000   0.75000   0.38093   0.00000  Uiso   1.00
N981   N     0.29483   0.85372   0.46008   0.00000  Uiso   1.00
N982   N     0.25000   0.50000   0.61907   0.00000  Uiso   1.00
N983   N     0.25000   0.50000   0.38093   0.00000  Uiso   1.00
N984   N     0.45519   0.60370   0.46011   0.00000  Uiso   1.00
N985   N     0.13568   0.78938   0.54439   0.00000  Uiso   1.00
N986   N     0.04480   0.89629   0.46014   0.00000  Uiso   1.00
N987   N     0.36432   0.71064   0.54437   0.00000  Uiso   1.00
N988   N     0.04479   0.60369   0.53983   0.00000  Uiso   1.00
O989   O     0.04581   0.70419   0.53821   0.00000  Uiso   1.00
O990   O     0.20420   0.54581   0.46179   0.00000  Uiso   1.00
O991   O     0.20420   0.54581   0.53821   0.00000  Uiso   1.00
O992   O     0.29581   0.95419   0.46179   0.00000  Uiso   1.00
O993   O     0.20420   0.95419   0.46179   0.00000  Uiso   1.00
O994   O     0.29581   0.54581   0.53821   0.00000  Uiso   1.00
O995   O     0.29581   0.54581   0.46179   0.00000  Uiso   1.00
O996   O     0.20420   0.95419   0.53821   0.00000  Uiso   1.00
O997   O     0.45420   0.79581   0.46179   0.00000  Uiso   1.00
O998   O     0.45420   0.79581   0.53821   0.00000  Uiso   1.00
O999   O     0.04581   0.70419   0.46179   0.00000  Uiso   1.00
O1000  O     0.45420   0.70419   0.46179   0.00000  Uiso   1.00
O1001  O     0.04581   0.79581   0.53821   0.00000  Uiso   1.00
O1002  O     0.04581   0.79581   0.46179   0.00000  Uiso   1.00
O1003  O     0.45420   0.70419   0.53821   0.00000  Uiso   1.00
O1004  O     0.29581   0.95419   0.53821   0.00000  Uiso   1.00
Zn1005 Zn    0.00000   0.75000   0.55104   0.00000  Uiso   1.00
Zn1006 Zn    0.00000   0.75000   0.44896   0.00000  Uiso   1.00
Zn1007 Zn    0.25000   0.50000   0.55104   0.00000  Uiso   1.00
Zn1008 Zn    0.25000   0.50000   0.44896   0.00000  Uiso   1.00
C1009  C     0.55927   0.68970   0.49996   0.00000  Uiso   1.00
C1010  C     0.99965   0.70959   0.64286   0.00000  Uiso   1.00
C1011  C     0.50039   0.70959   0.35714   0.00000  Uiso   1.00
C1012  C     0.50035   0.79041   0.64286   0.00000  Uiso   1.00
C1013  C     0.75036   0.54041   0.35714   0.00000  Uiso   1.00
C1014  C     0.75038   0.95959   0.64286   0.00000  Uiso   1.00
C1015  C     0.74964   0.95959   0.35713   0.00000  Uiso   1.00
C1016  C     0.74963   0.54041   0.64287   0.00000  Uiso   1.00
C1017  C     0.91414   0.61446   0.47891   0.00000  Uiso   1.00
C1018  C     0.63096   0.83260   0.52186   0.00000  Uiso   1.00
C1019  C     0.58586   0.88554   0.47891   0.00000  Uiso   1.00
C1020  C     0.94073   0.81030   0.49997   0.00000  Uiso   1.00
C1021  C     0.86903   0.66742   0.52185   0.00000  Uiso   1.00
C1022  C     0.58585   0.61445   0.52107   0.00000  Uiso   1.00
C1023  C     0.86905   0.83260   0.47813   0.00000  Uiso   1.00
C1024  C     0.91413   0.88553   0.52111   0.00000  Uiso   1.00
C1025  C     0.63097   0.66740   0.47815   0.00000  Uiso   1.00
C1026  C     0.61904   0.91741   0.47814   0.00000  Uiso   1.00
C1027  C     0.83586   0.63554   0.52109   0.00000  Uiso   1.00
C1028  C     0.88096   0.58259   0.47815   0.00000  Uiso   1.00
C1029  C     0.66414   0.86447   0.52109   0.00000  Uiso   1.00
C1030  C     0.88096   0.91740   0.52187   0.00000  Uiso   1.00
C1031  C     0.94073   0.68970   0.50003   0.00000  Uiso   1.00
C1032  C     0.66415   0.63554   0.47892   0.00000  Uiso   1.00
C1033  C     0.61903   0.58259   0.52184   0.00000  Uiso   1.00
C1034  C     0.83587   0.86447   0.47889   0.00000  Uiso   1.00
C1035  C     0.59256   0.84339   0.50022   0.00000  Uiso   1.00
C1036  C     0.90744   0.65661   0.50022   0.00000  Uiso   1.00
C1037  C     0.90744   0.84339   0.49979   0.00000  Uiso   1.00
C1038  C     0.59255   0.65660   0.49977   0.00000  Uiso   1.00
C1039  C     0.84256   0.59340   0.49978   0.00000  Uiso   1.00
C1040  C     0.65744   0.90661   0.49978   0.00000  Uiso   1.00
C1041  C     0.65744   0.59339   0.50022   0.00000  Uiso   1.00
C1042  C     0.55927   0.81030   0.50003   0.00000  Uiso   1.00
C1043  C     0.84256   0.90661   0.50021   0.00000  Uiso   1.00
C1044  C     0.99805   0.83613   0.38052   0.00000  Uiso   1.00
C1045  C     0.99813   0.66387   0.61948   0.00000  Uiso   1.00
C1046  C     0.50199   0.66387   0.38050   0.00000  Uiso   1.00
C1047  C     0.50188   0.83613   0.61950   0.00000  Uiso   1.00
C1048  C     0.75191   0.58613   0.38052   0.00000  Uiso   1.00
C1049  C     0.75196   0.91387   0.61948   0.00000  Uiso   1.00
C1050  C     0.74809   0.91387   0.38050   0.00000  Uiso   1.00
C1051  C     0.74808   0.58613   0.61950   0.00000  Uiso   1.00
C1052  C     0.80927   0.93970   0.50003   0.00000  Uiso   1.00
C1053  C     0.69073   0.56030   0.50004   0.00000  Uiso   1.00
C1054  C     0.69073   0.93970   0.49997   0.00000  Uiso   1.00
C1055  C     0.80927   0.56030   0.49997   0.00000  Uiso   1.00
C1056  C     0.99962   0.79041   0.35714   0.00000  Uiso   1.00
H1057  H     0.99966   0.83370   0.41630   0.00000  Uiso   1.00
H1058  H     0.50033   0.83370   0.58372   0.00000  Uiso   1.00
H1059  H     0.97417   0.85747   0.62974   0.00000  Uiso   1.00
H1060  H     0.53224   0.85419   0.62753   0.00000  Uiso   1.00
H1061  H     0.75034   0.58370   0.41630   0.00000  Uiso   1.00
H1062  H     0.78229   0.60416   0.37251   0.00000  Uiso   1.00
H1063  H     0.72423   0.60750   0.37029   0.00000  Uiso   1.00
H1064  H     0.75033   0.91630   0.58370   0.00000  Uiso   1.00
H1065  H     0.78237   0.89590   0.62745   0.00000  Uiso   1.00
H1066  H     0.72433   0.89246   0.62975   0.00000  Uiso   1.00
H1067  H     0.74967   0.91630   0.41628   0.00000  Uiso   1.00
H1068  H     0.52571   0.85753   0.37025   0.00000  Uiso   1.00
H1069  H     0.71771   0.89584   0.37249   0.00000  Uiso   1.00
H1070  H     0.77577   0.89251   0.37025   0.00000  Uiso   1.00
H1071  H     0.74966   0.58370   0.58372   0.00000  Uiso   1.00
H1072  H     0.71770   0.60416   0.62752   0.00000  Uiso   1.00
H1073  H     0.77577   0.60750   0.62975   0.00000  Uiso   1.00
H1074  H     0.95081   0.59401   0.42710   0.00000  Uiso   1.00
H1075  H     0.96794   0.57566   0.47720   0.00000  Uiso   1.00
H1076  H     0.66265   0.77239   0.53209   0.00000  Uiso   1.00
H1077  H     0.64047   0.79584   0.57811   0.00000  Uiso   1.00
H1078  H     0.54918   0.90600   0.42713   0.00000  Uiso   1.00
H1079  H     0.96765   0.85413   0.37253   0.00000  Uiso   1.00
H1080  H     0.53206   0.92434   0.47725   0.00000  Uiso   1.00
H1081  H     0.83735   0.72763   0.53206   0.00000  Uiso   1.00
H1082  H     0.85951   0.70420   0.57809   0.00000  Uiso   1.00
H1083  H     0.54915   0.59399   0.57284   0.00000  Uiso   1.00
H1084  H     0.53206   0.57564   0.52272   0.00000  Uiso   1.00
H1085  H     0.83736   0.77239   0.46787   0.00000  Uiso   1.00
H1086  H     0.85956   0.79584   0.42187   0.00000  Uiso   1.00
H1087  H     0.95077   0.90598   0.57293   0.00000  Uiso   1.00
H1088  H     0.96794   0.92434   0.52284   0.00000  Uiso   1.00
H1089  H     0.66265   0.72762   0.46794   0.00000  Uiso   1.00
H1090  H     0.99967   0.66630   0.58370   0.00000  Uiso   1.00
H1091  H     0.64050   0.70417   0.42191   0.00000  Uiso   1.00
H1092  H     0.58735   0.97761   0.46789   0.00000  Uiso   1.00
H1093  H     0.60954   0.95416   0.42189   0.00000  Uiso   1.00
H1094  H     0.79919   0.65599   0.57289   0.00000  Uiso   1.00
H1095  H     0.78206   0.67436   0.52279   0.00000  Uiso   1.00
H1096  H     0.91265   0.52237   0.46794   0.00000  Uiso   1.00
H1097  H     0.89049   0.54579   0.42191   0.00000  Uiso   1.00
H1098  H     0.70082   0.84400   0.57287   0.00000  Uiso   1.00
H1099  H     0.71794   0.82567   0.52275   0.00000  Uiso   1.00
H1100  H     0.91264   0.97761   0.53215   0.00000  Uiso   1.00
H1101  H     0.52584   0.64253   0.62971   0.00000  Uiso   1.00
H1102  H     0.89043   0.95416   0.57814   0.00000  Uiso   1.00
H1103  H     0.70087   0.65604   0.42719   0.00000  Uiso   1.00
H1104  H     0.71794   0.67433   0.47733   0.00000  Uiso   1.00
H1105  H     0.58735   0.52237   0.53207   0.00000  Uiso   1.00
H1106  H     0.60950   0.54582   0.57809   0.00000  Uiso   1.00
H1107  H     0.79923   0.84404   0.42706   0.00000  Uiso   1.00
H1108  H     0.78206   0.82566   0.47715   0.00000  Uiso   1.00
H1109  H     0.96777   0.64581   0.62752   0.00000  Uiso   1.00
H1110  H     0.50034   0.66630   0.41628   0.00000  Uiso   1.00
H1111  H     0.97437   0.64243   0.37021   0.00000  Uiso   1.00
H1112  H     0.53243   0.64592   0.37253   0.00000  Uiso   1.00
N1113  N     0.50000   0.75000   0.61907   0.00000  Uiso   1.00
N1114  N     0.86434   0.78938   0.45559   0.00000  Uiso   1.00
N1115  N     0.95518   0.89628   0.53992   0.00000  Uiso   1.00
N1116  N     0.63569   0.71063   0.45563   0.00000  Uiso   1.00
N1117  N     0.61433   0.96062   0.45561   0.00000  Uiso   1.00
N1118  N     0.79481   0.64630   0.53988   0.00000  Uiso   1.00
N1119  N     0.88568   0.53936   0.45563   0.00000  Uiso   1.00
N1120  N     0.70519   0.85371   0.53987   0.00000  Uiso   1.00
N1121  N     0.88566   0.96062   0.54441   0.00000  Uiso   1.00
N1122  N     0.70521   0.64631   0.46019   0.00000  Uiso   1.00
N1123  N     0.61431   0.53937   0.54437   0.00000  Uiso   1.00
N1124  N     0.50000   0.75000   0.38093   0.00000  Uiso   1.00
N1125  N     0.79483   0.85372   0.46008   0.00000  Uiso   1.00
N1126  N     0.75000   0.50000   0.61907   0.00000  Uiso   1.00
N1127  N     0.75000   0.50000   0.38093   0.00000  Uiso   1.00
N1128  N     0.95519   0.60370   0.46011   0.00000  Uiso   1.00
N1129  N     0.63568   0.78938   0.54439   0.00000  Uiso   1.00
N1130  N     0.54480   0.89629   0.46014   0.00000  Uiso   1.00
N1131  N     0.86432   0.71064   0.54437   0.00000  Uiso   1.00
N1132  N     0.54479   0.60369   0.53983   0.00000  Uiso   1.00
O1133  O     0.54581   0.70419   0.53821   0.00000  Uiso   1.00
O1134  O     0.70420   0.54581   0.46179   0.00000  Uiso   1.00
O1135  O     0.70420   0.54581   0.53821   0.00000  Uiso   1.00
O1136  O     0.79581   0.95419   0.46179   0.00000  Uiso   1.00
O1137  O     0.70420   0.95419   0.46179   0.00000  Uiso   1.00
O1138  O     0.79581   0.54581   0.53821   0.00000  Uiso   1.00
O1139  O     0.79581   0.54581   0.46179   0.00000  Uiso   1.00
O1140  O     0.70420   0.95419   0.53821   0.00000  Uiso   1.00
O1141  O     0.95420   0.79581   0.46179   0.00000  Uiso   1.00
O1142  O     0.95420   0.79581   0.53821   0.00000  Uiso   1.00
O1143  O     0.54581   0.70419   0.46179   0.00000  Uiso   1.00
O1144  O     0.95420   0.70419   0.46179   0.00000  Uiso   1.00
O1145  O     0.54581   0.79581   0.53821   0.00000  Uiso   1.00
O1146  O     0.54581   0.79581   0.46179   0.00000  Uiso   1.00
O1147  O     0.95420   0.70419   0.53821   0.00000  Uiso   1.00
O1148  O     0.79581   0.95419   0.53821   0.00000  Uiso   1.00
Zn1149 Zn    0.50000   0.75000   0.55104   0.00000  Uiso   1.00
Zn1150 Zn    0.50000   0.75000   0.44896   0.00000  Uiso   1.00
Zn1151 Zn    0.75000   0.50000   0.55104   0.00000  Uiso   1.00
Zn1152 Zn    0.75000   0.50000   0.44896   0.00000  Uiso   1.00
C1153  C     0.05927   0.18970   0.83330   0.00000  Uiso   1.00
C1154  C     0.49965   0.20959   0.97619   0.00000  Uiso   1.00
C1155  C     0.00039   0.20959   0.69047   0.00000  Uiso   1.00
C1156  C     0.00035   0.29041   0.97620   0.00000  Uiso   1.00
C1157  C     0.25036   0.04041   0.69048   0.00000  Uiso   1.00
C1158  C     0.25038   0.45959   0.97619   0.00000  Uiso   1.00
C1159  C     0.24964   0.45959   0.69047   0.00000  Uiso   1.00
C1160  C     0.24963   0.04041   0.97620   0.00000  Uiso   1.00
C1161  C     0.41414   0.11446   0.81224   0.00000  Uiso   1.00
C1162  C     0.13096   0.33260   0.85519   0.00000  Uiso   1.00
C1163  C     0.08586   0.38554   0.81224   0.00000  Uiso   1.00
C1164  C     0.44073   0.31030   0.83330   0.00000  Uiso   1.00
C1165  C     0.36903   0.16742   0.85518   0.00000  Uiso   1.00
C1166  C     0.08585   0.11445   0.85440   0.00000  Uiso   1.00
C1167  C     0.36905   0.33260   0.81146   0.00000  Uiso   1.00
C1168  C     0.41413   0.38553   0.85444   0.00000  Uiso   1.00
C1169  C     0.13097   0.16740   0.81148   0.00000  Uiso   1.00
C1170  C     0.11904   0.41741   0.81148   0.00000  Uiso   1.00
C1171  C     0.33586   0.13554   0.85442   0.00000  Uiso   1.00
C1172  C     0.38096   0.08259   0.81148   0.00000  Uiso   1.00
C1173  C     0.16414   0.36447   0.85443   0.00000  Uiso   1.00
C1174  C     0.38096   0.41740   0.85520   0.00000  Uiso   1.00
C1175  C     0.44073   0.18970   0.83337   0.00000  Uiso   1.00
C1176  C     0.16415   0.13554   0.81225   0.00000  Uiso   1.00
C1177  C     0.11903   0.08259   0.85518   0.00000  Uiso   1.00
C1178  C     0.33587   0.36447   0.81222   0.00000  Uiso   1.00
C1179  C     0.09256   0.34339   0.83356   0.00000  Uiso   1.00
C1180  C     0.40744   0.15661   0.83355   0.00000  Uiso   1.00
C1181  C     0.40744   0.34339   0.83312   0.00000  Uiso   1.00
C1182  C     0.09255   0.15660   0.83310   0.00000  Uiso   1.00
C1183  C     0.34256   0.09340   0.83311   0.00000  Uiso   1.00
C1184  C     0.15744   0.40661   0.83311   0.00000  Uiso   1.00
C1185  C     0.15744   0.09339   0.83356   0.00000  Uiso   1.00
C1186  C     0.05927   0.31030   0.83337   0.00000  Uiso   1.00
C1187  C     0.34256   0.40661   0.83355   0.00000  Uiso   1.00
C1188  C     0.49805   0.33613   0.71385   0.00000  Uiso   1.00
C1189  C     0.49813   0.16387   0.95282   0.00000  Uiso   1.00
C1190  C     0.00199   0.16387   0.71384   0.00000  Uiso   1.00
C1191  C     0.00188   0.33613   0.95283   0.00000  Uiso   1.00
C1192  C     0.25191   0.08613   0.71386   0.00000  Uiso   1.00
C1193  C     0.25196   0.41387   0.95281   0.00000  Uiso   1.00
C1194  C     0.24809   0.41387   0.71384   0.00000  Uiso   1.00
C1195  C     0.24808   0.08613   0.95283   0.00000  Uiso   1.00
C1196  C     0.30927   0.43970   0.83336   0.00000  Uiso   1.00
C1197  C     0.19073   0.06030   0.83337   0.00000  Uiso   1.00
C1198  C     0.19073   0.43970   0.83330   0.00000  Uiso   1.00
C1199  C     0.30927   0.06030   0.83330   0.00000  Uiso   1.00
C1200  C     0.49962   0.29041   0.69048   0.00000  Uiso   1.00
H1201  H     0.49966   0.33370   0.74963   0.00000  Uiso   1.00
H1202  H     0.00033   0.33370   0.91705   0.00000  Uiso   1.00
H1203  H     0.47417   0.35747   0.96307   0.00000  Uiso   1.00
H1204  H     0.03224   0.35419   0.96086   0.00000  Uiso   1.00
H1205  H     0.25034   0.08370   0.74963   0.00000  Uiso   1.00
H1206  H     0.28229   0.10416   0.70584   0.00000  Uiso   1.00
H1207  H     0.22423   0.10750   0.70362   0.00000  Uiso   1.00
H1208  H     0.25033   0.41630   0.91704   0.00000  Uiso   1.00
H1209  H     0.28237   0.39590   0.96078   0.00000  Uiso   1.00
H1210  H     0.22433   0.39246   0.96309   0.00000  Uiso   1.00
H1211  H     0.24967   0.41630   0.74961   0.00000  Uiso   1.00
H1212  H     0.02571   0.35753   0.70359   0.00000  Uiso   1.00
H1213  H     0.21771   0.39584   0.70583   0.00000  Uiso   1.00
H1214  H     0.27577   0.39251   0.70358   0.00000  Uiso   1.00
H1215  H     0.24966   0.08370   0.91705   0.00000  Uiso   1.00
H1216  H     0.21770   0.10416   0.96085   0.00000  Uiso   1.00
H1217  H     0.27577   0.10750   0.96308   0.00000  Uiso   1.00
H1218  H     0.45081   0.09401   0.76044   0.00000  Uiso   1.00
H1219  H     0.46794   0.07566   0.81053   0.00000  Uiso   1.00
H1220  H     0.16265   0.27239   0.86543   0.00000  Uiso   1.00
H1221  H     0.14047   0.29584   0.91144   0.00000  Uiso   1.00
H1222  H     0.04918   0.40600   0.76046   0.00000  Uiso   1.00
H1223  H     0.46765   0.35413   0.70586   0.00000  Uiso   1.00
H1224  H     0.03206   0.42434   0.81058   0.00000  Uiso   1.00
H1225  H     0.33735   0.22763   0.86540   0.00000  Uiso   1.00
H1226  H     0.35951   0.20420   0.91143   0.00000  Uiso   1.00
H1227  H     0.04915   0.09399   0.90617   0.00000  Uiso   1.00
H1228  H     0.03206   0.07564   0.85606   0.00000  Uiso   1.00
H1229  H     0.33736   0.27239   0.80120   0.00000  Uiso   1.00
H1230  H     0.35956   0.29584   0.75520   0.00000  Uiso   1.00
H1231  H     0.45077   0.40598   0.90626   0.00000  Uiso   1.00
H1232  H     0.46794   0.42434   0.85617   0.00000  Uiso   1.00
H1233  H     0.16265   0.22762   0.80127   0.00000  Uiso   1.00
H1234  H     0.49967   0.16630   0.91703   0.00000  Uiso   1.00
H1235  H     0.14050   0.20417   0.75524   0.00000  Uiso   1.00
H1236  H     0.08735   0.47761   0.80123   0.00000  Uiso   1.00
H1237  H     0.10954   0.45416   0.75522   0.00000  Uiso   1.00
H1238  H     0.29919   0.15599   0.90623   0.00000  Uiso   1.00
H1239  H     0.28206   0.17436   0.85613   0.00000  Uiso   1.00
H1240  H     0.41265   0.02237   0.80127   0.00000  Uiso   1.00
H1241  H     0.39049   0.04579   0.75524   0.00000  Uiso   1.00
H1242  H     0.20082   0.34400   0.90620   0.00000  Uiso   1.00
H1243  H     0.21794   0.32567   0.85609   0.00000  Uiso   1.00
H1244  H     0.41264   0.47761   0.86548   0.00000  Uiso   1.00
H1245  H     0.02584   0.14253   0.96304   0.00000  Uiso   1.00
H1246  H     0.39043   0.45416   0.91147   0.00000  Uiso   1.00
H1247  H     0.20087   0.15604   0.76052   0.00000  Uiso   1.00
H1248  H     0.21794   0.17433   0.81066   0.00000  Uiso   1.00
H1249  H     0.08735   0.02237   0.86540   0.00000  Uiso   1.00
H1250  H     0.10950   0.04582   0.91142   0.00000  Uiso   1.00
H1251  H     0.29923   0.34404   0.76040   0.00000  Uiso   1.00
H1252  H     0.28206   0.32566   0.81049   0.00000  Uiso   1.00
H1253  H     0.46777   0.14581   0.96085   0.00000  Uiso   1.00
H1254  H     0.00034   0.16630   0.74962   0.00000  Uiso   1.00
H1255  H     0.47437   0.14243   0.70355   0.00000  Uiso   1.00
H1256  H     0.03243   0.14592   0.70586   0.00000  Uiso   1.00
N1257  N     0.00000   0.25000   0.95240   0.00000  Uiso   1.00
N1258  N     0.36434   0.28938   0.78892   0.00000  Uiso   1.00
N1259  N     0.45518   0.39628   0.87325   0.00000  Uiso   1.00
N1260  N     0.13569   0.21063   0.78896   0.00000  Uiso   1.00
N1261  N     0.11433   0.46062   0.78894   0.00000  Uiso   1.00
N1262  N     0.29481   0.14630   0.87321   0.00000  Uiso   1.00
N1263  N     0.38568   0.03936   0.78896   0.00000  Uiso   1.00
N1264  N     0.20519   0.35371   0.87320   0.00000  Uiso   1.00
N1265  N     0.38566   0.46062   0.87775   0.00000  Uiso   1.00
N1266  N     0.20521   0.14631   0.79352   0.00000  Uiso   1.00
N1267  N     0.11431   0.03937   0.87770   0.00000  Uiso   1.00
N1268  N     0.00000   0.25000   0.71427   0.00000  Uiso   1.00
N1269  N     0.29483   0.35372   0.79341   0.00000  Uiso   1.00
N1270  N     0.25000   0.00000   0.95240   0.00000  Uiso   1.00
N1271  N     0.25000   0.00000   0.71427   0.00000  Uiso   1.00
N1272  N     0.45519   0.10370   0.79344   0.00000  Uiso   1.00
N1273  N     0.13568   0.28938   0.87772   0.00000  Uiso   1.00
N1274  N     0.04480   0.39629   0.79347   0.00000  Uiso   1.00
N1275  N     0.36432   0.21064   0.87770   0.00000  Uiso   1.00
N1276  N     0.04479   0.10369   0.87316   0.00000  Uiso   1.00
O1277  O     0.04581   0.20419   0.87154   0.00000  Uiso   1.00
O1278  O     0.20420   0.04581   0.79513   0.00000  Uiso   1.00
O1279  O     0.20420   0.04581   0.87154   0.00000  Uiso   1.00
O1280  O     0.29581   0.45419   0.79513   0.00000  Uiso   1.00
O1281  O     0.20420   0.45419   0.79513   0.00000  Uiso   1.00
O1282  O     0.29581   0.04581   0.87154   0.00000  Uiso   1.00
O1283  O     0.29581   0.04581   0.79513   0.00000  Uiso   1.00
O1284  O     0.20420   0.45419   0.87154   0.00000  Uiso   1.00
O1285  O     0.45420   0.29581   0.79513   0.00000  Uiso   1.00
O1286  O     0.45420   0.29581   0.87154   0.00000  Uiso   1.00
O1287  O     0.04581   0.20419   0.79513   0.00000  Uiso   1.00
O1288  O     0.45420   0.20419   0.79513   0.00000  Uiso   1.00
O1289  O     0.04581   0.29581   0.87154   0.00000  Uiso   1.00
O1290  O     0.04581   0.29581   0.79513   0.00000  Uiso   1.00
O1291  O     0.45420   0.20419   0.87154   0.00000  Uiso   1.00
O1292  O     0.29581   0.45419   0.87154   0.00000  Uiso   1.00
Zn1293 Zn    0.00000   0.25000   0.88437   0.00000  Uiso   1.00
Zn1294 Zn    0.00000   0.25000   0.78229   0.00000  Uiso   1.00
Zn1295 Zn    0.25000   0.00000   0.88437   0.00000  Uiso   1.00
Zn1296 Zn    0.25000   0.00000   0.78229   0.00000  Uiso   1.00
C1297  C     0.55927   0.18970   0.83330   0.00000  Uiso   1.00
C1298  C     0.99965   0.20959   0.97619   0.00000  Uiso   1.00
C1299  C     0.50039   0.20959   0.69047   0.00000  Uiso   1.00
C1300  C     0.50035   0.29041   0.97620   0.00000  Uiso   1.00
C1301  C     0.75036   0.04041   0.69048   0.00000  Uiso   1.00
C1302  C     0.75038   0.45959   0.97619   0.00000  Uiso   1.00
C1303  C     0.74964   0.45959   0.69047   0.00000  Uiso   1.00
C1304  C     0.74963   0.04041   0.97620   0.00000  Uiso   1.00
C1305  C     0.91414   0.11446   0.81224   0.00000  Uiso   1.00
C1306  C     0.63096   0.33260   0.85519   0.00000  Uiso   1.00
C1307  C     0.58586   0.38554   0.81224   0.00000  Uiso   1.00
C1308  C     0.94073   0.31030   0.83330   0.00000  Uiso   1.00
C1309  C     0.86903   0.16742   0.85518   0.00000  Uiso   1.00
C1310  C     0.58585   0.11445   0.85440   0.00000  Uiso   1.00
C1311  C     0.86905   0.33260   0.81146   0.00000  Uiso   1.00
C1312  C     0.91413   0.38553   0.85444   0.00000  Uiso   1.00
C1313  C     0.63097   0.16740   0.81148   0.00000  Uiso   1.00
C1314  C     0.61904   0.41741   0.81148   0.00000  Uiso   1.00
C1315  C     0.83586   0.13554   0.85442   0.00000  Uiso   1.00
C1316  C     0.88096   0.08259   0.81148   0.00000  Uiso   1.00
C1317  C     0.66414   0.36447   0.85443   0.00000  Uiso   1.00
C1318  C     0.88096   0.41740   0.85520   0.00000  Uiso   1.00
C1319  C     0.94073   0.18970   0.83337   0.00000  Uiso   1.00
C1320  C     0.66415   0.13554   0.81225   0.00000  Uiso   1.00
C1321  C     0.61903   0.08259   0.85518   0.00000  Uiso   1.00
C1322  C     0.83587   0.36447   0.81222   0.00000  Uiso   1.00
C1323  C     0.59256   0.34339   0.83356   0.00000  Uiso   1.00
C1324  C     0.90744   0.15661   0.83355   0.00000  Uiso   1.00
C1325  C     0.90744   0.34339   0.83312   0.00000  Uiso   1.00
C1326  C     0.59255   0.15660   0.83310   0.00000  Uiso   1.00
C1327  C     0.84256   0.09340   0.83311   0.00000  Uiso   1.00
C1328  C     0.65744   0.40661   0.83311   0.00000  Uiso   1.00
C1329  C     0.65744   0.09339   0.83356   0.00000  Uiso   1.00
C1330  C     0.55927   0.31030   0.83337   0.00000  Uiso   1.00
C1331  C     0.84256   0.40661   0.83355   0.00000  Uiso   1.00
C1332  C     0.99805   0.33613   0.71385   0.00000  Uiso   1.00
C1333  C     0.99813   0.16387   0.95282   0.00000  Uiso   1.00
C1334  C     0.50199   0.16387   0.71384   0.00000  Uiso   1.00
C1335  C     0.50188   0.33613   0.95283   0.00000  Uiso   1.00
C1336  C     0.75191   0.08613   0.71386   0.00000  Uiso   1.00
C1337  C     0.75196   0.41387   0.95281   0.00000  Uiso   1.00
C1338  C     0.74809   0.41387   0.71384   0.00000  Uiso   1.00
C1339  C     0.74808   0.08613   0.95283   0.00000  Uiso   1.00
C1340  C     0.80927   0.43970   0.83336   0.00000  Uiso   1.00
C1341  C     0.69073   0.06030   0.83337   0.00000  Uiso   1.00
C1342  C     0.69073   0.43970   0.83330   0.00000  Uiso   1.00
C1343  C     0.80927   0.06030   0.83330   0.00000  Uiso   1.00
C1344  C     0.99962   0.29041   0.69048   0.00000  Uiso   1.00
H1345  H     0.99966   0.33370   0.74963   0.00000  Uiso   1.00
H1346  H     0.50033   0.33370   0.91705   0.00000  Uiso   1.00
H1347  H     0.97417   0.35747   0.96307   0.00000  Uiso   1.00
H1348  H     0.53224   0.35419   0.96086   0.00000  Uiso   1.00
H1349  H     0.75034   0.08370   0.74963   0.00000  Uiso   1.00
H1350  H     0.78229   0.10416   0.70584   0.00000  Uiso   1.00
H1351  H     0.72423   0.10750   0.70362   0.00000  Uiso   1.00
H1352  H     0.75033   0.41630   0.91704   0.00000  Uiso   1.00
H1353  H     0.78237   0.39590   0.96078   0.00000  Uiso   1.00
H1354  H     0.72433   0.39246   0.96309   0.00000  Uiso   1.00
H1355  H     0.74967   0.41630   0.74961   0.00000  Uiso   1.00
H1356  H     0.52571   0.35753   0.70359   0.00000  Uiso   1.00
H1357  H     0.71771   0.39584   0.70583   0.00000  Uiso   1.00
H1358  H     0.77577   0.39251   0.70358   0.00000  Uiso   1.00
H1359  H     0.74966   0.08370   0.91705   0.00000  Uiso   1.00
H1360  H     0.71770   0.10416   0.96085   0.00000  Uiso   1.00
H1361  H     0.77577   0.10750   0.96308   0.00000  Uiso   1.00
H1362  H     0.95081   0.09401   0.76044   0.00000  Uiso   1.00
H1363  H     0.96794   0.07566   0.81053   0.00000  Uiso   1.00
H1364  H     0.66265   0.27239   0.86543   0.00000  Uiso   1.00
H1365  H     0.64047   0.29584   0.91144   0.00000  Uiso   1.00
H1366  H     0.54918   0.40600   0.76046   0.00000  Uiso   1.00
H1367  H     0.96765   0.35413   0.70586   0.00000  Uiso   1.00
H1368  H     0.53206   0.42434   0.81058   0.00000  Uiso   1.00
H1369  H     0.83735   0.22763   0.86540   0.00000  Uiso   1.00
H1370  H     0.85951   0.20420   0.91143   0.00000  Uiso   1.00
H1371  H     0.54915   0.09399   0.90617   0.00000  Uiso   1.00
H1372  H     0.53206   0.07564   0.85606   0.00000  Uiso   1.00
H1373  H     0.83736   0.27239   0.80120   0.00000  Uiso   1.00
H1374  H     0.85956   0.29584   0.75520   0.00000  Uiso   1.00
H1375  H     0.95077   0.40598   0.90626   0.00000  Uiso   1.00
H1376  H     0.96794   0.42434   0.85617   0.00000  Uiso   1.00
H1377  H     0.66265   0.22762   0.80127   0.00000  Uiso   1.00
H1378  H     0.99967   0.16630   0.91703   0.00000  Uiso   1.00
H1379  H     0.64050   0.20417   0.75524   0.00000  Uiso   1.00
H1380  H     0.58735   0.47761   0.80123   0.00000  Uiso   1.00
H1381  H     0.60954   0.45416   0.75522   0.00000  Uiso   1.00
H1382  H     0.79919   0.15599   0.90623   0.00000  Uiso   1.00
H1383  H     0.78206   0.17436   0.85613   0.00000  Uiso   1.00
H1384  H     0.91265   0.02237   0.80127   0.00000  Uiso   1.00
H1385  H     0.89049   0.04579   0.75524   0.00000  Uiso   1.00
H1386  H     0.70082   0.34400   0.90620   0.00000  Uiso   1.00
H1387  H     0.71794   0.32567   0.85609   0.00000  Uiso   1.00
H1388  H     0.91264   0.47761   0.86548   0.00000  Uiso   1.00
H1389  H     0.52584   0.14253   0.96304   0.00000  Uiso   1.00
H1390  H     0.89043   0.45416   0.91147   0.00000  Uiso   1.00
H1391  H     0.70087   0.15604   0.76052   0.00000  Uiso   1.00
H1392  H     0.71794   0.17433   0.81066   0.00000  Uiso   1.00
H1393  H     0.58735   0.02237   0.86540   0.00000  Uiso   1.00
H1394  H     0.60950   0.04582   0.91142   0.00000  Uiso   1.00
H1395  H     0.79923   0.34404   0.76040   0.00000  Uiso   1.00
H1396  H     0.78206   0.32566   0.81049   0.00000  Uiso   1.00
H1397  H     0.96777   0.14581   0.96085   0.00000  Uiso   1.00
H1398  H     0.50034   0.16630   0.74962   0.00000  Uiso   1.00
H1399  H     0.97437   0.14243   0.70355   0.00000  Uiso   1.00
H1400  H     0.53243   0.14592   0.70586   0.00000  Uiso   1.00
N1401  N     0.50000   0.25000   0.95240   0.00000  Uiso   1.00
N1402  N     0.86434   0.28938   0.78892   0.00000  Uiso   1.00
N1403  N     0.95518   0.39628   0.87325   0.00000  Uiso   1.00
N1404  N     0.63569   0.21063   0.78896   0.00000  Uiso   1.00
N1405  N     0.61433   0.46062   0.78894   0.00000  Uiso   1.00
N1406  N     0.79481   0.14630   0.87321   0.00000  Uiso   1.00
N1407  N     0.88568   0.03936   0.78896   0.00000  Uiso   1.00
N1408  N     0.70519   0.35371   0.87320   0.00000  Uiso   1.00
N1409  N     0.88566   0.46062   0.87775   0.00000  Uiso   1.00
N1410  N     0.70521   0.14631   0.79352   0.00000  Uiso   1.00
N1411  N     0.61431   0.03937   0.87770   0.00000  Uiso   1.00
N1412  N     0.50000   0.25000   0.71427   0.00000  Uiso   1.00
N1413  N     0.79483   0.35372   0.79341   0.00000  Uiso   1.00
N1414  N     0.75000   0.00000   0.95240   0.00000  Uiso   1.00
N1415  N     0.75000   0.00000   0.71427   0.00000  Uiso   1.00
N1416  N     0.95519   0.10370   0.79344   0.00000  Uiso   1.00
N1417  N     0.63568   0.28938   0.87772   0.00000  Uiso   1.00
N1418  N     0.54480   0.39629   0.79347   0.00000  Uiso   1.00
N1419  N     0.86432   0.21064   0.87770   0.00000  Uiso   1.00
N1420  N     0.54479   0.10369   0.87316   0.00000  Uiso   1.00
O1421  O     0.54581   0.20419   0.87154   0.00000  Uiso   1.00
O1422  O     0.70420   0.04581   0.79513   0.00000  Uiso   1.00
O1423  O     0.70420   0.04581   0.87154   0.00000  Uiso   1.00
O1424  O     0.79581   0.45419   0.79513   0.00000  Uiso   1.00
O1425  O     0.70420   0.45419   0.79513   0.00000  Uiso   1.00
O1426  O     0.79581   0.04581   0.87154   0.00000  Uiso   1.00
O1427  O     0.79581   0.04581   0.79513   0.00000  Uiso   1.00
O1428  O     0.70420   0.45419   0.87154   0.00000  Uiso   1.00
O1429  O     0.95420   0.29581   0.79513   0.00000  Uiso   1.00
O1430  O     0.95420   0.29581   0.87154   0.00000  Uiso   1.00
O1431  O     0.54581   0.20419   0.79513   0.00000  Uiso   1.00
O1432  O     0.95420   0.20419   0.79513   0.00000  Uiso   1.00
O1433  O     0.54581   0.29581   0.87154   0.00000  Uiso   1.00
O1434  O     0.54581   0.29581   0.79513   0.00000  Uiso   1.00
O1435  O     0.95420   0.20419   0.87154   0.00000  Uiso   1.00
O1436  O     0.79581   0.45419   0.87154   0.00000  Uiso   1.00
Zn1437 Zn    0.50000   0.25000   0.88437   0.00000  Uiso   1.00
Zn1438 Zn    0.50000   0.25000   0.78229   0.00000  Uiso   1.00
Zn1439 Zn    0.75000   0.00000   0.88437   0.00000  Uiso   1.00
Zn1440 Zn    0.75000   0.00000   0.78229   0.00000  Uiso   1.00
C1441  C     0.05927   0.68970   0.83330   0.00000  Uiso   1.00
C1442  C     0.49965   0.70959   0.97619   0.00000  Uiso   1.00
C1443  C     0.00039   0.70959   0.69047   0.00000  Uiso   1.00
C1444  C     0.00035   0.79041   0.97620   0.00000  Uiso   1.00
C1445  C     0.25036   0.54041   0.69048   0.00000  Uiso   1.00
C1446  C     0.25038   0.95959   0.97619   0.00000  Uiso   1.00
C1447  C     0.24964   0.95959   0.69047   0.00000  Uiso   1.00
C1448  C     0.24963   0.54041   0.97620   0.00000  Uiso   1.00
C1449  C     0.41414   0.61446   0.81224   0.00000  Uiso   1.00
C1450  C     0.13096   0.83260   0.85519   0.00000  Uiso   1.00
C1451  C     0.08586   0.88554   0.81224   0.00000  Uiso   1.00
C1452  C     0.44073   0.81030   0.83330   0.00000  Uiso   1.00
C1453  C     0.36903   0.66742   0.85518   0.00000  Uiso   1.00
C1454  C     0.08585   0.61445   0.85440   0.00000  Uiso   1.00
C1455  C     0.36905   0.83260   0.81146   0.00000  Uiso   1.00
C1456  C     0.41413   0.88553   0.85444   0.00000  Uiso   1.00
C1457  C     0.13097   0.66740   0.81148   0.00000  Uiso   1.00
C1458  C     0.11904   0.91741   0.81148   0.00000  Uiso   1.00
C1459  C     0.33586   0.63554   0.85442   0.00000  Uiso   1.00
C1460  C     0.38096   0.58259   0.81148   0.00000  Uiso   1.00
C1461  C     0.16414   0.86447   0.85443   0.00000  Uiso   1.00
C1462  C     0.38096   0.91740   0.85520   0.00000  Uiso   1.00
C1463  C     0.44073   0.68970   0.83337   0.00000  Uiso   1.00
C1464  C     0.16415   0.63554   0.81225   0.00000  Uiso   1.00
C1465  C     0.11903   0.58259   0.85518   0.00000  Uiso   1.00
C1466  C     0.33587   0.86447   0.81222   0.00000  Uiso   1.00
C1467  C     0.09256   0.84339   0.83356   0.00000  Uiso   1.00
C1468  C     0.40744   0.65661   0.83355   0.00000  Uiso   1.00
C1469  C     0.40744   0.84339   0.83312   0.00000  Uiso   1.00
C1470  C     0.09255   0.65660   0.83310   0.00000  Uiso   1.00
C1471  C     0.34256   0.59340   0.83311   0.00000  Uiso   1.00
C1472  C     0.15744   0.90661   0.83311   0.00000  Uiso   1.00
C1473  C     0.15744   0.59339   0.83356   0.00000  Uiso   1.00
C1474  C     0.05927   0.81030   0.83337   0.00000  Uiso   1.00
C1475  C     0.34256   0.90661   0.83355   0.00000  Uiso   1.00
C1476  C     0.49805   0.83613   0.71385   0.00000  Uiso   1.00
C1477  C     0.49813   0.66387   0.95282   0.00000  Uiso   1.00
C1478  C     0.00199   0.66387   0.71384   0.00000  Uiso   1.00
C1479  C     0.00188   0.83613   0.95283   0.00000  Uiso   1.00
C1480  C     0.25191   0.58613   0.71386   0.00000  Uiso   1.00
C1481  C     0.25196   0.91387   0.95281   0.00000  Uiso   1.00
C1482  C     0.24809   0.91387   0.71384   0.00000  Uiso   1.00
C1483  C     0.24808   0.58613   0.95283   0.00000  Uiso   1.00
C1484  C     0.30927   0.93970   0.83336   0.00000  Uiso   1.00
C1485  C     0.19073   0.56030   0.83337   0.00000  Uiso   1.00
C1486  C     0.19073   0.93970   0.83330   0.00000  Uiso   1.00
C1487  C     0.30927   0.56030   0.83330   0.00000  Uiso   1.00
C1488  C     0.49962   0.79041   0.69048   0.00000  Uiso   1.00
H1489  H     0.49966   0.83370   0.74963   0.00000  Uiso   1.00
H1490  H     0.00033   0.83370   0.91705   0.00000  Uiso   1.00
H1491  H     0.47417   0.85747   0.96307   0.00000  Uiso   1.00
H1492  H     0.03224   0.85419   0.96086   0.00000  Uiso   1.00
H1493  H     0.25034   0.58370   0.74963   0.00000  Uiso   1.00
H1494  H     0.28229   0.60416   0.70584   0.00000  Uiso   1.00
H1495  H     0.22423   0.60750   0.70362   0.00000  Uiso   1.00
H1496  H     0.25033   0.91630   0.91704   0.00000  Uiso   1.00
H1497  H     0.28237   0.89590   0.96078   0.00000  Uiso   1.00
H1498  H     0.22433   0.89246   0.96309   0.00000  Uiso   1.00
H1499  H     0.24967   0.91630   0.74961   0.00000  Uiso   1.00
H1500  H     0.02571   0.85753   0.70359   0.00000  Uiso   1.00
H1501  H     0.21771   0.89584   0.70583   0.00000  Uiso   1.00
H1502  H     0.27577   0.89251   0.70358   0.00000  Uiso   1.00
H1503  H     0.24966   0.58370   0.91705   0.00000  Uiso   1.00
H1504  H     0.21770   0.60416   0.96085   0.00000  Uiso   1.00
H1505  H     0.27577   0.60750   0.96308   0.00000  Uiso   1.00
H1506  H     0.45081   0.59401   0.76044   0.00000  Uiso   1.00
H1507  H     0.46794   0.57566   0.81053   0.00000  Uiso   1.00
H1508  H     0.16265   0.77239   0.86543   0.00000  Uiso   1.00
H1509  H     0.14047   0.79584   0.91144   0.00000  Uiso   1.00
H1510  H     0.04918   0.90600   0.76046   0.00000  Uiso   1.00
H1511  H     0.46765   0.85413   0.70586   0.00000  Uiso   1.00
H1512  H     0.03206   0.92434   0.81058   0.00000  Uiso   1.00
H1513  H     0.33735   0.72763   0.86540   0.00000  Uiso   1.00
H1514  H     0.35951   0.70420   0.91143   0.00000  Uiso   1.00
H1515  H     0.04915   0.59399   0.90617   0.00000  Uiso   1.00
H1516  H     0.03206   0.57564   0.85606   0.00000  Uiso   1.00
H1517  H     0.33736   0.77239   0.80120   0.00000  Uiso   1.00
H1518  H     0.35956   0.79584   0.75520   0.00000  Uiso   1.00
H1519  H     0.45077   0.90598   0.90626   0.00000  Uiso   1.00
H1520  H     0.46794   0.92434   0.85617   0.00000  Uiso   1.00
H1521  H     0.16265   0.72762   0.80127   0.00000  Uiso   1.00
H1522  H     0.49967   0.66630   0.91703   0.00000  Uiso   1.00
H1523  H     0.14050   0.70417   0.75524   0.00000  Uiso   1.00
H1524  H     0.08735   0.97761   0.80123   0.00000  Uiso   1.00
H1525  H     0.10954   0.95416   0.75522   0.00000  Uiso   1.00
H1526  H     0.29919   0.65599   0.90623   0.00000  Uiso   1.00
H1527  H     0.28206   0.67436   0.85613   0.00000  Uiso   1.00
H1528  H     0.41265   0.52237   0.80127   0.00000  Uiso   1.00
H1529  H     0.39049   0.54579   0.75524   0.00000  Uiso   1.00
H1530  H     0.20082   0.84400   0.90620   0.00000  Uiso   1.00
H1531  H     0.21794   0.82567   0.85609   0.00000  Uiso   1.00
H1532  H     0.41264   0.97761   0.86548   0.00000  Uiso   1.00
H1533  H     0.02584   0.64253   0.96304   0.00000  Uiso   1.00
H1534  H     0.39043   0.95416   0.91147   0.00000  Uiso   1.00
H1535  H     0.20087   0.65604   0.76052   0.00000  Uiso   1.00
H1536  H     0.21794   0.67433   0.81066   0.00000  Uiso   1.00
H1537  H     0.08735   0.52237   0.86540   0.00000  Uiso   1.00
H1538  H     0.10950   0.54582   0.91142   0.00000  Uiso   1.00
H1539  H     0.29923   0.84404   0.76040   0.00000  Uiso   1.00
H1540  H     0.28206   0.82566   0.81049   0.00000  Uiso   1.00
H1541  H     0.46777   0.64581   0.96085   0.00000  Uiso   1.00
H1542  H     0.00034   0.66630   0.74962   0.00000  Uiso   1.00
H1543  H     0.47437   0.64243   0.70355   0.00000  Uiso   1.00
H1544  H     0.03243   0.64592   0.70586   0.00000  Uiso   1.00
N1545  N     0.00000   0.75000   0.95240   0.00000  Uiso   1.00
N1546  N     0.36434   0.78938   0.78892   0.00000  Uiso   1.00
N1547  N     0.45518   0.89628   0.87325   0.00000  Uiso   1.00
N1548  N     0.13569   0.71063   0.78896   0.00000  Uiso   1.00
N1549  N     0.11433   0.96062   0.78894   0.00000  Uiso   1.00
N1550  N     0.29481   0.64630   0.87321   0.00000  Uiso   1.00
N1551  N     0.38568   0.53936   0.78896   0.00000  Uiso   1.00
N1552  N     0.20519   0.85371   0.87320   0.00000  Uiso   1.00
N1553  N     0.38566   0.96062   0.87775   0.00000  Uiso   1.00
N1554  N     0.20521   0.64631   0.79352   0.00000  Uiso   1.00
N1555  N     0.11431   0.53937   0.87770   0.00000  Uiso   1.00
N1556  N     0.00000   0.75000   0.71427   0.00000  Uiso   1.00
N1557  N     0.29483   0.85372   0.79341   0.00000  Uiso   1.00
N1558  N     0.25000   0.50000   0.95240   0.00000  Uiso   1.00
N1559  N     0.25000   0.50000   0.71427   0.00000  Uiso   1.00
N1560  N     0.45519   0.60370   0.79344   0.00000  Uiso   1.00
N1561  N     0.13568   0.78938   0.87772   0.00000  Uiso   1.00
N1562  N     0.04480   0.89629   0.79347   0.00000  Uiso   1.00
N1563  N     0.36432   0.71064   0.87770   0.00000  Uiso   1.00
N1564  N     0.04479   0.60369   0.87316   0.00000  Uiso   1.00
O1565  O     0.04581   0.70419   0.87154   0.00000  Uiso   1.00
O1566  O     0.20420   0.54581   0.79513   0.00000  Uiso   1.00
O1567  O     0.20420   0.54581   0.87154   0.00000  Uiso   1.00
O1568  O     0.29581   0.95419   0.79513   0.00000  Uiso   1.00
O1569  O     0.20420   0.95419   0.79513   0.00000  Uiso   1.00
O1570  O     0.29581   0.54581   0.87154   0.00000  Uiso   1.00
O1571  O     0.29581   0.54581   0.79513   0.00000  Uiso   1.00
O1572  O     0.20420   0.95419   0.87154   0.00000  Uiso   1.00
O1573  O     0.45420   0.79581   0.79513   0.00000  Uiso   1.00
O1574  O     0.45420   0.79581   0.87154   0.00000  Uiso   1.00
O1575  O     0.04581   0.70419   0.79513   0.00000  Uiso   1.00
O1576  O     0.45420   0.70419   0.79513   0.00000  Uiso   1.00
O1577  O     0.04581   0.79581   0.87154   0.00000  Uiso   1.00
O1578  O     0.04581   0.79581   0.79513   0.00000  Uiso   1.00
O1579  O     0.45420   0.70419   0.87154   0.00000  Uiso   1.00
O1580  O     0.29581   0.95419   0.87154   0.00000  Uiso   1.00
Zn1581 Zn    0.00000   0.75000   0.88437   0.00000  Uiso   1.00
Zn1582 Zn    0.00000   0.75000   0.78229   0.00000  Uiso   1.00
Zn1583 Zn    0.25000   0.50000   0.88437   0.00000  Uiso   1.00
Zn1584 Zn    0.25000   0.50000   0.78229   0.00000  Uiso   1.00
C1585  C     0.55927   0.68970   0.83330   0.00000  Uiso   1.00
C1586  C     0.99965   0.70959   0.97619   0.00000  Uiso   1.00
C1587  C     0.50039   0.70959   0.69047   0.00000  Uiso   1.00
C1588  C     0.50035   0.79041   0.97620   0.00000  Uiso   1.00
C1589  C     0.75036   0.54041   0.69048   0.00000  Uiso   1.00
C1590  C     0.75038   0.95959   0.97619   0.00000  Uiso   1.00
C1591  C     0.74964   0.95959   0.69047   0.00000  Uiso   1.00
C1592  C     0.74963   0.54041   0.97620   0.00000  Uiso   1.00
C1593  C     0.91414   0.61446   0.81224   0.00000  Uiso   1.00
C1594  C     0.63096   0.83260   0.85519   0.00000  Uiso   1.00
C1595  C     0.58586   0.88554   0.81224   0.00000  Uiso   1.00
C1596  C     0.94073   0.81030   0.83330   0.00000  Uiso   1.00
C1597  C     0.86903   0.66742   0.85518   0.00000  Uiso   1.00
C1598  C     0.58585   0.61445   0.85440   0.00000  Uiso   1.00
C1599  C     0.86905   0.83260   0.81146   0.00000  Uiso   1.00
C1600  C     0.91413   0.88553   0.85444   0.00000  Uiso   1.00
C1601  C     0.63097   0.66740   0.81148   0.00000  Uiso   1.00
C1602  C     0.61904   0.91741   0.81148   0.00000  Uiso   1.00
C1603  C     0.83586   0.63554   0.85442   0.00000  Uiso   1.00
C1604  C     0.88096   0.58259   0.81148   0.00000  Uiso   1.00
C1605  C     0.66414   0.86447   0.85443   0.00000  Uiso   1.00
C1606  C     0.88096   0.91740   0.85520   0.00000  Uiso   1.00
C1607  C     0.94073   0.68970   0.83337   0.00000  Uiso   1.00
C1608  C     0.66415   0.63554   0.81225   0.00000  Uiso   1.00
C1609  C     0.61903   0.58259   0.85518   0.00000  Uiso   1.00
C1610  C     0.83587   0.86447   0.81222   0.00000  Uiso   1.00
C1611  C     0.59256   0.84339   0.83356   0.00000  Uiso   1.00
C1612  C     0.90744   0.65661   0.83355   0.00000  Uiso   1.00
C1613  C     0.90744   0.84339   0.83312   0.00000  Uiso   1.00
C1614  C     0.59255   0.65660   0.83310   0.00000  Uiso   1.00
C1615  C     0.84256   0.59340   0.83311   0.00000  Uiso   1.00
C1616  C     0.65744   0.90661   0.83311   0.00000  Uiso   1.00
C1617  C     0.65744   0.59339   0.83356   0.00000  Uiso   1.00
C1618  C     0.55927   0.81030   0.83337   0.00000  Uiso   1.00
C1619  C     0.84256   0.90661   0.83355   0.00000  Uiso   1.00
C1620  C     0.99805   0.83613   0.71385   0.00000  Uiso   1.00
C1621  C     0.99813   0.66387   0.95282   0.00000  Uiso   1.00
C1622  C     0.50199   0.66387   0.71384   0.00000  Uiso   1.00
C1623  C     0.50188   0.83613   0.95283   0.00000  Uiso   1.00
C1624  C     0.75191   0.58613   0.71386   0.00000  Uiso   1.00
C1625  C     0.75196   0.91387   0.95281   0.00000  Uiso   1.00
C1626  C     0.74809   0.91387   0.71384   0.00000  Uiso   1.00
C1627  C     0.74808   0.58613   0.95283   0.00000  Uiso   1.00
C1628  C     0.80927   0.93970   0.83336   0.00000  Uiso   1.00
C1629  C     0.69073   0.56030   0.83337   0.00000  Uiso   1.00
C1630  C     0.69073   0.93970   0.83330   0.00000  Uiso   1.00
C1631  C     0.80927   0.56030   0.83330   0.00000  Uiso   1.00
C1632  C     0.99962   0.79041   0.69048   0.00000  Uiso   1.00
H1633  H     0.99966   0.83370   0.74963   0.00000  Uiso   1.00
H1634  H     0.50033   0.83370   0.91705   0.00000  Uiso   1.00
H1635  H     0.97417   0.85747   0.96307   0.00000  Uiso   1.00
H1636  H     0.53224   0.85419   0.96086   0.00000  Uiso   1.00
H1637  H     0.75034   0.58370   0.74963   0.00000  Uiso   1.00
H1638  H     0.78229   0.60416   0.70584   0.00000  Uiso   1.00
H1639  H     0.72423   0.60750   0.70362   0.00000  Uiso   1.00
H1640  H     0.75033   0.91630   0.91704   0.00000  Uiso   1.00
H1641  H     0.78237   0.89590   0.96078   0.00000  Uiso   1.00
H1642  H     0.72433   0.89246   0.96309   0.00000  Uiso   1.00
H1643  H     0.74967   0.91630   0.74961   0.00000  Uiso   1.00
H1644  H     0.52571   0.85753   0.70359   0.00000  Uiso   1.00
H1645  H     0.71771   0.89584   0.70583   0.00000  Uiso   1.00
H1646  H     0.77577   0.89251   0.70358   0.00000  Uiso   1.00
H1647  H     0.74966   0.58370   0.91705   0.00000  Uiso   1.00
H1648  H     0.71770   0.60416   0.96085   0.00000  Uiso   1.00
H1649  H     0.77577   0.60750   0.96308   0.00000  Uiso   1.00
H1650  H     0.95081   0.59401   0.76044   0.00000  Uiso   1.00
H1651  H     0.96794   0.57566   0.81053   0.00000  Uiso   1.00
H1652  H     0.66265   0.77239   0.86543   0.00000  Uiso   1.00
H1653  H     0.64047   0.79584   0.91144   0.00000  Uiso   1.00
H1654  H     0.54918   0.90600   0.76046   0.00000  Uiso   1.00
H1655  H     0.96765   0.85413   0.70586   0.00000  Uiso   1.00
H1656  H     0.53206   0.92434   0.81058   0.00000  Uiso   1.00
H1657  H     0.83735   0.72763   0.86540   0.00000  Uiso   1.00
H1658  H     0.85951   0.70420   0.91143   0.00000  Uiso   1.00
H1659  H     0.54915   0.59399   0.90617   0.00000  Uiso   1.00
H1660  H     0.53206   0.57564   0.85606   0.00000  Uiso   1.00
H1661  H     0.83736   0.77239   0.80120   0.00000  Uiso   1.00
H1662  H     0.85956   0.79584   0.75520   0.00000  Uiso   1.00
H1663  H     0.95077   0.90598   0.90626   0.00000  Uiso   1.00
H1664  H     0.96794   0.92434   0.85617   0.00000  Uiso   1.00
H1665  H     0.66265   0.72762   0.80127   0.00000  Uiso   1.00
H1666  H     0.99967   0.66630   0.91703   0.00000  Uiso   1.00
H1667  H     0.64050   0.70417   0.75524   0.00000  Uiso   1.00
H1668  H     0.58735   0.97761   0.80123   0.00000  Uiso   1.00
H1669  H     0.60954   0.95416   0.75522   0.00000  Uiso   1.00
H1670  H     0.79919   0.65599   0.90623   0.00000  Uiso   1.00
H1671  H     0.78206   0.67436   0.85613   0.00000  Uiso   1.00
H1672  H     0.91265   0.52237   0.80127   0.00000  Uiso   1.00
H1673  H     0.89049   0.54579   0.75524   0.00000  Uiso   1.00
H1674  H     0.70082   0.84400   0.90620   0.00000  Uiso   1.00
H1675  H     0.71794   0.82567   0.85609   0.00000  Uiso   1.00
H1676  H     0.91264   0.97761   0.86548   0.00000  Uiso   1.00
H1677  H     0.52584   0.64253   0.96304   0.00000  Uiso   1.00
H1678  H     0.89043   0.95416   0.91147   0.00000  Uiso   1.00
H1679  H     0.70087   0.65604   0.76052   0.00000  Uiso   1.00
H1680  H     0.71794   0.67433   0.81066   0.00000  Uiso   1.00
H1681  H     0.58735   0.52237   0.86540   0.00000  Uiso   1.00
H1682  H     0.60950   0.54582   0.91142   0.00000  Uiso   1.00
H1683  H     0.79923   0.84404   0.76040   0.00000  Uiso   1.00
H1684  H     0.78206   0.82566   0.81049   0.00000  Uiso   1.00
H1685  H     0.96777   0.64581   0.96085   0.00000  Uiso   1.00
H1686  H     0.50034   0.66630   0.74962   0.00000  Uiso   1.00
H1687  H     0.97437   0.64243   0.70355   0.00000  Uiso   1.00
H1688  H     0.53243   0.64592   0.70586   0.00000  Uiso   1.00
N1689  N     0.50000   0.75000   0.95240   0.00000  Uiso   1.00
N1690  N     0.86434   0.78938   0.78892   0.00000  Uiso   1.00
N1691  N     0.95518   0.89628   0.87325   0.00000  Uiso   1.00
N1692  N     0.63569   0.71063   0.78896   0.00000  Uiso   1.00
N1693  N     0.61433   0.96062   0.78894   0.00000  Uiso   1.00
N1694  N     0.79481   0.64630   0.87321   0.00000  Uiso   1.00
N1695  N     0.88568   0.53936   0.78896   0.00000  Uiso   1.00
N1696  N     0.70519   0.85371   0.87320   0.00000  Uiso   1.00
N1697  N     0.88566   0.96062   0.87775   0.00000  Uiso   1.00
N1698  N     0.70521   0.64631   0.79352   0.00000  Uiso   1.00
N1699  N     0.61431   0.53937   0.87770   0.00000  Uiso   1.00
N1700  N     0.50000   0.75000   0.71427   0.00000  Uiso   1.00
N1701  N     0.79483   0.85372   0.79341   0.00000  Uiso   1.00
N1702  N     0.75000   0.50000   0.95240   0.00000  Uiso   1.00
N1703  N     0.75000   0.50000   0.71427   0.00000  Uiso   1.00
N1704  N     0.95519   0.60370   0.79344   0.00000  Uiso   1.00
N1705  N     0.63568   0.78938   0.87772   0.00000  Uiso   1.00
N1706  N     0.54480   0.89629   0.79347   0.00000  Uiso   1.00
N1707  N     0.86432   0.71064   0.87770   0.00000  Uiso   1.00
N1708  N     0.54479   0.60369   0.87316   0.00000  Uiso   1.00
O1709  O     0.54581   0.70419   0.87154   0.00000  Uiso   1.00
O1710  O     0.70420   0.54581   0.79513   0.00000  Uiso   1.00
O1711  O     0.70420   0.54581   0.87154   0.00000  Uiso   1.00
O1712  O     0.79581   0.95419   0.79513   0.00000  Uiso   1.00
O1713  O     0.70420   0.95419   0.79513   0.00000  Uiso   1.00
O1714  O     0.79581   0.54581   0.87154   0.00000  Uiso   1.00
O1715  O     0.79581   0.54581   0.79513   0.00000  Uiso   1.00
O1716  O     0.70420   0.95419   0.87154   0.00000  Uiso   1.00
O1717  O     0.95420   0.79581   0.79513   0.00000  Uiso   1.00
O1718  O     0.95420   0.79581   0.87154   0.00000  Uiso   1.00
O1719  O     0.54581   0.70419   0.79513   0.00000  Uiso   1.00
O1720  O     0.95420   0.70419   0.79513   0.00000  Uiso   1.00
O1721  O     0.54581   0.79581   0.87154   0.00000  Uiso   1.00
O1722  O     0.54581   0.79581   0.79513   0.00000  Uiso   1.00
O1723  O     0.95420   0.70419   0.87154   0.00000  Uiso   1.00
O1724  O     0.79581   0.95419   0.87154   0.00000  Uiso   1.00
Zn1725 Zn    0.50000   0.75000   0.88437   0.00000  Uiso   1.00
Zn1726 Zn    0.50000   0.75000   0.78229   0.00000  Uiso   1.00
Zn1727 Zn    0.75000   0.50000   0.88437   0.00000  Uiso   1.00
Zn1728 Zn    0.75000   0.50000   0.78229   0.00000  Uiso   1.00
loop_
_geom_bond_atom_site_label_1
_geom_bond_atom_site_label_2
_geom_bond_distance
_geom_bond_site_symmetry_2
_ccdc_geom_bond_type
C1     O125    1.298   .     A
C1     C30     1.416   .     S
C1     O135    1.296   .     A
C2     C37     1.507   .     S
C2     C723    1.436   .     S
C2     N249    1.378   .     S
C3     C38     1.507   .     S
C3     C1298   1.436   1_454 S
C3     N116    1.378   .     S
C4     C39     1.507   .     S
C4     N105    1.378   .     A
C4     C768    1.436   1_455 S
C5     N119    1.378   .     A
C5     C40     1.507   .     S
C5     C1160   1.436   1_554 S
C6     C41     1.507   .     S
C6     C583    1.436   .     S
C6     N406    1.378   .     S
C7     C42     1.507   .     S
C7     C1158   1.436   1_554 S
C7     N407    1.378   .     S
C8     C43     1.507   .     S
C8     N118    1.378   .     A
C8     C581    1.436   .     S
C9     C20     1.390   .     A
C9     N120    1.435   .     S
C9     C28     1.401   .     A
C10    C27     1.400   .     A
C10    N121    1.438   .     S
C10    C21     1.390   .     A
C11    C18     1.390   .     A
C11    C27     1.401   .     A
C11    N122    1.435   .     S
C12    C29     1.416   .     S
C12    O134    1.298   .     A
C12    O133    1.296   .     A
C13    N123    1.438   .     S
C13    C28     1.400   .     A
C13    C19     1.390   .     A
C14    C30     1.401   .     A
C14    N124    1.435   .     S
C14    C25     1.390   .     A
C15    N106    1.438   .     S
C15    C29     1.400   .     A
C15    C26     1.390   .     A
C16    N107    1.435   .     S
C16    C29     1.401   .     A
C16    C22     1.390   .     A
C17    C30     1.400   .     A
C17    C24     1.390   .     A
C17    N108    1.438   .     S
C18    N109    1.438   .     S
C18    C32     1.400   .     A
C19    C31     1.401   .     A
C19    N110    1.435   .     S
C20    N111    1.438   .     S
C20    C31     1.400   .     A
C21    C32     1.401   .     A
C21    N112    1.435   .     S
C22    C35     1.400   .     A
C22    N113    1.438   .     S
C23    O136    1.298   .     A
C23    O139    1.296   .     A
C23    C28     1.416   .     S
C24    N114    1.435   .     S
C24    C33     1.401   .     A
C25    N115    1.438   .     S
C25    C33     1.400   .     A
C26    N117    1.435   .     S
C26    C35     1.401   .     A
C27    C34     1.416   .     S
C31    C47     1.416   .     S
C32    C46     1.416   .     S
C33    C45     1.416   .     S
C34    O138    1.298   .     A
C34    O137    1.296   .     A
C35    C44     1.416   .     S
C36    C48     1.507   .     S
C36    H71     1.110   .     S
C36    H49     1.083   .     S
C36    H204    1.108   .     S
C37    H82     1.083   .     S
C37    H101    1.110   .     S
C37    H237    1.108   .     S
C38    H104    1.110   .     S
C38    H102    1.083   .     S
C38    H247    1.108   1_455 S
C39    H52     1.110   .     S
C39    H50     1.083   .     S
C39    H195    1.108   1_455 S
C40    H55     1.108   .     S
C40    H54     1.110   .     S
C40    H53     1.083   .     S
C41    H58     1.108   .     S
C41    H56     1.083   .     S
C41    H57     1.110   .     S
C42    H62     1.108   .     S
C42    H61     1.110   .     S
C42    H59     1.083   .     S
C43    H63     1.083   .     S
C43    H64     1.110   .     S
C43    H65     1.108   .     S
C44    O140    1.296   .     A
C44    O128    1.298   .     A
C45    O126    1.298   .     A
C45    O127    1.296   .     A
C46    O129    1.296   .     A
C46    O132    1.298   .     A
C47    O130    1.298   .     A
C47    O131    1.296   .     A
C48    N260    1.378   .     A
C48    C1300   1.436   1_554 S
H51    C183    1.108   .     S
H60    C180    1.108   1_455 S
H66    N120    1.044   .     S
H67    N120    1.044   .     S
H68    N121    1.044   .     S
H69    N121    1.045   .     S
H70    N122    1.044   .     S
H72    N122    1.045   .     S
H73    N123    1.044   .     S
H74    N123    1.045   .     S
H75    N124    1.044   .     S
H76    N124    1.044   .     S
H77    N106    1.044   .     S
H78    N106    1.045   .     S
H79    N107    1.044   .     S
H80    N107    1.045   .     S
H81    N108    1.044   .     S
H83    N108    1.045   .     S
H84    N109    1.044   .     S
H85    N109    1.045   .     S
H86    N110    1.044   .     S
H87    N110    1.045   .     S
H88    N111    1.044   .     S
H89    N111    1.045   .     S
H90    N112    1.044   .     S
H91    N112    1.044   .     S
H92    N113    1.044   .     S
H93    C181    1.108   1_455 S
H94    N113    1.045   .     S
H95    N114    1.044   .     S
H96    N114    1.044   .     S
H97    N115    1.044   .     S
H98    N115    1.045   .     S
H99    N117    1.044   .     S
H100   N117    1.045   .     S
H103   C182    1.108   .     S
N105   Zn141   2.052   .     S
N105   C146    1.378   1_455 S
N116   C192    1.378   1_455 A
N116   Zn142   2.052   .     S
N118   Zn143   2.052   .     S
N118   C294    1.378   1_545 S
N119   Zn144   2.052   .     S
N119   C295    1.378   1_545 S
O125   Zn141   1.992   .     S
O126   Zn144   1.992   .     S
O127   Zn143   1.992   .     S
O128   Zn432   1.992   .     S
O129   Zn432   1.992   .     S
O130   Zn143   1.992   .     S
O131   Zn144   1.992   .     S
O132   Zn431   1.992   .     S
O133   Zn286   1.992   .     S
O134   Zn285   1.992   .     S
O135   Zn142   1.992   .     S
O136   Zn286   1.992   .     S
O137   Zn141   1.992   .     S
O138   Zn142   1.992   .     S
O139   Zn285   1.992   .     S
O140   Zn431   1.992   .     S
Zn141  O283    1.992   1_455 S
Zn141  O278    1.992   1_455 S
Zn142  O280    1.992   1_455 S
Zn142  O277    1.992   1_455 S
Zn143  O420    1.992   1_545 S
Zn143  O428    1.992   1_545 S
Zn144  O417    1.992   1_545 S
Zn144  O416    1.992   1_545 S
C145   O269    1.298   .     A
C145   C174    1.416   .     S
C145   O279    1.296   .     A
C146   C181    1.507   .     S
C146   C579    1.436   1_655 S
C146   N105    1.378   1_655 S
C147   C182    1.507   .     S
C147   C1154   1.436   1_554 S
C147   N260    1.378   .     S
C148   C183    1.507   .     S
C148   N249    1.378   .     A
C148   C624    1.436   .     S
C149   N263    1.378   .     A
C149   C184    1.507   .     S
C149   C1304   1.436   1_554 S
C150   C185    1.507   .     S
C150   C727    1.436   .     S
C150   N550    1.378   .     S
C151   C186    1.507   .     S
C151   C1302   1.436   1_554 S
C151   N551    1.378   .     S
C152   C187    1.507   .     S
C152   N262    1.378   .     A
C152   C725    1.436   .     S
C153   C164    1.390   .     A
C153   N264    1.435   .     S
C153   C172    1.401   .     A
C154   C171    1.400   .     A
C154   N265    1.438   .     S
C154   C165    1.390   .     A
C155   C162    1.390   .     A
C155   C171    1.401   .     A
C155   N266    1.435   .     S
C156   C173    1.416   .     S
C156   O278    1.298   .     A
C156   O277    1.296   .     A
C157   N267    1.438   .     S
C157   C172    1.400   .     A
C157   C163    1.390   .     A
C158   C174    1.401   .     A
C158   N268    1.435   .     S
C158   C169    1.390   .     A
C159   N250    1.438   .     S
C159   C173    1.400   .     A
C159   C170    1.390   .     A
C160   N251    1.435   .     S
C160   C173    1.401   .     A
C160   C166    1.390   .     A
C161   C174    1.400   .     A
C161   C168    1.390   .     A
C161   N252    1.438   .     S
C162   N253    1.438   .     S
C162   C176    1.400   .     A
C163   C175    1.401   .     A
C163   N254    1.435   .     S
C164   N255    1.438   .     S
C164   C175    1.400   .     A
C165   C176    1.401   .     A
C165   N256    1.435   .     S
C166   C179    1.400   .     A
C166   N257    1.438   .     S
C167   O280    1.298   .     A
C167   O283    1.296   .     A
C167   C172    1.416   .     S
C168   N258    1.435   .     S
C168   C177    1.401   .     A
C169   N259    1.438   .     S
C169   C177    1.400   .     A
C170   N261    1.435   .     S
C170   C179    1.401   .     A
C171   C178    1.416   .     S
C175   C191    1.416   .     S
C176   C190    1.416   .     S
C177   C189    1.416   .     S
C178   O282    1.298   .     A
C178   O281    1.296   .     A
C179   C188    1.416   .     S
C180   C192    1.507   .     S
C180   H215    1.110   .     S
C180   H193    1.083   .     S
C180   H60     1.108   1_655 S
C181   H226    1.083   .     S
C181   H245    1.110   .     S
C181   H93     1.108   1_655 S
C182   H248    1.110   .     S
C182   H246    1.083   .     S
C183   H196    1.110   .     S
C183   H194    1.083   .     S
C184   H199    1.108   .     S
C184   H198    1.110   .     S
C184   H197    1.083   .     S
C185   H202    1.108   .     S
C185   H200    1.083   .     S
C185   H201    1.110   .     S
C186   H206    1.108   .     S
C186   H205    1.110   .     S
C186   H203    1.083   .     S
C187   H207    1.083   .     S
C187   H208    1.110   .     S
C187   H209    1.108   .     S
C188   O284    1.296   .     A
C188   O272    1.298   .     A
C189   O270    1.298   .     A
C189   O271    1.296   .     A
C190   O273    1.296   .     A
C190   O276    1.298   .     A
C191   O274    1.298   .     A
C191   O275    1.296   .     A
C192   N116    1.378   1_655 A
C192   C1156   1.436   1_654 S
H195   C39     1.108   1_655 S
H210   N264    1.044   .     S
H211   N264    1.044   .     S
H212   N265    1.044   .     S
H213   N265    1.045   .     S
H214   N266    1.044   .     S
H216   N266    1.045   .     S
H217   N267    1.044   .     S
H218   N267    1.045   .     S
H219   N268    1.044   .     S
H220   N268    1.044   .     S
H221   N250    1.044   .     S
H222   N250    1.045   .     S
H223   N251    1.044   .     S
H224   N251    1.045   .     S
H225   N252    1.044   .     S
H227   N252    1.045   .     S
H228   N253    1.044   .     S
H229   N253    1.045   .     S
H230   N254    1.044   .     S
H231   N254    1.045   .     S
H232   N255    1.044   .     S
H233   N255    1.045   .     S
H234   N256    1.044   .     S
H235   N256    1.044   .     S
H236   N257    1.044   .     S
H238   N257    1.045   .     S
H239   N258    1.044   .     S
H240   N258    1.044   .     S
H241   N259    1.044   .     S
H242   N259    1.045   .     S
H243   N261    1.044   .     S
H244   N261    1.045   .     S
H247   C38     1.108   1_655 S
N249   Zn285   2.052   .     S
N260   Zn286   2.052   .     S
N262   Zn287   2.052   .     S
N262   C438    1.378   1_545 S
N263   Zn288   2.052   .     S
N263   C439    1.378   1_545 S
O269   Zn285   1.992   .     S
O270   Zn288   1.992   .     S
O271   Zn287   1.992   .     S
O272   Zn576   1.992   .     S
O273   Zn576   1.992   .     S
O274   Zn287   1.992   .     S
O275   Zn288   1.992   .     S
O276   Zn575   1.992   .     S
O277   Zn142   1.992   1_655 S
O278   Zn141   1.992   1_655 S
O279   Zn286   1.992   .     S
O280   Zn142   1.992   1_655 S
O281   Zn285   1.992   .     S
O282   Zn286   1.992   .     S
O283   Zn141   1.992   1_655 S
O284   Zn575   1.992   .     S
Zn287  O564    1.992   1_545 S
Zn287  O572    1.992   1_545 S
Zn288  O561    1.992   1_545 S
Zn288  O560    1.992   1_545 S
C289   O413    1.298   .     A
C289   C318    1.416   .     S
C289   O423    1.296   .     A
C290   C325    1.507   .     S
C290   C1011   1.436   .     S
C290   N537    1.378   .     S
C291   C326    1.507   .     S
C291   C1586   1.436   1_454 S
C291   N404    1.378   .     S
C292   C327    1.507   .     S
C292   N393    1.378   .     A
C292   C1056   1.436   1_455 S
C293   N407    1.378   .     A
C293   C328    1.507   .     S
C293   C1448   1.436   1_554 S
C294   C329    1.507   .     S
C294   C871    1.436   .     S
C294   N118    1.378   1_565 S
C295   C330    1.507   .     S
C295   C1446   1.436   1_554 S
C295   N119    1.378   1_565 S
C296   C331    1.507   .     S
C296   N406    1.378   .     A
C296   C869    1.436   .     S
C297   C308    1.390   .     A
C297   N408    1.435   .     S
C297   C316    1.401   .     A
C298   C315    1.400   .     A
C298   N409    1.438   .     S
C298   C309    1.390   .     A
C299   C306    1.390   .     A
C299   C315    1.401   .     A
C299   N410    1.435   .     S
C300   C317    1.416   .     S
C300   O422    1.298   .     A
C300   O421    1.296   .     A
C301   N411    1.438   .     S
C301   C316    1.400   .     A
C301   C307    1.390   .     A
C302   C318    1.401   .     A
C302   N412    1.435   .     S
C302   C313    1.390   .     A
C303   N394    1.438   .     S
C303   C317    1.400   .     A
C303   C314    1.390   .     A
C304   N395    1.435   .     S
C304   C317    1.401   .     A
C304   C310    1.390   .     A
C305   C318    1.400   .     A
C305   C312    1.390   .     A
C305   N396    1.438   .     S
C306   N397    1.438   .     S
C306   C320    1.400   .     A
C307   C319    1.401   .     A
C307   N398    1.435   .     S
C308   N399    1.438   .     S
C308   C319    1.400   .     A
C309   C320    1.401   .     A
C309   N400    1.435   .     S
C310   C323    1.400   .     A
C310   N401    1.438   .     S
C311   O424    1.298   .     A
C311   O427    1.296   .     A
C311   C316    1.416   .     S
C312   N402    1.435   .     S
C312   C321    1.401   .     A
C313   N403    1.438   .     S
C313   C321    1.400   .     A
C314   N405    1.435   .     S
C314   C323    1.401   .     A
C315   C322    1.416   .     S
C319   C335    1.416   .     S
C320   C334    1.416   .     S
C321   C333    1.416   .     S
C322   O426    1.298   .     A
C322   O425    1.296   .     A
C323   C332    1.416   .     S
C324   C336    1.507   .     S
C324   H359    1.110   .     S
C324   H337    1.083   .     S
C324   H492    1.108   .     S
C325   H370    1.083   .     S
C325   H389    1.110   .     S
C325   H525    1.108   .     S
C326   H392    1.110   .     S
C326   H390    1.083   .     S
C326   H535    1.108   1_455 S
C327   H340    1.110   .     S
C327   H338    1.083   .     S
C327   H483    1.108   1_455 S
C328   H343    1.108   .     S
C328   H342    1.110   .     S
C328   H341    1.083   .     S
C329   H346    1.108   .     S
C329   H344    1.083   .     S
C329   H345    1.110   .     S
C330   H350    1.108   .     S
C330   H349    1.110   .     S
C330   H347    1.083   .     S
C331   H351    1.083   .     S
C331   H352    1.110   .     S
C331   H353    1.108   .     S
C332   O428    1.296   .     A
C332   O416    1.298   .     A
C333   O414    1.298   .     A
C333   O415    1.296   .     A
C334   O417    1.296   .     A
C334   O420    1.298   .     A
C335   O418    1.298   .     A
C335   O419    1.296   .     A
C336   N548    1.378   .     A
C336   C1588   1.436   1_554 S
H339   C471    1.108   .     S
H348   C468    1.108   1_455 S
H354   N408    1.044   .     S
H355   N408    1.044   .     S
H356   N409    1.044   .     S
H357   N409    1.045   .     S
H358   N410    1.044   .     S
H360   N410    1.045   .     S
H361   N411    1.044   .     S
H362   N411    1.045   .     S
H363   N412    1.044   .     S
H364   N412    1.044   .     S
H365   N394    1.044   .     S
H366   N394    1.045   .     S
H367   N395    1.044   .     S
H368   N395    1.045   .     S
H369   N396    1.044   .     S
H371   N396    1.045   .     S
H372   N397    1.044   .     S
H373   N397    1.045   .     S
H374   N398    1.044   .     S
H375   N398    1.045   .     S
H376   N399    1.044   .     S
H377   N399    1.045   .     S
H378   N400    1.044   .     S
H379   N400    1.044   .     S
H380   N401    1.044   .     S
H381   C469    1.108   1_455 S
H382   N401    1.045   .     S
H383   N402    1.044   .     S
H384   N402    1.044   .     S
H385   N403    1.044   .     S
H386   N403    1.045   .     S
H387   N405    1.044   .     S
H388   N405    1.045   .     S
H391   C470    1.108   .     S
N393   Zn429   2.052   .     S
N393   C434    1.378   1_455 S
N404   C480    1.378   1_455 A
N404   Zn430   2.052   .     S
N406   Zn431   2.052   .     S
N407   Zn432   2.052   .     S
O413   Zn429   1.992   .     S
O414   Zn432   1.992   .     S
O415   Zn431   1.992   .     S
O416   Zn144   1.992   1_565 S
O417   Zn144   1.992   1_565 S
O418   Zn431   1.992   .     S
O419   Zn432   1.992   .     S
O420   Zn143   1.992   1_565 S
O421   Zn574   1.992   .     S
O422   Zn573   1.992   .     S
O423   Zn430   1.992   .     S
O424   Zn574   1.992   .     S
O425   Zn429   1.992   .     S
O426   Zn430   1.992   .     S
O427   Zn573   1.992   .     S
O428   Zn143   1.992   1_565 S
Zn429  O571    1.992   1_455 S
Zn429  O566    1.992   1_455 S
Zn430  O568    1.992   1_455 S
Zn430  O565    1.992   1_455 S
C433   O557    1.298   .     A
C433   C462    1.416   .     S
C433   O567    1.296   .     A
C434   C469    1.507   .     S
C434   C867    1.436   1_655 S
C434   N393    1.378   1_655 S
C435   C470    1.507   .     S
C435   C1442   1.436   1_554 S
C435   N548    1.378   .     S
C436   C471    1.507   .     S
C436   N537    1.378   .     A
C436   C912    1.436   .     S
C437   N551    1.378   .     A
C437   C472    1.507   .     S
C437   C1592   1.436   1_554 S
C438   C473    1.507   .     S
C438   C1015   1.436   .     S
C438   N262    1.378   1_565 S
C439   C474    1.507   .     S
C439   C1590   1.436   1_554 S
C439   N263    1.378   1_565 S
C440   C475    1.507   .     S
C440   N550    1.378   .     A
C440   C1013   1.436   .     S
C441   C452    1.390   .     A
C441   N552    1.435   .     S
C441   C460    1.401   .     A
C442   C459    1.400   .     A
C442   N553    1.438   .     S
C442   C453    1.390   .     A
C443   C450    1.390   .     A
C443   C459    1.401   .     A
C443   N554    1.435   .     S
C444   C461    1.416   .     S
C444   O566    1.298   .     A
C444   O565    1.296   .     A
C445   N555    1.438   .     S
C445   C460    1.400   .     A
C445   C451    1.390   .     A
C446   C462    1.401   .     A
C446   N556    1.435   .     S
C446   C457    1.390   .     A
C447   N538    1.438   .     S
C447   C461    1.400   .     A
C447   C458    1.390   .     A
C448   N539    1.435   .     S
C448   C461    1.401   .     A
C448   C454    1.390   .     A
C449   C462    1.400   .     A
C449   C456    1.390   .     A
C449   N540    1.438   .     S
C450   N541    1.438   .     S
C450   C464    1.400   .     A
C451   C463    1.401   .     A
C451   N542    1.435   .     S
C452   N543    1.438   .     S
C452   C463    1.400   .     A
C453   C464    1.401   .     A
C453   N544    1.435   .     S
C454   C467    1.400   .     A
C454   N545    1.438   .     S
C455   O568    1.298   .     A
C455   O571    1.296   .     A
C455   C460    1.416   .     S
C456   N546    1.435   .     S
C456   C465    1.401   .     A
C457   N547    1.438   .     S
C457   C465    1.400   .     A
C458   N549    1.435   .     S
C458   C467    1.401   .     A
C459   C466    1.416   .     S
C463   C479    1.416   .     S
C464   C478    1.416   .     S
C465   C477    1.416   .     S
C466   O570    1.298   .     A
C466   O569    1.296   .     A
C467   C476    1.416   .     S
C468   C480    1.507   .     S
C468   H503    1.110   .     S
C468   H481    1.083   .     S
C468   H348    1.108   1_655 S
C469   H514    1.083   .     S
C469   H533    1.110   .     S
C469   H381    1.108   1_655 S
C470   H536    1.110   .     S
C470   H534    1.083   .     S
C471   H484    1.110   .     S
C471   H482    1.083   .     S
C472   H487    1.108   .     S
C472   H486    1.110   .     S
C472   H485    1.083   .     S
C473   H490    1.108   .     S
C473   H488    1.083   .     S
C473   H489    1.110   .     S
C474   H494    1.108   .     S
C474   H493    1.110   .     S
C474   H491    1.083   .     S
C475   H495    1.083   .     S
C475   H496    1.110   .     S
C475   H497    1.108   .     S
C476   O572    1.296   .     A
C476   O560    1.298   .     A
C477   O558    1.298   .     A
C477   O559    1.296   .     A
C478   O561    1.296   .     A
C478   O564    1.298   .     A
C479   O562    1.298   .     A
C479   O563    1.296   .     A
C480   N404    1.378   1_655 A
C480   C1444   1.436   1_654 S
H483   C327    1.108   1_655 S
H498   N552    1.044   .     S
H499   N552    1.044   .     S
H500   N553    1.044   .     S
H501   N553    1.045   .     S
H502   N554    1.044   .     S
H504   N554    1.045   .     S
H505   N555    1.044   .     S
H506   N555    1.045   .     S
H507   N556    1.044   .     S
H508   N556    1.044   .     S
H509   N538    1.044   .     S
H510   N538    1.045   .     S
H511   N539    1.044   .     S
H512   N539    1.045   .     S
H513   N540    1.044   .     S
H515   N540    1.045   .     S
H516   N541    1.044   .     S
H517   N541    1.045   .     S
H518   N542    1.044   .     S
H519   N542    1.045   .     S
H520   N543    1.044   .     S
H521   N543    1.045   .     S
H522   N544    1.044   .     S
H523   N544    1.044   .     S
H524   N545    1.044   .     S
H526   N545    1.045   .     S
H527   N546    1.044   .     S
H528   N546    1.044   .     S
H529   N547    1.044   .     S
H530   N547    1.045   .     S
H531   N549    1.044   .     S
H532   N549    1.045   .     S
H535   C326    1.108   1_655 S
N537   Zn573   2.052   .     S
N548   Zn574   2.052   .     S
N550   Zn575   2.052   .     S
N551   Zn576   2.052   .     S
O557   Zn573   1.992   .     S
O558   Zn576   1.992   .     S
O559   Zn575   1.992   .     S
O560   Zn288   1.992   1_565 S
O561   Zn288   1.992   1_565 S
O562   Zn575   1.992   .     S
O563   Zn576   1.992   .     S
O564   Zn287   1.992   1_565 S
O565   Zn430   1.992   1_655 S
O566   Zn429   1.992   1_655 S
O567   Zn574   1.992   .     S
O568   Zn430   1.992   1_655 S
O569   Zn573   1.992   .     S
O570   Zn574   1.992   .     S
O571   Zn429   1.992   1_655 S
O572   Zn287   1.992   1_565 S
C577   O701    1.298   .     A
C577   C606    1.416   .     S
C577   O711    1.296   .     A
C578   C613    1.507   .     S
C578   C1299   1.436   .     S
C578   N825    1.378   .     S
C579   C614    1.507   .     S
C579   C146    1.436   1_455 S
C579   N692    1.378   .     S
C580   C615    1.507   .     S
C580   N681    1.378   .     A
C580   C1344   1.436   1_455 S
C581   N695    1.378   .     A
C581   C616    1.507   .     S
C582   C617    1.507   .     S
C582   C1159   1.436   .     S
C582   N982    1.378   .     S
C583   C618    1.507   .     S
C583   N983    1.378   .     S
C584   C619    1.507   .     S
C584   N694    1.378   .     A
C584   C1157   1.436   .     S
C585   C596    1.390   .     A
C585   N696    1.435   .     S
C585   C604    1.401   .     A
C586   C603    1.400   .     A
C586   N697    1.438   .     S
C586   C597    1.390   .     A
C587   C594    1.390   .     A
C587   C603    1.401   .     A
C587   N698    1.435   .     S
C588   C605    1.416   .     S
C588   O710    1.298   .     A
C588   O709    1.296   .     A
C589   N699    1.438   .     S
C589   C604    1.400   .     A
C589   C595    1.390   .     A
C590   C606    1.401   .     A
C590   N700    1.435   .     S
C590   C601    1.390   .     A
C591   N682    1.438   .     S
C591   C605    1.400   .     A
C591   C602    1.390   .     A
C592   N683    1.435   .     S
C592   C605    1.401   .     A
C592   C598    1.390   .     A
C593   C606    1.400   .     A
C593   C600    1.390   .     A
C593   N684    1.438   .     S
C594   N685    1.438   .     S
C594   C608    1.400   .     A
C595   C607    1.401   .     A
C595   N686    1.435   .     S
C596   N687    1.438   .     S
C596   C607    1.400   .     A
C597   C608    1.401   .     A
C597   N688    1.435   .     S
C598   C611    1.400   .     A
C598   N689    1.438   .     S
C599   O712    1.298   .     A
C599   O715    1.296   .     A
C599   C604    1.416   .     S
C600   N690    1.435   .     S
C600   C609    1.401   .     A
C601   N691    1.438   .     S
C601   C609    1.400   .     A
C602   N693    1.435   .     S
C602   C611    1.401   .     A
C603   C610    1.416   .     S
C607   C623    1.416   .     S
C608   C622    1.416   .     S
C609   C621    1.416   .     S
C610   O714    1.298   .     A
C610   O713    1.296   .     A
C611   C620    1.416   .     S
C612   C624    1.507   .     S
C612   H647    1.110   .     S
C612   H625    1.083   .     S
C612   H780    1.108   .     S
C613   H658    1.083   .     S
C613   H677    1.110   .     S
C613   H813    1.108   .     S
C614   H680    1.110   .     S
C614   H678    1.083   .     S
C614   H823    1.108   1_455 S
C615   H628    1.110   .     S
C615   H626    1.083   .     S
C615   H771    1.108   1_455 S
C616   H631    1.108   .     S
C616   H630    1.110   .     S
C616   H629    1.083   .     S
C617   H634    1.108   .     S
C617   H632    1.083   .     S
C617   H633    1.110   .     S
C618   H638    1.108   .     S
C618   H637    1.110   .     S
C618   H635    1.083   .     S
C619   H639    1.083   .     S
C619   H640    1.110   .     S
C619   H641    1.108   .     S
C620   O716    1.296   .     A
C620   O704    1.298   .     A
C621   O702    1.298   .     A
C621   O703    1.296   .     A
C622   O705    1.296   .     A
C622   O708    1.298   .     A
C623   O706    1.298   .     A
C623   O707    1.296   .     A
C624   N836    1.378   .     A
H627   C759    1.108   .     S
H636   C756    1.108   1_455 S
H642   N696    1.044   .     S
H643   N696    1.044   .     S
H644   N697    1.044   .     S
H645   N697    1.045   .     S
H646   N698    1.044   .     S
H648   N698    1.045   .     S
H649   N699    1.044   .     S
H650   N699    1.045   .     S
H651   N700    1.044   .     S
H652   N700    1.044   .     S
H653   N682    1.044   .     S
H654   N682    1.045   .     S
H655   N683    1.044   .     S
H656   N683    1.045   .     S
H657   N684    1.044   .     S
H659   N684    1.045   .     S
H660   N685    1.044   .     S
H661   N685    1.045   .     S
H662   N686    1.044   .     S
H663   N686    1.045   .     S
H664   N687    1.044   .     S
H665   N687    1.045   .     S
H666   N688    1.044   .     S
H667   N688    1.044   .     S
H668   N689    1.044   .     S
H669   C757    1.108   1_455 S
H670   N689    1.045   .     S
H671   N690    1.044   .     S
H672   N690    1.044   .     S
H673   N691    1.044   .     S
H674   N691    1.045   .     S
H675   N693    1.044   .     S
H676   N693    1.045   .     S
H679   C758    1.108   .     S
N681   Zn717   2.052   .     S
N681   C722    1.378   1_455 S
N692   C768    1.378   1_455 A
N692   Zn718   2.052   .     S
N694   Zn719   2.052   .     S
N694   C870    1.378   1_545 S
N695   Zn720   2.052   .     S
N695   C871    1.378   1_545 S
O701   Zn717   1.992   .     S
O702   Zn720   1.992   .     S
O703   Zn719   1.992   .     S
O704   Zn1008  1.992   .     S
O705   Zn1008  1.992   .     S
O706   Zn719   1.992   .     S
O707   Zn720   1.992   .     S
O708   Zn1007  1.992   .     S
O709   Zn862   1.992   .     S
O710   Zn861   1.992   .     S
O711   Zn718   1.992   .     S
O712   Zn862   1.992   .     S
O713   Zn717   1.992   .     S
O714   Zn718   1.992   .     S
O715   Zn861   1.992   .     S
O716   Zn1007  1.992   .     S
Zn717  O859    1.992   1_455 S
Zn717  O854    1.992   1_455 S
Zn718  O856    1.992   1_455 S
Zn718  O853    1.992   1_455 S
Zn719  O996    1.992   1_545 S
Zn719  O1004   1.992   1_545 S
Zn720  O993    1.992   1_545 S
Zn720  O992    1.992   1_545 S
C721   O845    1.298   .     A
C721   C750    1.416   .     S
C721   O855    1.296   .     A
C722   C757    1.507   .     S
C722   C1155   1.436   1_655 S
C722   N681    1.378   1_655 S
C723   C758    1.507   .     S
C723   N836    1.378   .     S
C724   C759    1.507   .     S
C724   N825    1.378   .     A
C724   C1200   1.436   .     S
C725   N839    1.378   .     A
C725   C760    1.507   .     S
C726   C761    1.507   .     S
C726   C1303   1.436   .     S
C726   N1126   1.378   .     S
C727   C762    1.507   .     S
C727   N1127   1.378   .     S
C728   C763    1.507   .     S
C728   N838    1.378   .     A
C728   C1301   1.436   .     S
C729   C740    1.390   .     A
C729   N840    1.435   .     S
C729   C748    1.401   .     A
C730   C747    1.400   .     A
C730   N841    1.438   .     S
C730   C741    1.390   .     A
C731   C738    1.390   .     A
C731   C747    1.401   .     A
C731   N842    1.435   .     S
C732   C749    1.416   .     S
C732   O854    1.298   .     A
C732   O853    1.296   .     A
C733   N843    1.438   .     S
C733   C748    1.400   .     A
C733   C739    1.390   .     A
C734   C750    1.401   .     A
C734   N844    1.435   .     S
C734   C745    1.390   .     A
C735   N826    1.438   .     S
C735   C749    1.400   .     A
C735   C746    1.390   .     A
C736   N827    1.435   .     S
C736   C749    1.401   .     A
C736   C742    1.390   .     A
C737   C750    1.400   .     A
C737   C744    1.390   .     A
C737   N828    1.438   .     S
C738   N829    1.438   .     S
C738   C752    1.400   .     A
C739   C751    1.401   .     A
C739   N830    1.435   .     S
C740   N831    1.438   .     S
C740   C751    1.400   .     A
C741   C752    1.401   .     A
C741   N832    1.435   .     S
C742   C755    1.400   .     A
C742   N833    1.438   .     S
C743   O856    1.298   .     A
C743   O859    1.296   .     A
C743   C748    1.416   .     S
C744   N834    1.435   .     S
C744   C753    1.401   .     A
C745   N835    1.438   .     S
C745   C753    1.400   .     A
C746   N837    1.435   .     S
C746   C755    1.401   .     A
C747   C754    1.416   .     S
C751   C767    1.416   .     S
C752   C766    1.416   .     S
C753   C765    1.416   .     S
C754   O858    1.298   .     A
C754   O857    1.296   .     A
C755   C764    1.416   .     S
C756   C768    1.507   .     S
C756   H791    1.110   .     S
C756   H769    1.083   .     S
C756   H636    1.108   1_655 S
C757   H802    1.083   .     S
C757   H821    1.110   .     S
C757   H669    1.108   1_655 S
C758   H824    1.110   .     S
C758   H822    1.083   .     S
C759   H772    1.110   .     S
C759   H770    1.083   .     S
C760   H775    1.108   .     S
C760   H774    1.110   .     S
C760   H773    1.083   .     S
C761   H778    1.108   .     S
C761   H776    1.083   .     S
C761   H777    1.110   .     S
C762   H782    1.108   .     S
C762   H781    1.110   .     S
C762   H779    1.083   .     S
C763   H783    1.083   .     S
C763   H784    1.110   .     S
C763   H785    1.108   .     S
C764   O860    1.296   .     A
C764   O848    1.298   .     A
C765   O846    1.298   .     A
C765   O847    1.296   .     A
C766   O849    1.296   .     A
C766   O852    1.298   .     A
C767   O850    1.298   .     A
C767   O851    1.296   .     A
C768   N692    1.378   1_655 A
C768   C4      1.436   1_655 S
H771   C615    1.108   1_655 S
H786   N840    1.044   .     S
H787   N840    1.044   .     S
H788   N841    1.044   .     S
H789   N841    1.045   .     S
H790   N842    1.044   .     S
H792   N842    1.045   .     S
H793   N843    1.044   .     S
H794   N843    1.045   .     S
H795   N844    1.044   .     S
H796   N844    1.044   .     S
H797   N826    1.044   .     S
H798   N826    1.045   .     S
H799   N827    1.044   .     S
H800   N827    1.045   .     S
H801   N828    1.044   .     S
H803   N828    1.045   .     S
H804   N829    1.044   .     S
H805   N829    1.045   .     S
H806   N830    1.044   .     S
H807   N830    1.045   .     S
H808   N831    1.044   .     S
H809   N831    1.045   .     S
H810   N832    1.044   .     S
H811   N832    1.044   .     S
H812   N833    1.044   .     S
H814   N833    1.045   .     S
H815   N834    1.044   .     S
H816   N834    1.044   .     S
H817   N835    1.044   .     S
H818   N835    1.045   .     S
H819   N837    1.044   .     S
H820   N837    1.045   .     S
H823   C614    1.108   1_655 S
N825   Zn861   2.052   .     S
N836   Zn862   2.052   .     S
N838   Zn863   2.052   .     S
N838   C1014   1.378   1_545 S
N839   Zn864   2.052   .     S
N839   C1015   1.378   1_545 S
O845   Zn861   1.992   .     S
O846   Zn864   1.992   .     S
O847   Zn863   1.992   .     S
O848   Zn1152  1.992   .     S
O849   Zn1152  1.992   .     S
O850   Zn863   1.992   .     S
O851   Zn864   1.992   .     S
O852   Zn1151  1.992   .     S
O853   Zn718   1.992   1_655 S
O854   Zn717   1.992   1_655 S
O855   Zn862   1.992   .     S
O856   Zn718   1.992   1_655 S
O857   Zn861   1.992   .     S
O858   Zn862   1.992   .     S
O859   Zn717   1.992   1_655 S
O860   Zn1151  1.992   .     S
Zn863  O1140   1.992   1_545 S
Zn863  O1148   1.992   1_545 S
Zn864  O1137   1.992   1_545 S
Zn864  O1136   1.992   1_545 S
C865   O989    1.298   .     A
C865   C894    1.416   .     S
C865   O999    1.296   .     A
C866   C901    1.507   .     S
C866   C1587   1.436   .     S
C866   N1113   1.378   .     S
C867   C902    1.507   .     S
C867   C434    1.436   1_455 S
C867   N980    1.378   .     S
C868   C903    1.507   .     S
C868   N969    1.378   .     A
C868   C1632   1.436   1_455 S
C869   N983    1.378   .     A
C869   C904    1.507   .     S
C870   C905    1.507   .     S
C870   C1447   1.436   .     S
C870   N694    1.378   1_565 S
C871   C906    1.507   .     S
C871   N695    1.378   1_565 S
C872   C907    1.507   .     S
C872   N982    1.378   .     A
C872   C1445   1.436   .     S
C873   C884    1.390   .     A
C873   N984    1.435   .     S
C873   C892    1.401   .     A
C874   C891    1.400   .     A
C874   N985    1.438   .     S
C874   C885    1.390   .     A
C875   C882    1.390   .     A
C875   C891    1.401   .     A
C875   N986    1.435   .     S
C876   C893    1.416   .     S
C876   O998    1.298   .     A
C876   O997    1.296   .     A
C877   N987    1.438   .     S
C877   C892    1.400   .     A
C877   C883    1.390   .     A
C878   C894    1.401   .     A
C878   N988    1.435   .     S
C878   C889    1.390   .     A
C879   N970    1.438   .     S
C879   C893    1.400   .     A
C879   C890    1.390   .     A
C880   N971    1.435   .     S
C880   C893    1.401   .     A
C880   C886    1.390   .     A
C881   C894    1.400   .     A
C881   C888    1.390   .     A
C881   N972    1.438   .     S
C882   N973    1.438   .     S
C882   C896    1.400   .     A
C883   C895    1.401   .     A
C883   N974    1.435   .     S
C884   N975    1.438   .     S
C884   C895    1.400   .     A
C885   C896    1.401   .     A
C885   N976    1.435   .     S
C886   C899    1.400   .     A
C886   N977    1.438   .     S
C887   O1000   1.298   .     A
C887   O1003   1.296   .     A
C887   C892    1.416   .     S
C888   N978    1.435   .     S
C888   C897    1.401   .     A
C889   N979    1.438   .     S
C889   C897    1.400   .     A
C890   N981    1.435   .     S
C890   C899    1.401   .     A
C891   C898    1.416   .     S
C895   C911    1.416   .     S
C896   C910    1.416   .     S
C897   C909    1.416   .     S
C898   O1002   1.298   .     A
C898   O1001   1.296   .     A
C899   C908    1.416   .     S
C900   C912    1.507   .     S
C900   H935    1.110   .     S
C900   H913    1.083   .     S
C900   H1068   1.108   .     S
C901   H946    1.083   .     S
C901   H965    1.110   .     S
C901   H1101   1.108   .     S
C902   H968    1.110   .     S
C902   H966    1.083   .     S
C902   H1111   1.108   1_455 S
C903   H916    1.110   .     S
C903   H914    1.083   .     S
C903   H1059   1.108   1_455 S
C904   H919    1.108   .     S
C904   H918    1.110   .     S
C904   H917    1.083   .     S
C905   H922    1.108   .     S
C905   H920    1.083   .     S
C905   H921    1.110   .     S
C906   H926    1.108   .     S
C906   H925    1.110   .     S
C906   H923    1.083   .     S
C907   H927    1.083   .     S
C907   H928    1.110   .     S
C907   H929    1.108   .     S
C908   O1004   1.296   .     A
C908   O992    1.298   .     A
C909   O990    1.298   .     A
C909   O991    1.296   .     A
C910   O993    1.296   .     A
C910   O996    1.298   .     A
C911   O994    1.298   .     A
C911   O995    1.296   .     A
C912   N1124   1.378   .     A
H915   C1047   1.108   .     S
H924   C1044   1.108   1_455 S
H930   N984    1.044   .     S
H931   N984    1.044   .     S
H932   N985    1.044   .     S
H933   N985    1.045   .     S
H934   N986    1.044   .     S
H936   N986    1.045   .     S
H937   N987    1.044   .     S
H938   N987    1.045   .     S
H939   N988    1.044   .     S
H940   N988    1.044   .     S
H941   N970    1.044   .     S
H942   N970    1.045   .     S
H943   N971    1.044   .     S
H944   N971    1.045   .     S
H945   N972    1.044   .     S
H947   N972    1.045   .     S
H948   N973    1.044   .     S
H949   N973    1.045   .     S
H950   N974    1.044   .     S
H951   N974    1.045   .     S
H952   N975    1.044   .     S
H953   N975    1.045   .     S
H954   N976    1.044   .     S
H955   N976    1.044   .     S
H956   N977    1.044   .     S
H957   C1045   1.108   1_455 S
H958   N977    1.045   .     S
H959   N978    1.044   .     S
H960   N978    1.044   .     S
H961   N979    1.044   .     S
H962   N979    1.045   .     S
H963   N981    1.044   .     S
H964   N981    1.045   .     S
H967   C1046   1.108   .     S
N969   Zn1005  2.052   .     S
N969   C1010   1.378   1_455 S
N980   C1056   1.378   1_455 A
N980   Zn1006  2.052   .     S
N982   Zn1007  2.052   .     S
N983   Zn1008  2.052   .     S
O989   Zn1005  1.992   .     S
O990   Zn1008  1.992   .     S
O991   Zn1007  1.992   .     S
O992   Zn720   1.992   1_565 S
O993   Zn720   1.992   1_565 S
O994   Zn1007  1.992   .     S
O995   Zn1008  1.992   .     S
O996   Zn719   1.992   1_565 S
O997   Zn1150  1.992   .     S
O998   Zn1149  1.992   .     S
O999   Zn1006  1.992   .     S
O1000  Zn1150  1.992   .     S
O1001  Zn1005  1.992   .     S
O1002  Zn1006  1.992   .     S
O1003  Zn1149  1.992   .     S
O1004  Zn719   1.992   1_565 S
Zn1005 O1147   1.992   1_455 S
Zn1005 O1142   1.992   1_455 S
Zn1006 O1144   1.992   1_455 S
Zn1006 O1141   1.992   1_455 S
C1009  O1133   1.298   .     A
C1009  C1038   1.416   .     S
C1009  O1143   1.296   .     A
C1010  C1045   1.507   .     S
C1010  C1443   1.436   1_655 S
C1010  N969    1.378   1_655 S
C1011  C1046   1.507   .     S
C1011  N1124   1.378   .     S
C1012  C1047   1.507   .     S
C1012  N1113   1.378   .     A
C1012  C1488   1.436   .     S
C1013  N1127   1.378   .     A
C1013  C1048   1.507   .     S
C1014  C1049   1.507   .     S
C1014  C1591   1.436   .     S
C1014  N838    1.378   1_565 S
C1015  C1050   1.507   .     S
C1015  N839    1.378   1_565 S
C1016  C1051   1.507   .     S
C1016  N1126   1.378   .     A
C1016  C1589   1.436   .     S
C1017  C1028   1.390   .     A
C1017  N1128   1.435   .     S
C1017  C1036   1.401   .     A
C1018  C1035   1.400   .     A
C1018  N1129   1.438   .     S
C1018  C1029   1.390   .     A
C1019  C1026   1.390   .     A
C1019  C1035   1.401   .     A
C1019  N1130   1.435   .     S
C1020  C1037   1.416   .     S
C1020  O1142   1.298   .     A
C1020  O1141   1.296   .     A
C1021  N1131   1.438   .     S
C1021  C1036   1.400   .     A
C1021  C1027   1.390   .     A
C1022  C1038   1.401   .     A
C1022  N1132   1.435   .     S
C1022  C1033   1.390   .     A
C1023  N1114   1.438   .     S
C1023  C1037   1.400   .     A
C1023  C1034   1.390   .     A
C1024  N1115   1.435   .     S
C1024  C1037   1.401   .     A
C1024  C1030   1.390   .     A
C1025  C1038   1.400   .     A
C1025  C1032   1.390   .     A
C1025  N1116   1.438   .     S
C1026  N1117   1.438   .     S
C1026  C1040   1.400   .     A
C1027  C1039   1.401   .     A
C1027  N1118   1.435   .     S
C1028  N1119   1.438   .     S
C1028  C1039   1.400   .     A
C1029  C1040   1.401   .     A
C1029  N1120   1.435   .     S
C1030  C1043   1.400   .     A
C1030  N1121   1.438   .     S
C1031  O1144   1.298   .     A
C1031  O1147   1.296   .     A
C1031  C1036   1.416   .     S
C1032  N1122   1.435   .     S
C1032  C1041   1.401   .     A
C1033  N1123   1.438   .     S
C1033  C1041   1.400   .     A
C1034  N1125   1.435   .     S
C1034  C1043   1.401   .     A
C1035  C1042   1.416   .     S
C1039  C1055   1.416   .     S
C1040  C1054   1.416   .     S
C1041  C1053   1.416   .     S
C1042  O1146   1.298   .     A
C1042  O1145   1.296   .     A
C1043  C1052   1.416   .     S
C1044  C1056   1.507   .     S
C1044  H1079   1.110   .     S
C1044  H1057   1.083   .     S
C1044  H924    1.108   1_655 S
C1045  H1090   1.083   .     S
C1045  H1109   1.110   .     S
C1045  H957    1.108   1_655 S
C1046  H1112   1.110   .     S
C1046  H1110   1.083   .     S
C1047  H1060   1.110   .     S
C1047  H1058   1.083   .     S
C1048  H1063   1.108   .     S
C1048  H1062   1.110   .     S
C1048  H1061   1.083   .     S
C1049  H1066   1.108   .     S
C1049  H1064   1.083   .     S
C1049  H1065   1.110   .     S
C1050  H1070   1.108   .     S
C1050  H1069   1.110   .     S
C1050  H1067   1.083   .     S
C1051  H1071   1.083   .     S
C1051  H1072   1.110   .     S
C1051  H1073   1.108   .     S
C1052  O1148   1.296   .     A
C1052  O1136   1.298   .     A
C1053  O1134   1.298   .     A
C1053  O1135   1.296   .     A
C1054  O1137   1.296   .     A
C1054  O1140   1.298   .     A
C1055  O1138   1.298   .     A
C1055  O1139   1.296   .     A
C1056  N980    1.378   1_655 A
C1056  C292    1.436   1_655 S
H1059  C903    1.108   1_655 S
H1074  N1128   1.044   .     S
H1075  N1128   1.044   .     S
H1076  N1129   1.044   .     S
H1077  N1129   1.045   .     S
H1078  N1130   1.044   .     S
H1080  N1130   1.045   .     S
H1081  N1131   1.044   .     S
H1082  N1131   1.045   .     S
H1083  N1132   1.044   .     S
H1084  N1132   1.044   .     S
H1085  N1114   1.044   .     S
H1086  N1114   1.045   .     S
H1087  N1115   1.044   .     S
H1088  N1115   1.045   .     S
H1089  N1116   1.044   .     S
H1091  N1116   1.045   .     S
H1092  N1117   1.044   .     S
H1093  N1117   1.045   .     S
H1094  N1118   1.044   .     S
H1095  N1118   1.045   .     S
H1096  N1119   1.044   .     S
H1097  N1119   1.045   .     S
H1098  N1120   1.044   .     S
H1099  N1120   1.044   .     S
H1100  N1121   1.044   .     S
H1102  N1121   1.045   .     S
H1103  N1122   1.044   .     S
H1104  N1122   1.044   .     S
H1105  N1123   1.044   .     S
H1106  N1123   1.045   .     S
H1107  N1125   1.044   .     S
H1108  N1125   1.045   .     S
H1111  C902    1.108   1_655 S
N1113  Zn1149  2.052   .     S
N1124  Zn1150  2.052   .     S
N1126  Zn1151  2.052   .     S
N1127  Zn1152  2.052   .     S
O1133  Zn1149  1.992   .     S
O1134  Zn1152  1.992   .     S
O1135  Zn1151  1.992   .     S
O1136  Zn864   1.992   1_565 S
O1137  Zn864   1.992   1_565 S
O1138  Zn1151  1.992   .     S
O1139  Zn1152  1.992   .     S
O1140  Zn863   1.992   1_565 S
O1141  Zn1006  1.992   1_655 S
O1142  Zn1005  1.992   1_655 S
O1143  Zn1150  1.992   .     S
O1144  Zn1006  1.992   1_655 S
O1145  Zn1149  1.992   .     S
O1146  Zn1150  1.992   .     S
O1147  Zn1005  1.992   1_655 S
O1148  Zn863   1.992   1_565 S
C1153  O1277   1.298   .     A
C1153  C1182   1.416   .     S
C1153  O1287   1.296   .     A
C1154  C1189   1.507   .     S
C1154  C147    1.436   1_556 S
C1154  N1401   1.378   .     S
C1155  C1190   1.507   .     S
C1155  C722    1.436   1_455 S
C1155  N1268   1.378   .     S
C1156  C1191   1.507   .     S
C1156  N1257   1.378   .     A
C1156  C192    1.436   1_456 S
C1157  N1271   1.378   .     A
C1157  C1192   1.507   .     S
C1158  C1193   1.507   .     S
C1158  C7      1.436   1_556 S
C1158  N1558   1.378   .     S
C1159  C1194   1.507   .     S
C1159  N1559   1.378   .     S
C1160  C1195   1.507   .     S
C1160  N1270   1.378   .     A
C1160  C5      1.436   1_556 S
C1161  C1172   1.390   .     A
C1161  N1272   1.435   .     S
C1161  C1180   1.401   .     A
C1162  C1179   1.400   .     A
C1162  N1273   1.438   .     S
C1162  C1173   1.390   .     A
C1163  C1170   1.390   .     A
C1163  C1179   1.401   .     A
C1163  N1274   1.435   .     S
C1164  C1181   1.416   .     S
C1164  O1286   1.298   .     A
C1164  O1285   1.296   .     A
C1165  N1275   1.438   .     S
C1165  C1180   1.400   .     A
C1165  C1171   1.390   .     A
C1166  C1182   1.401   .     A
C1166  N1276   1.435   .     S
C1166  C1177   1.390   .     A
C1167  N1258   1.438   .     S
C1167  C1181   1.400   .     A
C1167  C1178   1.390   .     A
C1168  N1259   1.435   .     S
C1168  C1181   1.401   .     A
C1168  C1174   1.390   .     A
C1169  C1182   1.400   .     A
C1169  C1176   1.390   .     A
C1169  N1260   1.438   .     S
C1170  N1261   1.438   .     S
C1170  C1184   1.400   .     A
C1171  C1183   1.401   .     A
C1171  N1262   1.435   .     S
C1172  N1263   1.438   .     S
C1172  C1183   1.400   .     A
C1173  C1184   1.401   .     A
C1173  N1264   1.435   .     S
C1174  C1187   1.400   .     A
C1174  N1265   1.438   .     S
C1175  O1288   1.298   .     A
C1175  O1291   1.296   .     A
C1175  C1180   1.416   .     S
C1176  N1266   1.435   .     S
C1176  C1185   1.401   .     A
C1177  N1267   1.438   .     S
C1177  C1185   1.400   .     A
C1178  N1269   1.435   .     S
C1178  C1187   1.401   .     A
C1179  C1186   1.416   .     S
C1183  C1199   1.416   .     S
C1184  C1198   1.416   .     S
C1185  C1197   1.416   .     S
C1186  O1290   1.298   .     A
C1186  O1289   1.296   .     A
C1187  C1196   1.416   .     S
C1188  C1200   1.507   .     S
C1188  H1223   1.110   .     S
C1188  H1201   1.083   .     S
C1188  H1356   1.108   .     S
C1189  H1234   1.083   .     S
C1189  H1253   1.110   .     S
C1189  H1389   1.108   .     S
C1190  H1256   1.110   .     S
C1190  H1254   1.083   .     S
C1190  H1399   1.108   1_455 S
C1191  H1204   1.110   .     S
C1191  H1202   1.083   .     S
C1191  H1347   1.108   1_455 S
C1192  H1207   1.108   .     S
C1192  H1206   1.110   .     S
C1192  H1205   1.083   .     S
C1193  H1210   1.108   .     S
C1193  H1208   1.083   .     S
C1193  H1209   1.110   .     S
C1194  H1214   1.108   .     S
C1194  H1213   1.110   .     S
C1194  H1211   1.083   .     S
C1195  H1215   1.083   .     S
C1195  H1216   1.110   .     S
C1195  H1217   1.108   .     S
C1196  O1292   1.296   .     A
C1196  O1280   1.298   .     A
C1197  O1278   1.298   .     A
C1197  O1279   1.296   .     A
C1198  O1281   1.296   .     A
C1198  O1284   1.298   .     A
C1199  O1282   1.298   .     A
C1199  O1283   1.296   .     A
C1200  N1412   1.378   .     A
H1203  C1335   1.108   .     S
H1212  C1332   1.108   1_455 S
H1218  N1272   1.044   .     S
H1219  N1272   1.044   .     S
H1220  N1273   1.044   .     S
H1221  N1273   1.045   .     S
H1222  N1274   1.044   .     S
H1224  N1274   1.045   .     S
H1225  N1275   1.044   .     S
H1226  N1275   1.045   .     S
H1227  N1276   1.044   .     S
H1228  N1276   1.044   .     S
H1229  N1258   1.044   .     S
H1230  N1258   1.045   .     S
H1231  N1259   1.044   .     S
H1232  N1259   1.045   .     S
H1233  N1260   1.044   .     S
H1235  N1260   1.045   .     S
H1236  N1261   1.044   .     S
H1237  N1261   1.045   .     S
H1238  N1262   1.044   .     S
H1239  N1262   1.045   .     S
H1240  N1263   1.044   .     S
H1241  N1263   1.045   .     S
H1242  N1264   1.044   .     S
H1243  N1264   1.044   .     S
H1244  N1265   1.044   .     S
H1245  C1333   1.108   1_455 S
H1246  N1265   1.045   .     S
H1247  N1266   1.044   .     S
H1248  N1266   1.044   .     S
H1249  N1267   1.044   .     S
H1250  N1267   1.045   .     S
H1251  N1269   1.044   .     S
H1252  N1269   1.045   .     S
H1255  C1334   1.108   .     S
N1257  Zn1293  2.052   .     S
N1257  C1298   1.378   1_455 S
N1268  C1344   1.378   1_455 A
N1268  Zn1294  2.052   .     S
N1270  Zn1295  2.052   .     S
N1270  C1446   1.378   1_545 S
N1271  Zn1296  2.052   .     S
N1271  C1447   1.378   1_545 S
O1277  Zn1293  1.992   .     S
O1278  Zn1296  1.992   .     S
O1279  Zn1295  1.992   .     S
O1280  Zn1584  1.992   .     S
O1281  Zn1584  1.992   .     S
O1282  Zn1295  1.992   .     S
O1283  Zn1296  1.992   .     S
O1284  Zn1583  1.992   .     S
O1285  Zn1438  1.992   .     S
O1286  Zn1437  1.992   .     S
O1287  Zn1294  1.992   .     S
O1288  Zn1438  1.992   .     S
O1289  Zn1293  1.992   .     S
O1290  Zn1294  1.992   .     S
O1291  Zn1437  1.992   .     S
O1292  Zn1583  1.992   .     S
Zn1293 O1435   1.992   1_455 S
Zn1293 O1430   1.992   1_455 S
Zn1294 O1432   1.992   1_455 S
Zn1294 O1429   1.992   1_455 S
Zn1295 O1572   1.992   1_545 S
Zn1295 O1580   1.992   1_545 S
Zn1296 O1569   1.992   1_545 S
Zn1296 O1568   1.992   1_545 S
C1297  O1421   1.298   .     A
C1297  C1326   1.416   .     S
C1297  O1431   1.296   .     A
C1298  C1333   1.507   .     S
C1298  C3      1.436   1_656 S
C1298  N1257   1.378   1_655 S
C1299  C1334   1.507   .     S
C1299  N1412   1.378   .     S
C1300  C1335   1.507   .     S
C1300  N1401   1.378   .     A
C1300  C48     1.436   1_556 S
C1301  N1415   1.378   .     A
C1301  C1336   1.507   .     S
C1302  C1337   1.507   .     S
C1302  C151    1.436   1_556 S
C1302  N1702   1.378   .     S
C1303  C1338   1.507   .     S
C1303  N1703   1.378   .     S
C1304  C1339   1.507   .     S
C1304  N1414   1.378   .     A
C1304  C149    1.436   1_556 S
C1305  C1316   1.390   .     A
C1305  N1416   1.435   .     S
C1305  C1324   1.401   .     A
C1306  C1323   1.400   .     A
C1306  N1417   1.438   .     S
C1306  C1317   1.390   .     A
C1307  C1314   1.390   .     A
C1307  C1323   1.401   .     A
C1307  N1418   1.435   .     S
C1308  C1325   1.416   .     S
C1308  O1430   1.298   .     A
C1308  O1429   1.296   .     A
C1309  N1419   1.438   .     S
C1309  C1324   1.400   .     A
C1309  C1315   1.390   .     A
C1310  C1326   1.401   .     A
C1310  N1420   1.435   .     S
C1310  C1321   1.390   .     A
C1311  N1402   1.438   .     S
C1311  C1325   1.400   .     A
C1311  C1322   1.390   .     A
C1312  N1403   1.435   .     S
C1312  C1325   1.401   .     A
C1312  C1318   1.390   .     A
C1313  C1326   1.400   .     A
C1313  C1320   1.390   .     A
C1313  N1404   1.438   .     S
C1314  N1405   1.438   .     S
C1314  C1328   1.400   .     A
C1315  C1327   1.401   .     A
C1315  N1406   1.435   .     S
C1316  N1407   1.438   .     S
C1316  C1327   1.400   .     A
C1317  C1328   1.401   .     A
C1317  N1408   1.435   .     S
C1318  C1331   1.400   .     A
C1318  N1409   1.438   .     S
C1319  O1432   1.298   .     A
C1319  O1435   1.296   .     A
C1319  C1324   1.416   .     S
C1320  N1410   1.435   .     S
C1320  C1329   1.401   .     A
C1321  N1411   1.438   .     S
C1321  C1329   1.400   .     A
C1322  N1413   1.435   .     S
C1322  C1331   1.401   .     A
C1323  C1330   1.416   .     S
C1327  C1343   1.416   .     S
C1328  C1342   1.416   .     S
C1329  C1341   1.416   .     S
C1330  O1434   1.298   .     A
C1330  O1433   1.296   .     A
C1331  C1340   1.416   .     S
C1332  C1344   1.507   .     S
C1332  H1367   1.110   .     S
C1332  H1345   1.083   .     S
C1332  H1212   1.108   1_655 S
C1333  H1378   1.083   .     S
C1333  H1397   1.110   .     S
C1333  H1245   1.108   1_655 S
C1334  H1400   1.110   .     S
C1334  H1398   1.083   .     S
C1335  H1348   1.110   .     S
C1335  H1346   1.083   .     S
C1336  H1351   1.108   .     S
C1336  H1350   1.110   .     S
C1336  H1349   1.083   .     S
C1337  H1354   1.108   .     S
C1337  H1352   1.083   .     S
C1337  H1353   1.110   .     S
C1338  H1358   1.108   .     S
C1338  H1357   1.110   .     S
C1338  H1355   1.083   .     S
C1339  H1359   1.083   .     S
C1339  H1360   1.110   .     S
C1339  H1361   1.108   .     S
C1340  O1436   1.296   .     A
C1340  O1424   1.298   .     A
C1341  O1422   1.298   .     A
C1341  O1423   1.296   .     A
C1342  O1425   1.296   .     A
C1342  O1428   1.298   .     A
C1343  O1426   1.298   .     A
C1343  O1427   1.296   .     A
C1344  N1268   1.378   1_655 A
C1344  C580    1.436   1_655 S
H1347  C1191   1.108   1_655 S
H1362  N1416   1.044   .     S
H1363  N1416   1.044   .     S
H1364  N1417   1.044   .     S
H1365  N1417   1.045   .     S
H1366  N1418   1.044   .     S
H1368  N1418   1.045   .     S
H1369  N1419   1.044   .     S
H1370  N1419   1.045   .     S
H1371  N1420   1.044   .     S
H1372  N1420   1.044   .     S
H1373  N1402   1.044   .     S
H1374  N1402   1.045   .     S
H1375  N1403   1.044   .     S
H1376  N1403   1.045   .     S
H1377  N1404   1.044   .     S
H1379  N1404   1.045   .     S
H1380  N1405   1.044   .     S
H1381  N1405   1.045   .     S
H1382  N1406   1.044   .     S
H1383  N1406   1.045   .     S
H1384  N1407   1.044   .     S
H1385  N1407   1.045   .     S
H1386  N1408   1.044   .     S
H1387  N1408   1.044   .     S
H1388  N1409   1.044   .     S
H1390  N1409   1.045   .     S
H1391  N1410   1.044   .     S
H1392  N1410   1.044   .     S
H1393  N1411   1.044   .     S
H1394  N1411   1.045   .     S
H1395  N1413   1.044   .     S
H1396  N1413   1.045   .     S
H1399  C1190   1.108   1_655 S
N1401  Zn1437  2.052   .     S
N1412  Zn1438  2.052   .     S
N1414  Zn1439  2.052   .     S
N1414  C1590   1.378   1_545 S
N1415  Zn1440  2.052   .     S
N1415  C1591   1.378   1_545 S
O1421  Zn1437  1.992   .     S
O1422  Zn1440  1.992   .     S
O1423  Zn1439  1.992   .     S
O1424  Zn1728  1.992   .     S
O1425  Zn1728  1.992   .     S
O1426  Zn1439  1.992   .     S
O1427  Zn1440  1.992   .     S
O1428  Zn1727  1.992   .     S
O1429  Zn1294  1.992   1_655 S
O1430  Zn1293  1.992   1_655 S
O1431  Zn1438  1.992   .     S
O1432  Zn1294  1.992   1_655 S
O1433  Zn1437  1.992   .     S
O1434  Zn1438  1.992   .     S
O1435  Zn1293  1.992   1_655 S
O1436  Zn1727  1.992   .     S
Zn1439 O1716   1.992   1_545 S
Zn1439 O1724   1.992   1_545 S
Zn1440 O1713   1.992   1_545 S
Zn1440 O1712   1.992   1_545 S
C1441  O1565   1.298   .     A
C1441  C1470   1.416   .     S
C1441  O1575   1.296   .     A
C1442  C1477   1.507   .     S
C1442  C435    1.436   1_556 S
C1442  N1689   1.378   .     S
C1443  C1478   1.507   .     S
C1443  C1010   1.436   1_455 S
C1443  N1556   1.378   .     S
C1444  C1479   1.507   .     S
C1444  N1545   1.378   .     A
C1444  C480    1.436   1_456 S
C1445  N1559   1.378   .     A
C1445  C1480   1.507   .     S
C1446  C1481   1.507   .     S
C1446  C295    1.436   1_556 S
C1446  N1270   1.378   1_565 S
C1447  C1482   1.507   .     S
C1447  N1271   1.378   1_565 S
C1448  C1483   1.507   .     S
C1448  N1558   1.378   .     A
C1448  C293    1.436   1_556 S
C1449  C1460   1.390   .     A
C1449  N1560   1.435   .     S
C1449  C1468   1.401   .     A
C1450  C1467   1.400   .     A
C1450  N1561   1.438   .     S
C1450  C1461   1.390   .     A
C1451  C1458   1.390   .     A
C1451  C1467   1.401   .     A
C1451  N1562   1.435   .     S
C1452  C1469   1.416   .     S
C1452  O1574   1.298   .     A
C1452  O1573   1.296   .     A
C1453  N1563   1.438   .     S
C1453  C1468   1.400   .     A
C1453  C1459   1.390   .     A
C1454  C1470   1.401   .     A
C1454  N1564   1.435   .     S
C1454  C1465   1.390   .     A
C1455  N1546   1.438   .     S
C1455  C1469   1.400   .     A
C1455  C1466   1.390   .     A
C1456  N1547   1.435   .     S
C1456  C1469   1.401   .     A
C1456  C1462   1.390   .     A
C1457  C1470   1.400   .     A
C1457  C1464   1.390   .     A
C1457  N1548   1.438   .     S
C1458  N1549   1.438   .     S
C1458  C1472   1.400   .     A
C1459  C1471   1.401   .     A
C1459  N1550   1.435   .     S
C1460  N1551   1.438   .     S
C1460  C1471   1.400   .     A
C1461  C1472   1.401   .     A
C1461  N1552   1.435   .     S
C1462  C1475   1.400   .     A
C1462  N1553   1.438   .     S
C1463  O1576   1.298   .     A
C1463  O1579   1.296   .     A
C1463  C1468   1.416   .     S
C1464  N1554   1.435   .     S
C1464  C1473   1.401   .     A
C1465  N1555   1.438   .     S
C1465  C1473   1.400   .     A
C1466  N1557   1.435   .     S
C1466  C1475   1.401   .     A
C1467  C1474   1.416   .     S
C1471  C1487   1.416   .     S
C1472  C1486   1.416   .     S
C1473  C1485   1.416   .     S
C1474  O1578   1.298   .     A
C1474  O1577   1.296   .     A
C1475  C1484   1.416   .     S
C1476  C1488   1.507   .     S
C1476  H1511   1.110   .     S
C1476  H1489   1.083   .     S
C1476  H1644   1.108   .     S
C1477  H1522   1.083   .     S
C1477  H1541   1.110   .     S
C1477  H1677   1.108   .     S
C1478  H1544   1.110   .     S
C1478  H1542   1.083   .     S
C1478  H1687   1.108   1_455 S
C1479  H1492   1.110   .     S
C1479  H1490   1.083   .     S
C1479  H1635   1.108   1_455 S
C1480  H1495   1.108   .     S
C1480  H1494   1.110   .     S
C1480  H1493   1.083   .     S
C1481  H1498   1.108   .     S
C1481  H1496   1.083   .     S
C1481  H1497   1.110   .     S
C1482  H1502   1.108   .     S
C1482  H1501   1.110   .     S
C1482  H1499   1.083   .     S
C1483  H1503   1.083   .     S
C1483  H1504   1.110   .     S
C1483  H1505   1.108   .     S
C1484  O1580   1.296   .     A
C1484  O1568   1.298   .     A
C1485  O1566   1.298   .     A
C1485  O1567   1.296   .     A
C1486  O1569   1.296   .     A
C1486  O1572   1.298   .     A
C1487  O1570   1.298   .     A
C1487  O1571   1.296   .     A
C1488  N1700   1.378   .     A
H1491  C1623   1.108   .     S
H1500  C1620   1.108   1_455 S
H1506  N1560   1.044   .     S
H1507  N1560   1.044   .     S
H1508  N1561   1.044   .     S
H1509  N1561   1.045   .     S
H1510  N1562   1.044   .     S
H1512  N1562   1.045   .     S
H1513  N1563   1.044   .     S
H1514  N1563   1.045   .     S
H1515  N1564   1.044   .     S
H1516  N1564   1.044   .     S
H1517  N1546   1.044   .     S
H1518  N1546   1.045   .     S
H1519  N1547   1.044   .     S
H1520  N1547   1.045   .     S
H1521  N1548   1.044   .     S
H1523  N1548   1.045   .     S
H1524  N1549   1.044   .     S
H1525  N1549   1.045   .     S
H1526  N1550   1.044   .     S
H1527  N1550   1.045   .     S
H1528  N1551   1.044   .     S
H1529  N1551   1.045   .     S
H1530  N1552   1.044   .     S
H1531  N1552   1.044   .     S
H1532  N1553   1.044   .     S
H1533  C1621   1.108   1_455 S
H1534  N1553   1.045   .     S
H1535  N1554   1.044   .     S
H1536  N1554   1.044   .     S
H1537  N1555   1.044   .     S
H1538  N1555   1.045   .     S
H1539  N1557   1.044   .     S
H1540  N1557   1.045   .     S
H1543  C1622   1.108   .     S
N1545  Zn1581  2.052   .     S
N1545  C1586   1.378   1_455 S
N1556  C1632   1.378   1_455 A
N1556  Zn1582  2.052   .     S
N1558  Zn1583  2.052   .     S
N1559  Zn1584  2.052   .     S
O1565  Zn1581  1.992   .     S
O1566  Zn1584  1.992   .     S
O1567  Zn1583  1.992   .     S
O1568  Zn1296  1.992   1_565 S
O1569  Zn1296  1.992   1_565 S
O1570  Zn1583  1.992   .     S
O1571  Zn1584  1.992   .     S
O1572  Zn1295  1.992   1_565 S
O1573  Zn1726  1.992   .     S
O1574  Zn1725  1.992   .     S
O1575  Zn1582  1.992   .     S
O1576  Zn1726  1.992   .     S
O1577  Zn1581  1.992   .     S
O1578  Zn1582  1.992   .     S
O1579  Zn1725  1.992   .     S
O1580  Zn1295  1.992   1_565 S
Zn1581 O1723   1.992   1_455 S
Zn1581 O1718   1.992   1_455 S
Zn1582 O1720   1.992   1_455 S
Zn1582 O1717   1.992   1_455 S
C1585  O1709   1.298   .     A
C1585  C1614   1.416   .     S
C1585  O1719   1.296   .     A
C1586  C1621   1.507   .     S
C1586  C291    1.436   1_656 S
C1586  N1545   1.378   1_655 S
C1587  C1622   1.507   .     S
C1587  N1700   1.378   .     S
C1588  C1623   1.507   .     S
C1588  N1689   1.378   .     A
C1588  C336    1.436   1_556 S
C1589  N1703   1.378   .     A
C1589  C1624   1.507   .     S
C1590  C1625   1.507   .     S
C1590  C439    1.436   1_556 S
C1590  N1414   1.378   1_565 S
C1591  C1626   1.507   .     S
C1591  N1415   1.378   1_565 S
C1592  C1627   1.507   .     S
C1592  N1702   1.378   .     A
C1592  C437    1.436   1_556 S
C1593  C1604   1.390   .     A
C1593  N1704   1.435   .     S
C1593  C1612   1.401   .     A
C1594  C1611   1.400   .     A
C1594  N1705   1.438   .     S
C1594  C1605   1.390   .     A
C1595  C1602   1.390   .     A
C1595  C1611   1.401   .     A
C1595  N1706   1.435   .     S
C1596  C1613   1.416   .     S
C1596  O1718   1.298   .     A
C1596  O1717   1.296   .     A
C1597  N1707   1.438   .     S
C1597  C1612   1.400   .     A
C1597  C1603   1.390   .     A
C1598  C1614   1.401   .     A
C1598  N1708   1.435   .     S
C1598  C1609   1.390   .     A
C1599  N1690   1.438   .     S
C1599  C1613   1.400   .     A
C1599  C1610   1.390   .     A
C1600  N1691   1.435   .     S
C1600  C1613   1.401   .     A
C1600  C1606   1.390   .     A
C1601  C1614   1.400   .     A
C1601  C1608   1.390   .     A
C1601  N1692   1.438   .     S
C1602  N1693   1.438   .     S
C1602  C1616   1.400   .     A
C1603  C1615   1.401   .     A
C1603  N1694   1.435   .     S
C1604  N1695   1.438   .     S
C1604  C1615   1.400   .     A
C1605  C1616   1.401   .     A
C1605  N1696   1.435   .     S
C1606  C1619   1.400   .     A
C1606  N1697   1.438   .     S
C1607  O1720   1.298   .     A
C1607  O1723   1.296   .     A
C1607  C1612   1.416   .     S
C1608  N1698   1.435   .     S
C1608  C1617   1.401   .     A
C1609  N1699   1.438   .     S
C1609  C1617   1.400   .     A
C1610  N1701   1.435   .     S
C1610  C1619   1.401   .     A
C1611  C1618   1.416   .     S
C1615  C1631   1.416   .     S
C1616  C1630   1.416   .     S
C1617  C1629   1.416   .     S
C1618  O1722   1.298   .     A
C1618  O1721   1.296   .     A
C1619  C1628   1.416   .     S
C1620  C1632   1.507   .     S
C1620  H1655   1.110   .     S
C1620  H1633   1.083   .     S
C1620  H1500   1.108   1_655 S
C1621  H1666   1.083   .     S
C1621  H1685   1.110   .     S
C1621  H1533   1.108   1_655 S
C1622  H1688   1.110   .     S
C1622  H1686   1.083   .     S
C1623  H1636   1.110   .     S
C1623  H1634   1.083   .     S
C1624  H1639   1.108   .     S
C1624  H1638   1.110   .     S
C1624  H1637   1.083   .     S
C1625  H1642   1.108   .     S
C1625  H1640   1.083   .     S
C1625  H1641   1.110   .     S
C1626  H1646   1.108   .     S
C1626  H1645   1.110   .     S
C1626  H1643   1.083   .     S
C1627  H1647   1.083   .     S
C1627  H1648   1.110   .     S
C1627  H1649   1.108   .     S
C1628  O1724   1.296   .     A
C1628  O1712   1.298   .     A
C1629  O1710   1.298   .     A
C1629  O1711   1.296   .     A
C1630  O1713   1.296   .     A
C1630  O1716   1.298   .     A
C1631  O1714   1.298   .     A
C1631  O1715   1.296   .     A
C1632  N1556   1.378   1_655 A
C1632  C868    1.436   1_655 S
H1635  C1479   1.108   1_655 S
H1650  N1704   1.044   .     S
H1651  N1704   1.044   .     S
H1652  N1705   1.044   .     S
H1653  N1705   1.045   .     S
H1654  N1706   1.044   .     S
H1656  N1706   1.045   .     S
H1657  N1707   1.044   .     S
H1658  N1707   1.045   .     S
H1659  N1708   1.044   .     S
H1660  N1708   1.044   .     S
H1661  N1690   1.044   .     S
H1662  N1690   1.045   .     S
H1663  N1691   1.044   .     S
H1664  N1691   1.045   .     S
H1665  N1692   1.044   .     S
H1667  N1692   1.045   .     S
H1668  N1693   1.044   .     S
H1669  N1693   1.045   .     S
H1670  N1694   1.044   .     S
H1671  N1694   1.045   .     S
H1672  N1695   1.044   .     S
H1673  N1695   1.045   .     S
H1674  N1696   1.044   .     S
H1675  N1696   1.044   .     S
H1676  N1697   1.044   .     S
H1678  N1697   1.045   .     S
H1679  N1698   1.044   .     S
H1680  N1698   1.044   .     S
H1681  N1699   1.044   .     S
H1682  N1699   1.045   .     S
H1683  N1701   1.044   .     S
H1684  N1701   1.045   .     S
H1687  C1478   1.108   1_655 S
N1689  Zn1725  2.052   .     S
N1700  Zn1726  2.052   .     S
N1702  Zn1727  2.052   .     S
N1703  Zn1728  2.052   .     S
O1709  Zn1725  1.992   .     S
O1710  Zn1728  1.992   .     S
O1711  Zn1727  1.992   .     S
O1712  Zn1440  1.992   1_565 S
O1713  Zn1440  1.992   1_565 S
O1714  Zn1727  1.992   .     S
O1715  Zn1728  1.992   .     S
O1716  Zn1439  1.992   1_565 S
O1717  Zn1582  1.992   1_655 S
O1718  Zn1581  1.992   1_655 S
O1719  Zn1726  1.992   .     S
O1720  Zn1582  1.992   1_655 S
O1721  Zn1725  1.992   .     S
O1722  Zn1726  1.992   .     S
O1723  Zn1581  1.992   1_655 S
O1724  Zn1439  1.992   1_565 S
