data_str_m3_o10_o18_pcu_sym.85
_audit_creation_date              2020-01-03
_audit_creation_method            'Materials Studio'
_symmetry_space_group_name_H-M    'P1'
_symmetry_Int_Tables_number       1
_symmetry_cell_setting            triclinic
loop_
_symmetry_equiv_pos_as_xyz
  x,y,z
_cell_length_a                    23.6239
_cell_length_b                    25.6790
_cell_length_c                    27.1320
_cell_angle_alpha                 94.0306
_cell_angle_beta                  92.0505
_cell_angle_gamma                 94.4107
loop_
_atom_site_label
_atom_site_type_symbol
_atom_site_fract_x
_atom_site_fract_y
_atom_site_fract_z
_atom_site_U_iso_or_equiv
_atom_site_adp_type
_atom_site_occupancy
C1     C     0.01509   0.26489   0.24894   0.00000  Uiso   1.00
C2     C     0.31259   0.16190   0.15832   0.00000  Uiso   1.00
C3     C     0.03339   0.18590   0.39443   0.00000  Uiso   1.00
C4     C     0.30330   0.15781   0.10430   0.00000  Uiso   1.00
C5     C     0.03235   0.24485   0.46825   0.00000  Uiso   1.00
C6     C     0.31503   0.11618   0.02279   0.00000  Uiso   1.00
C7     C     0.00957   0.22760   0.42090   0.00000  Uiso   1.00
C8     C     0.00070   0.12559   0.07243   0.00000  Uiso   1.00
C9     C     0.08041   0.16437   0.41465   0.00000  Uiso   1.00
C10    C     0.25843   0.18364   0.08526   0.00000  Uiso   1.00
C11    C     0.10992   0.18844   0.45683   0.00000  Uiso   1.00
C12    C     0.31828   0.06846   0.25131   0.00000  Uiso   1.00
C13    C     0.23952   0.17478   0.03565   0.00000  Uiso   1.00
C14    C     0.08377   0.22750   0.48515   0.00000  Uiso   1.00
C15    C     0.26796   0.13958   0.00468   0.00000  Uiso   1.00
C16    C     0.16479   0.17490   0.47117   0.00000  Uiso   1.00
C17    C     0.18958   0.19561   0.01752   0.00000  Uiso   1.00
C18    C     0.09373   0.10712   0.06814   0.00000  Uiso   1.00
C19    C     0.31856   0.30394   0.39112   0.00000  Uiso   1.00
C20    C     0.14526   0.08917   0.17785   0.00000  Uiso   1.00
C21    C     0.19454   0.23870   0.32736   0.00000  Uiso   1.00
C22    C     0.16270   0.23515   0.04467   0.00000  Uiso   1.00
C23    C     0.19624   0.14235   0.44013   0.00000  Uiso   1.00
C24    C     0.11056   0.25065   0.02865   0.00000  Uiso   1.00
C25    C     0.24745   0.12572   0.45651   0.00000  Uiso   1.00
C26    C     0.02290   0.31954   0.24838   0.00000  Uiso   1.00
C27    C     0.31054   0.01385   0.25231   0.00000  Uiso   1.00
C28    C     0.02108   0.17272   0.34150   0.00000  Uiso   1.00
H29    H     0.09141   0.28132   0.05020   0.00000  Uiso   1.00
H30    H     0.26756   0.32994   0.25619   0.00000  Uiso   1.00
H31    H     0.11326   0.14618   0.08237   0.00000  Uiso   1.00
H32    H     0.08976   0.10488   0.02717   0.00000  Uiso   1.00
H33    H     0.12310   0.07722   0.07715   0.00000  Uiso   1.00
H34    H     0.02189   0.30418   0.36642   0.00000  Uiso   1.00
H35    H     0.32997   0.32844   0.42598   0.00000  Uiso   1.00
H36    H     0.28406   0.32285   0.37224   0.00000  Uiso   1.00
H37    H     0.16431   0.11764   0.15292   0.00000  Uiso   1.00
H38    H     0.09833   0.08539   0.17360   0.00000  Uiso   1.00
H39    H     0.16058   0.05035   0.16720   0.00000  Uiso   1.00
H40    H     0.26983   0.09997   0.43200   0.00000  Uiso   1.00
H41    H     0.19316   0.20455   0.35049   0.00000  Uiso   1.00
H42    H     0.17237   0.26995   0.34715   0.00000  Uiso   1.00
H43    H     0.23857   0.25415   0.32272   0.00000  Uiso   1.00
H44    H     0.23595   0.20741   0.11106   0.00000  Uiso   1.00
H45    H     0.09530   0.13060   0.39468   0.00000  Uiso   1.00
H46    H     0.01238   0.27486   0.48995   0.00000  Uiso   1.00
H47    H     0.00119   0.08756   0.49903   0.00000  Uiso   1.00
H48    H     0.18162   0.25576   0.07794   0.00000  Uiso   1.00
H49    H     0.18281   0.12958   0.40256   0.00000  Uiso   1.00
H50    H     0.06589   0.00346   0.24458   0.00000  Uiso   1.00
N51    N     0.14695   0.15216   0.23740   0.00000  Uiso   1.00
N52    N     0.18638   0.18117   0.26261   0.00000  Uiso   1.00
O53    O     0.29719   0.24631   0.25310   0.00000  Uiso   1.00
O54    O     0.29877   0.25220   0.40020   0.00000  Uiso   1.00
O55    O     0.16314   0.10376   0.22679   0.00000  Uiso   1.00
O56    O     0.16720   0.22618   0.28103   0.00000  Uiso   1.00
O57    O     0.03614   0.08702   0.24691   0.00000  Uiso   1.00
O58    O     0.05822   0.23702   0.24502   0.00000  Uiso   1.00
O59    O     0.27512   0.09632   0.25499   0.00000  Uiso   1.00
O60    O     0.30328   0.17397   0.32247   0.00000  Uiso   1.00
O61    O     0.03005   0.15937   0.17753   0.00000  Uiso   1.00
O62    O     0.06431   0.16467   0.31439   0.00000  Uiso   1.00
O63    O     0.26902   0.16866   0.18561   0.00000  Uiso   1.00
O64    O     0.04200   0.09626   0.09139   0.00000  Uiso   1.00
Zn65   Zn    0.27033   0.17287   0.25540   0.00000  Uiso   1.00
Zn66   Zn    0.06300   0.16046   0.24461   0.00000  Uiso   1.00
C67    C     0.34842   0.26489   0.24894   0.00000  Uiso   1.00
C68    C     0.64593   0.16190   0.15832   0.00000  Uiso   1.00
C69    C     0.36672   0.18590   0.39443   0.00000  Uiso   1.00
C70    C     0.63663   0.15781   0.10430   0.00000  Uiso   1.00
C71    C     0.36568   0.24485   0.46825   0.00000  Uiso   1.00
C72    C     0.64837   0.11618   0.02279   0.00000  Uiso   1.00
C73    C     0.34290   0.22760   0.42090   0.00000  Uiso   1.00
C74    C     0.33403   0.12559   0.07243   0.00000  Uiso   1.00
C75    C     0.41374   0.16437   0.41465   0.00000  Uiso   1.00
C76    C     0.59177   0.18364   0.08526   0.00000  Uiso   1.00
C77    C     0.44325   0.18844   0.45683   0.00000  Uiso   1.00
C78    C     0.65162   0.06846   0.25131   0.00000  Uiso   1.00
C79    C     0.57285   0.17478   0.03565   0.00000  Uiso   1.00
C80    C     0.41710   0.22750   0.48515   0.00000  Uiso   1.00
C81    C     0.60129   0.13958   0.00468   0.00000  Uiso   1.00
C82    C     0.49813   0.17490   0.47117   0.00000  Uiso   1.00
C83    C     0.52291   0.19561   0.01752   0.00000  Uiso   1.00
C84    C     0.42706   0.10712   0.06814   0.00000  Uiso   1.00
C85    C     0.65190   0.30394   0.39112   0.00000  Uiso   1.00
C86    C     0.47860   0.08917   0.17785   0.00000  Uiso   1.00
C87    C     0.52787   0.23870   0.32736   0.00000  Uiso   1.00
C88    C     0.49603   0.23515   0.04467   0.00000  Uiso   1.00
C89    C     0.52957   0.14235   0.44013   0.00000  Uiso   1.00
C90    C     0.44390   0.25065   0.02865   0.00000  Uiso   1.00
C91    C     0.58078   0.12572   0.45651   0.00000  Uiso   1.00
C92    C     0.35623   0.31954   0.24838   0.00000  Uiso   1.00
C93    C     0.64387   0.01385   0.25231   0.00000  Uiso   1.00
C94    C     0.35441   0.17272   0.34150   0.00000  Uiso   1.00
H95    H     0.42475   0.28132   0.05020   0.00000  Uiso   1.00
H96    H     0.60089   0.32994   0.25619   0.00000  Uiso   1.00
H97    H     0.44659   0.14618   0.08237   0.00000  Uiso   1.00
H98    H     0.42310   0.10488   0.02717   0.00000  Uiso   1.00
H99    H     0.45644   0.07722   0.07715   0.00000  Uiso   1.00
H100   H     0.35522   0.30418   0.36642   0.00000  Uiso   1.00
H101   H     0.66331   0.32844   0.42598   0.00000  Uiso   1.00
H102   H     0.61739   0.32285   0.37224   0.00000  Uiso   1.00
H103   H     0.49764   0.11764   0.15292   0.00000  Uiso   1.00
H104   H     0.43166   0.08539   0.17360   0.00000  Uiso   1.00
H105   H     0.49391   0.05035   0.16720   0.00000  Uiso   1.00
H106   H     0.60317   0.09997   0.43200   0.00000  Uiso   1.00
H107   H     0.52650   0.20455   0.35049   0.00000  Uiso   1.00
H108   H     0.50571   0.26995   0.34715   0.00000  Uiso   1.00
H109   H     0.57191   0.25415   0.32272   0.00000  Uiso   1.00
H110   H     0.56929   0.20741   0.11106   0.00000  Uiso   1.00
H111   H     0.42864   0.13060   0.39468   0.00000  Uiso   1.00
H112   H     0.34571   0.27486   0.48995   0.00000  Uiso   1.00
H113   H     0.33452   0.08756   0.49903   0.00000  Uiso   1.00
H114   H     0.51495   0.25576   0.07794   0.00000  Uiso   1.00
H115   H     0.51615   0.12958   0.40256   0.00000  Uiso   1.00
H116   H     0.39922   0.00346   0.24458   0.00000  Uiso   1.00
N117   N     0.48029   0.15216   0.23740   0.00000  Uiso   1.00
N118   N     0.51971   0.18117   0.26261   0.00000  Uiso   1.00
O119   O     0.63052   0.24631   0.25310   0.00000  Uiso   1.00
O120   O     0.63210   0.25220   0.40020   0.00000  Uiso   1.00
O121   O     0.49648   0.10376   0.22679   0.00000  Uiso   1.00
O122   O     0.50053   0.22618   0.28103   0.00000  Uiso   1.00
O123   O     0.36948   0.08702   0.24691   0.00000  Uiso   1.00
O124   O     0.39155   0.23702   0.24502   0.00000  Uiso   1.00
O125   O     0.60845   0.09632   0.25499   0.00000  Uiso   1.00
O126   O     0.63662   0.17397   0.32247   0.00000  Uiso   1.00
O127   O     0.36338   0.15937   0.17753   0.00000  Uiso   1.00
O128   O     0.39764   0.16467   0.31439   0.00000  Uiso   1.00
O129   O     0.60236   0.16866   0.18561   0.00000  Uiso   1.00
O130   O     0.37533   0.09626   0.09139   0.00000  Uiso   1.00
Zn131  Zn    0.60366   0.17287   0.25540   0.00000  Uiso   1.00
Zn132  Zn    0.39634   0.16046   0.24461   0.00000  Uiso   1.00
C133   C     0.68175   0.26489   0.24894   0.00000  Uiso   1.00
C134   C     0.97926   0.16190   0.15832   0.00000  Uiso   1.00
C135   C     0.70006   0.18590   0.39443   0.00000  Uiso   1.00
C136   C     0.96996   0.15781   0.10430   0.00000  Uiso   1.00
C137   C     0.69901   0.24485   0.46825   0.00000  Uiso   1.00
C138   C     0.98170   0.11618   0.02279   0.00000  Uiso   1.00
C139   C     0.67624   0.22760   0.42090   0.00000  Uiso   1.00
C140   C     0.66737   0.12559   0.07243   0.00000  Uiso   1.00
C141   C     0.74708   0.16437   0.41465   0.00000  Uiso   1.00
C142   C     0.92510   0.18364   0.08526   0.00000  Uiso   1.00
C143   C     0.77659   0.18844   0.45683   0.00000  Uiso   1.00
C144   C     0.98495   0.06846   0.25131   0.00000  Uiso   1.00
C145   C     0.90618   0.17478   0.03565   0.00000  Uiso   1.00
C146   C     0.75043   0.22750   0.48515   0.00000  Uiso   1.00
C147   C     0.93463   0.13958   0.00468   0.00000  Uiso   1.00
C148   C     0.83146   0.17490   0.47117   0.00000  Uiso   1.00
C149   C     0.85624   0.19561   0.01752   0.00000  Uiso   1.00
C150   C     0.76039   0.10712   0.06814   0.00000  Uiso   1.00
C151   C     0.98523   0.30394   0.39112   0.00000  Uiso   1.00
C152   C     0.81193   0.08917   0.17785   0.00000  Uiso   1.00
C153   C     0.86121   0.23870   0.32736   0.00000  Uiso   1.00
C154   C     0.82936   0.23515   0.04467   0.00000  Uiso   1.00
C155   C     0.86291   0.14235   0.44013   0.00000  Uiso   1.00
C156   C     0.77723   0.25065   0.02865   0.00000  Uiso   1.00
C157   C     0.91412   0.12572   0.45651   0.00000  Uiso   1.00
C158   C     0.68956   0.31954   0.24838   0.00000  Uiso   1.00
C159   C     0.97721   0.01385   0.25231   0.00000  Uiso   1.00
C160   C     0.68775   0.17272   0.34150   0.00000  Uiso   1.00
H161   H     0.75808   0.28132   0.05020   0.00000  Uiso   1.00
H162   H     0.93423   0.32994   0.25619   0.00000  Uiso   1.00
H163   H     0.77993   0.14618   0.08237   0.00000  Uiso   1.00
H164   H     0.75643   0.10488   0.02717   0.00000  Uiso   1.00
H165   H     0.78977   0.07722   0.07715   0.00000  Uiso   1.00
H166   H     0.68856   0.30418   0.36642   0.00000  Uiso   1.00
H167   H     0.99664   0.32844   0.42598   0.00000  Uiso   1.00
H168   H     0.95072   0.32285   0.37224   0.00000  Uiso   1.00
H169   H     0.83098   0.11764   0.15292   0.00000  Uiso   1.00
H170   H     0.76500   0.08539   0.17360   0.00000  Uiso   1.00
H171   H     0.82725   0.05035   0.16720   0.00000  Uiso   1.00
H172   H     0.93650   0.09997   0.43200   0.00000  Uiso   1.00
H173   H     0.85983   0.20455   0.35049   0.00000  Uiso   1.00
H174   H     0.83904   0.26995   0.34715   0.00000  Uiso   1.00
H175   H     0.90524   0.25415   0.32272   0.00000  Uiso   1.00
H176   H     0.90262   0.20741   0.11106   0.00000  Uiso   1.00
H177   H     0.76197   0.13060   0.39468   0.00000  Uiso   1.00
H178   H     0.67905   0.27486   0.48995   0.00000  Uiso   1.00
H179   H     0.66786   0.08756   0.49903   0.00000  Uiso   1.00
H180   H     0.84829   0.25576   0.07794   0.00000  Uiso   1.00
H181   H     0.84948   0.12958   0.40256   0.00000  Uiso   1.00
H182   H     0.73256   0.00346   0.24458   0.00000  Uiso   1.00
N183   N     0.81362   0.15216   0.23740   0.00000  Uiso   1.00
N184   N     0.85305   0.18117   0.26261   0.00000  Uiso   1.00
O185   O     0.96386   0.24631   0.25310   0.00000  Uiso   1.00
O186   O     0.96544   0.25220   0.40020   0.00000  Uiso   1.00
O187   O     0.82981   0.10376   0.22679   0.00000  Uiso   1.00
O188   O     0.83387   0.22618   0.28103   0.00000  Uiso   1.00
O189   O     0.70281   0.08702   0.24691   0.00000  Uiso   1.00
O190   O     0.72488   0.23702   0.24502   0.00000  Uiso   1.00
O191   O     0.94178   0.09632   0.25499   0.00000  Uiso   1.00
O192   O     0.96995   0.17397   0.32247   0.00000  Uiso   1.00
O193   O     0.69672   0.15937   0.17753   0.00000  Uiso   1.00
O194   O     0.73098   0.16467   0.31439   0.00000  Uiso   1.00
O195   O     0.93569   0.16866   0.18561   0.00000  Uiso   1.00
O196   O     0.70867   0.09626   0.09139   0.00000  Uiso   1.00
Zn197  Zn    0.93700   0.17287   0.25540   0.00000  Uiso   1.00
Zn198  Zn    0.72967   0.16046   0.24461   0.00000  Uiso   1.00
C199   C     0.01509   0.59822   0.24894   0.00000  Uiso   1.00
C200   C     0.31259   0.49524   0.15832   0.00000  Uiso   1.00
C201   C     0.03339   0.51924   0.39443   0.00000  Uiso   1.00
C202   C     0.30330   0.49114   0.10430   0.00000  Uiso   1.00
C203   C     0.03235   0.57819   0.46825   0.00000  Uiso   1.00
C204   C     0.31503   0.44951   0.02279   0.00000  Uiso   1.00
C205   C     0.00957   0.56093   0.42090   0.00000  Uiso   1.00
C206   C     0.00070   0.45893   0.07243   0.00000  Uiso   1.00
C207   C     0.08041   0.49771   0.41465   0.00000  Uiso   1.00
C208   C     0.25843   0.51697   0.08526   0.00000  Uiso   1.00
C209   C     0.10992   0.52177   0.45683   0.00000  Uiso   1.00
C210   C     0.31828   0.40180   0.25131   0.00000  Uiso   1.00
C211   C     0.23952   0.50812   0.03565   0.00000  Uiso   1.00
C212   C     0.08377   0.56083   0.48515   0.00000  Uiso   1.00
C213   C     0.26796   0.47291   0.00468   0.00000  Uiso   1.00
C214   C     0.16479   0.50824   0.47117   0.00000  Uiso   1.00
C215   C     0.18958   0.52894   0.01752   0.00000  Uiso   1.00
C216   C     0.09373   0.44046   0.06814   0.00000  Uiso   1.00
C217   C     0.31856   0.63727   0.39112   0.00000  Uiso   1.00
C218   C     0.14526   0.42250   0.17785   0.00000  Uiso   1.00
C219   C     0.19454   0.57203   0.32736   0.00000  Uiso   1.00
C220   C     0.16270   0.56848   0.04467   0.00000  Uiso   1.00
C221   C     0.19624   0.47569   0.44013   0.00000  Uiso   1.00
C222   C     0.11056   0.58399   0.02865   0.00000  Uiso   1.00
C223   C     0.24745   0.45906   0.45651   0.00000  Uiso   1.00
C224   C     0.02290   0.65287   0.24838   0.00000  Uiso   1.00
C225   C     0.31054   0.34719   0.25231   0.00000  Uiso   1.00
C226   C     0.02108   0.50606   0.34150   0.00000  Uiso   1.00
H227   H     0.09141   0.61465   0.05020   0.00000  Uiso   1.00
H228   H     0.26756   0.66327   0.25619   0.00000  Uiso   1.00
H229   H     0.11326   0.47951   0.08237   0.00000  Uiso   1.00
H230   H     0.08976   0.43821   0.02717   0.00000  Uiso   1.00
H231   H     0.12310   0.41055   0.07715   0.00000  Uiso   1.00
H232   H     0.02189   0.63751   0.36642   0.00000  Uiso   1.00
H233   H     0.32997   0.66178   0.42598   0.00000  Uiso   1.00
H234   H     0.28406   0.65619   0.37224   0.00000  Uiso   1.00
H235   H     0.16431   0.45097   0.15292   0.00000  Uiso   1.00
H236   H     0.09833   0.41872   0.17360   0.00000  Uiso   1.00
H237   H     0.16058   0.38369   0.16720   0.00000  Uiso   1.00
H238   H     0.26983   0.43330   0.43200   0.00000  Uiso   1.00
H239   H     0.19316   0.53789   0.35049   0.00000  Uiso   1.00
H240   H     0.17237   0.60328   0.34715   0.00000  Uiso   1.00
H241   H     0.23857   0.58749   0.32272   0.00000  Uiso   1.00
H242   H     0.23595   0.54075   0.11106   0.00000  Uiso   1.00
H243   H     0.09530   0.46393   0.39468   0.00000  Uiso   1.00
H244   H     0.01238   0.60820   0.48995   0.00000  Uiso   1.00
H245   H     0.00119   0.42089   0.49903   0.00000  Uiso   1.00
H246   H     0.18162   0.58909   0.07794   0.00000  Uiso   1.00
H247   H     0.18281   0.46291   0.40256   0.00000  Uiso   1.00
H248   H     0.06589   0.33679   0.24458   0.00000  Uiso   1.00
N249   N     0.14695   0.48550   0.23740   0.00000  Uiso   1.00
N250   N     0.18638   0.51450   0.26261   0.00000  Uiso   1.00
O251   O     0.29719   0.57964   0.25310   0.00000  Uiso   1.00
O252   O     0.29877   0.58553   0.40020   0.00000  Uiso   1.00
O253   O     0.16314   0.43709   0.22679   0.00000  Uiso   1.00
O254   O     0.16720   0.55951   0.28103   0.00000  Uiso   1.00
O255   O     0.03614   0.42036   0.24691   0.00000  Uiso   1.00
O256   O     0.05822   0.57035   0.24502   0.00000  Uiso   1.00
O257   O     0.27512   0.42965   0.25499   0.00000  Uiso   1.00
O258   O     0.30328   0.50730   0.32247   0.00000  Uiso   1.00
O259   O     0.03005   0.49270   0.17753   0.00000  Uiso   1.00
O260   O     0.06431   0.49801   0.31439   0.00000  Uiso   1.00
O261   O     0.26902   0.50199   0.18561   0.00000  Uiso   1.00
O262   O     0.04200   0.42959   0.09139   0.00000  Uiso   1.00
Zn263  Zn    0.27033   0.50621   0.25540   0.00000  Uiso   1.00
Zn264  Zn    0.06300   0.49379   0.24461   0.00000  Uiso   1.00
C265   C     0.34842   0.59822   0.24894   0.00000  Uiso   1.00
C266   C     0.64593   0.49524   0.15832   0.00000  Uiso   1.00
C267   C     0.36672   0.51924   0.39443   0.00000  Uiso   1.00
C268   C     0.63663   0.49114   0.10430   0.00000  Uiso   1.00
C269   C     0.36568   0.57819   0.46825   0.00000  Uiso   1.00
C270   C     0.64837   0.44951   0.02279   0.00000  Uiso   1.00
C271   C     0.34290   0.56093   0.42090   0.00000  Uiso   1.00
C272   C     0.33403   0.45893   0.07243   0.00000  Uiso   1.00
C273   C     0.41374   0.49771   0.41465   0.00000  Uiso   1.00
C274   C     0.59177   0.51697   0.08526   0.00000  Uiso   1.00
C275   C     0.44325   0.52177   0.45683   0.00000  Uiso   1.00
C276   C     0.65162   0.40180   0.25131   0.00000  Uiso   1.00
C277   C     0.57285   0.50812   0.03565   0.00000  Uiso   1.00
C278   C     0.41710   0.56083   0.48515   0.00000  Uiso   1.00
C279   C     0.60129   0.47291   0.00468   0.00000  Uiso   1.00
C280   C     0.49813   0.50824   0.47117   0.00000  Uiso   1.00
C281   C     0.52291   0.52894   0.01752   0.00000  Uiso   1.00
C282   C     0.42706   0.44046   0.06814   0.00000  Uiso   1.00
C283   C     0.65190   0.63727   0.39112   0.00000  Uiso   1.00
C284   C     0.47860   0.42250   0.17785   0.00000  Uiso   1.00
C285   C     0.52787   0.57203   0.32736   0.00000  Uiso   1.00
C286   C     0.49603   0.56848   0.04467   0.00000  Uiso   1.00
C287   C     0.52957   0.47569   0.44013   0.00000  Uiso   1.00
C288   C     0.44390   0.58399   0.02865   0.00000  Uiso   1.00
C289   C     0.58078   0.45906   0.45651   0.00000  Uiso   1.00
C290   C     0.35623   0.65287   0.24838   0.00000  Uiso   1.00
C291   C     0.64387   0.34719   0.25231   0.00000  Uiso   1.00
C292   C     0.35441   0.50606   0.34150   0.00000  Uiso   1.00
H293   H     0.42475   0.61465   0.05020   0.00000  Uiso   1.00
H294   H     0.60089   0.66327   0.25619   0.00000  Uiso   1.00
H295   H     0.44659   0.47951   0.08237   0.00000  Uiso   1.00
H296   H     0.42310   0.43821   0.02717   0.00000  Uiso   1.00
H297   H     0.45644   0.41055   0.07715   0.00000  Uiso   1.00
H298   H     0.35522   0.63751   0.36642   0.00000  Uiso   1.00
H299   H     0.66331   0.66178   0.42598   0.00000  Uiso   1.00
H300   H     0.61739   0.65619   0.37224   0.00000  Uiso   1.00
H301   H     0.49764   0.45097   0.15292   0.00000  Uiso   1.00
H302   H     0.43166   0.41872   0.17360   0.00000  Uiso   1.00
H303   H     0.49391   0.38369   0.16720   0.00000  Uiso   1.00
H304   H     0.60317   0.43330   0.43200   0.00000  Uiso   1.00
H305   H     0.52650   0.53789   0.35049   0.00000  Uiso   1.00
H306   H     0.50571   0.60328   0.34715   0.00000  Uiso   1.00
H307   H     0.57191   0.58749   0.32272   0.00000  Uiso   1.00
H308   H     0.56929   0.54075   0.11106   0.00000  Uiso   1.00
H309   H     0.42864   0.46393   0.39468   0.00000  Uiso   1.00
H310   H     0.34571   0.60820   0.48995   0.00000  Uiso   1.00
H311   H     0.33452   0.42089   0.49903   0.00000  Uiso   1.00
H312   H     0.51495   0.58909   0.07794   0.00000  Uiso   1.00
H313   H     0.51615   0.46291   0.40256   0.00000  Uiso   1.00
H314   H     0.39922   0.33679   0.24458   0.00000  Uiso   1.00
N315   N     0.48029   0.48550   0.23740   0.00000  Uiso   1.00
N316   N     0.51971   0.51450   0.26261   0.00000  Uiso   1.00
O317   O     0.63052   0.57964   0.25310   0.00000  Uiso   1.00
O318   O     0.63210   0.58553   0.40020   0.00000  Uiso   1.00
O319   O     0.49648   0.43709   0.22679   0.00000  Uiso   1.00
O320   O     0.50053   0.55951   0.28103   0.00000  Uiso   1.00
O321   O     0.36948   0.42036   0.24691   0.00000  Uiso   1.00
O322   O     0.39155   0.57035   0.24502   0.00000  Uiso   1.00
O323   O     0.60845   0.42965   0.25499   0.00000  Uiso   1.00
O324   O     0.63662   0.50730   0.32247   0.00000  Uiso   1.00
O325   O     0.36338   0.49270   0.17753   0.00000  Uiso   1.00
O326   O     0.39764   0.49801   0.31439   0.00000  Uiso   1.00
O327   O     0.60236   0.50199   0.18561   0.00000  Uiso   1.00
O328   O     0.37533   0.42959   0.09139   0.00000  Uiso   1.00
Zn329  Zn    0.60366   0.50621   0.25540   0.00000  Uiso   1.00
Zn330  Zn    0.39634   0.49379   0.24461   0.00000  Uiso   1.00
C331   C     0.68175   0.59822   0.24894   0.00000  Uiso   1.00
C332   C     0.97926   0.49524   0.15832   0.00000  Uiso   1.00
C333   C     0.70006   0.51924   0.39443   0.00000  Uiso   1.00
C334   C     0.96996   0.49114   0.10430   0.00000  Uiso   1.00
C335   C     0.69901   0.57819   0.46825   0.00000  Uiso   1.00
C336   C     0.98170   0.44951   0.02279   0.00000  Uiso   1.00
C337   C     0.67624   0.56093   0.42090   0.00000  Uiso   1.00
C338   C     0.66737   0.45893   0.07243   0.00000  Uiso   1.00
C339   C     0.74708   0.49771   0.41465   0.00000  Uiso   1.00
C340   C     0.92510   0.51697   0.08526   0.00000  Uiso   1.00
C341   C     0.77659   0.52177   0.45683   0.00000  Uiso   1.00
C342   C     0.98495   0.40180   0.25131   0.00000  Uiso   1.00
C343   C     0.90618   0.50812   0.03565   0.00000  Uiso   1.00
C344   C     0.75043   0.56083   0.48515   0.00000  Uiso   1.00
C345   C     0.93463   0.47291   0.00468   0.00000  Uiso   1.00
C346   C     0.83146   0.50824   0.47117   0.00000  Uiso   1.00
C347   C     0.85624   0.52894   0.01752   0.00000  Uiso   1.00
C348   C     0.76039   0.44046   0.06814   0.00000  Uiso   1.00
C349   C     0.98523   0.63727   0.39112   0.00000  Uiso   1.00
C350   C     0.81193   0.42250   0.17785   0.00000  Uiso   1.00
C351   C     0.86121   0.57203   0.32736   0.00000  Uiso   1.00
C352   C     0.82936   0.56848   0.04467   0.00000  Uiso   1.00
C353   C     0.86291   0.47569   0.44013   0.00000  Uiso   1.00
C354   C     0.77723   0.58399   0.02865   0.00000  Uiso   1.00
C355   C     0.91412   0.45906   0.45651   0.00000  Uiso   1.00
C356   C     0.68956   0.65287   0.24838   0.00000  Uiso   1.00
C357   C     0.97721   0.34719   0.25231   0.00000  Uiso   1.00
C358   C     0.68775   0.50606   0.34150   0.00000  Uiso   1.00
H359   H     0.75808   0.61465   0.05020   0.00000  Uiso   1.00
H360   H     0.93423   0.66327   0.25619   0.00000  Uiso   1.00
H361   H     0.77993   0.47951   0.08237   0.00000  Uiso   1.00
H362   H     0.75643   0.43821   0.02717   0.00000  Uiso   1.00
H363   H     0.78977   0.41055   0.07715   0.00000  Uiso   1.00
H364   H     0.68856   0.63751   0.36642   0.00000  Uiso   1.00
H365   H     0.99664   0.66178   0.42598   0.00000  Uiso   1.00
H366   H     0.95072   0.65619   0.37224   0.00000  Uiso   1.00
H367   H     0.83098   0.45097   0.15292   0.00000  Uiso   1.00
H368   H     0.76500   0.41872   0.17360   0.00000  Uiso   1.00
H369   H     0.82725   0.38369   0.16720   0.00000  Uiso   1.00
H370   H     0.93650   0.43330   0.43200   0.00000  Uiso   1.00
H371   H     0.85983   0.53789   0.35049   0.00000  Uiso   1.00
H372   H     0.83904   0.60328   0.34715   0.00000  Uiso   1.00
H373   H     0.90524   0.58749   0.32272   0.00000  Uiso   1.00
H374   H     0.90262   0.54075   0.11106   0.00000  Uiso   1.00
H375   H     0.76197   0.46393   0.39468   0.00000  Uiso   1.00
H376   H     0.67905   0.60820   0.48995   0.00000  Uiso   1.00
H377   H     0.66786   0.42089   0.49903   0.00000  Uiso   1.00
H378   H     0.84829   0.58909   0.07794   0.00000  Uiso   1.00
H379   H     0.84948   0.46291   0.40256   0.00000  Uiso   1.00
H380   H     0.73256   0.33679   0.24458   0.00000  Uiso   1.00
N381   N     0.81362   0.48550   0.23740   0.00000  Uiso   1.00
N382   N     0.85305   0.51450   0.26261   0.00000  Uiso   1.00
O383   O     0.96386   0.57964   0.25310   0.00000  Uiso   1.00
O384   O     0.96544   0.58553   0.40020   0.00000  Uiso   1.00
O385   O     0.82981   0.43709   0.22679   0.00000  Uiso   1.00
O386   O     0.83387   0.55951   0.28103   0.00000  Uiso   1.00
O387   O     0.70281   0.42036   0.24691   0.00000  Uiso   1.00
O388   O     0.72488   0.57035   0.24502   0.00000  Uiso   1.00
O389   O     0.94178   0.42965   0.25499   0.00000  Uiso   1.00
O390   O     0.96995   0.50730   0.32247   0.00000  Uiso   1.00
O391   O     0.69672   0.49270   0.17753   0.00000  Uiso   1.00
O392   O     0.73098   0.49801   0.31439   0.00000  Uiso   1.00
O393   O     0.93569   0.50199   0.18561   0.00000  Uiso   1.00
O394   O     0.70867   0.42959   0.09139   0.00000  Uiso   1.00
Zn395  Zn    0.93700   0.50621   0.25540   0.00000  Uiso   1.00
Zn396  Zn    0.72967   0.49379   0.24461   0.00000  Uiso   1.00
C397   C     0.01509   0.93155   0.24894   0.00000  Uiso   1.00
C398   C     0.31259   0.82857   0.15832   0.00000  Uiso   1.00
C399   C     0.03339   0.85257   0.39443   0.00000  Uiso   1.00
C400   C     0.30330   0.82448   0.10430   0.00000  Uiso   1.00
C401   C     0.03235   0.91152   0.46825   0.00000  Uiso   1.00
C402   C     0.31503   0.78285   0.02279   0.00000  Uiso   1.00
C403   C     0.00957   0.89426   0.42090   0.00000  Uiso   1.00
C404   C     0.00070   0.79226   0.07243   0.00000  Uiso   1.00
C405   C     0.08041   0.83104   0.41465   0.00000  Uiso   1.00
C406   C     0.25843   0.85031   0.08526   0.00000  Uiso   1.00
C407   C     0.10992   0.85510   0.45683   0.00000  Uiso   1.00
C408   C     0.31828   0.73513   0.25131   0.00000  Uiso   1.00
C409   C     0.23952   0.84145   0.03565   0.00000  Uiso   1.00
C410   C     0.08377   0.89416   0.48515   0.00000  Uiso   1.00
C411   C     0.26796   0.80625   0.00468   0.00000  Uiso   1.00
C412   C     0.16479   0.84157   0.47117   0.00000  Uiso   1.00
C413   C     0.18958   0.86227   0.01752   0.00000  Uiso   1.00
C414   C     0.09373   0.77379   0.06814   0.00000  Uiso   1.00
C415   C     0.31856   0.97061   0.39112   0.00000  Uiso   1.00
C416   C     0.14526   0.75584   0.17785   0.00000  Uiso   1.00
C417   C     0.19454   0.90536   0.32736   0.00000  Uiso   1.00
C418   C     0.16270   0.90181   0.04467   0.00000  Uiso   1.00
C419   C     0.19624   0.80902   0.44013   0.00000  Uiso   1.00
C420   C     0.11056   0.91732   0.02865   0.00000  Uiso   1.00
C421   C     0.24745   0.79239   0.45651   0.00000  Uiso   1.00
C422   C     0.02290   0.98620   0.24838   0.00000  Uiso   1.00
C423   C     0.31054   0.68052   0.25231   0.00000  Uiso   1.00
C424   C     0.02108   0.83939   0.34150   0.00000  Uiso   1.00
H425   H     0.09141   0.94799   0.05020   0.00000  Uiso   1.00
H426   H     0.26756   0.99660   0.25619   0.00000  Uiso   1.00
H427   H     0.11326   0.81285   0.08237   0.00000  Uiso   1.00
H428   H     0.08976   0.77154   0.02717   0.00000  Uiso   1.00
H429   H     0.12310   0.74388   0.07715   0.00000  Uiso   1.00
H430   H     0.02189   0.97085   0.36642   0.00000  Uiso   1.00
H431   H     0.32997   0.99511   0.42598   0.00000  Uiso   1.00
H432   H     0.28406   0.98952   0.37224   0.00000  Uiso   1.00
H433   H     0.16431   0.78431   0.15292   0.00000  Uiso   1.00
H434   H     0.09833   0.75205   0.17360   0.00000  Uiso   1.00
H435   H     0.16058   0.71702   0.16720   0.00000  Uiso   1.00
H436   H     0.26983   0.76664   0.43200   0.00000  Uiso   1.00
H437   H     0.19316   0.87122   0.35049   0.00000  Uiso   1.00
H438   H     0.17237   0.93662   0.34715   0.00000  Uiso   1.00
H439   H     0.23857   0.92082   0.32272   0.00000  Uiso   1.00
H440   H     0.23595   0.87408   0.11106   0.00000  Uiso   1.00
H441   H     0.09530   0.79727   0.39468   0.00000  Uiso   1.00
H442   H     0.01238   0.94153   0.48995   0.00000  Uiso   1.00
H443   H     0.00119   0.75422   0.49903   0.00000  Uiso   1.00
H444   H     0.18162   0.92243   0.07794   0.00000  Uiso   1.00
H445   H     0.18281   0.79625   0.40256   0.00000  Uiso   1.00
H446   H     0.06589   0.67013   0.24458   0.00000  Uiso   1.00
N447   N     0.14695   0.81883   0.23740   0.00000  Uiso   1.00
N448   N     0.18638   0.84784   0.26261   0.00000  Uiso   1.00
O449   O     0.29719   0.91298   0.25310   0.00000  Uiso   1.00
O450   O     0.29877   0.91887   0.40020   0.00000  Uiso   1.00
O451   O     0.16314   0.77042   0.22679   0.00000  Uiso   1.00
O452   O     0.16720   0.89284   0.28103   0.00000  Uiso   1.00
O453   O     0.03614   0.75369   0.24691   0.00000  Uiso   1.00
O454   O     0.05822   0.90368   0.24502   0.00000  Uiso   1.00
O455   O     0.27512   0.76298   0.25499   0.00000  Uiso   1.00
O456   O     0.30328   0.84063   0.32247   0.00000  Uiso   1.00
O457   O     0.03005   0.82603   0.17753   0.00000  Uiso   1.00
O458   O     0.06431   0.83134   0.31439   0.00000  Uiso   1.00
O459   O     0.26902   0.83533   0.18561   0.00000  Uiso   1.00
O460   O     0.04200   0.76292   0.09139   0.00000  Uiso   1.00
Zn461  Zn    0.27033   0.83954   0.25540   0.00000  Uiso   1.00
Zn462  Zn    0.06300   0.82713   0.24461   0.00000  Uiso   1.00
C463   C     0.34842   0.93155   0.24894   0.00000  Uiso   1.00
C464   C     0.64593   0.82857   0.15832   0.00000  Uiso   1.00
C465   C     0.36672   0.85257   0.39443   0.00000  Uiso   1.00
C466   C     0.63663   0.82448   0.10430   0.00000  Uiso   1.00
C467   C     0.36568   0.91152   0.46825   0.00000  Uiso   1.00
C468   C     0.64837   0.78285   0.02279   0.00000  Uiso   1.00
C469   C     0.34290   0.89426   0.42090   0.00000  Uiso   1.00
C470   C     0.33403   0.79226   0.07243   0.00000  Uiso   1.00
C471   C     0.41374   0.83104   0.41465   0.00000  Uiso   1.00
C472   C     0.59177   0.85031   0.08526   0.00000  Uiso   1.00
C473   C     0.44325   0.85510   0.45683   0.00000  Uiso   1.00
C474   C     0.65162   0.73513   0.25131   0.00000  Uiso   1.00
C475   C     0.57285   0.84145   0.03565   0.00000  Uiso   1.00
C476   C     0.41710   0.89416   0.48515   0.00000  Uiso   1.00
C477   C     0.60129   0.80625   0.00468   0.00000  Uiso   1.00
C478   C     0.49813   0.84157   0.47117   0.00000  Uiso   1.00
C479   C     0.52291   0.86227   0.01752   0.00000  Uiso   1.00
C480   C     0.42706   0.77379   0.06814   0.00000  Uiso   1.00
C481   C     0.65190   0.97061   0.39112   0.00000  Uiso   1.00
C482   C     0.47860   0.75584   0.17785   0.00000  Uiso   1.00
C483   C     0.52787   0.90536   0.32736   0.00000  Uiso   1.00
C484   C     0.49603   0.90181   0.04467   0.00000  Uiso   1.00
C485   C     0.52957   0.80902   0.44013   0.00000  Uiso   1.00
C486   C     0.44390   0.91732   0.02865   0.00000  Uiso   1.00
C487   C     0.58078   0.79239   0.45651   0.00000  Uiso   1.00
C488   C     0.35623   0.98620   0.24838   0.00000  Uiso   1.00
C489   C     0.64387   0.68052   0.25231   0.00000  Uiso   1.00
C490   C     0.35441   0.83939   0.34150   0.00000  Uiso   1.00
H491   H     0.42475   0.94799   0.05020   0.00000  Uiso   1.00
H492   H     0.60089   0.99660   0.25619   0.00000  Uiso   1.00
H493   H     0.44659   0.81285   0.08237   0.00000  Uiso   1.00
H494   H     0.42310   0.77154   0.02717   0.00000  Uiso   1.00
H495   H     0.45644   0.74388   0.07715   0.00000  Uiso   1.00
H496   H     0.35522   0.97085   0.36642   0.00000  Uiso   1.00
H497   H     0.66331   0.99511   0.42598   0.00000  Uiso   1.00
H498   H     0.61739   0.98952   0.37224   0.00000  Uiso   1.00
H499   H     0.49764   0.78431   0.15292   0.00000  Uiso   1.00
H500   H     0.43166   0.75205   0.17360   0.00000  Uiso   1.00
H501   H     0.49391   0.71702   0.16720   0.00000  Uiso   1.00
H502   H     0.60317   0.76664   0.43200   0.00000  Uiso   1.00
H503   H     0.52650   0.87122   0.35049   0.00000  Uiso   1.00
H504   H     0.50571   0.93662   0.34715   0.00000  Uiso   1.00
H505   H     0.57191   0.92082   0.32272   0.00000  Uiso   1.00
H506   H     0.56929   0.87408   0.11106   0.00000  Uiso   1.00
H507   H     0.42864   0.79727   0.39468   0.00000  Uiso   1.00
H508   H     0.34571   0.94153   0.48995   0.00000  Uiso   1.00
H509   H     0.33452   0.75422   0.49903   0.00000  Uiso   1.00
H510   H     0.51495   0.92243   0.07794   0.00000  Uiso   1.00
H511   H     0.51615   0.79625   0.40256   0.00000  Uiso   1.00
H512   H     0.39922   0.67013   0.24458   0.00000  Uiso   1.00
N513   N     0.48029   0.81883   0.23740   0.00000  Uiso   1.00
N514   N     0.51971   0.84784   0.26261   0.00000  Uiso   1.00
O515   O     0.63052   0.91298   0.25310   0.00000  Uiso   1.00
O516   O     0.63210   0.91887   0.40020   0.00000  Uiso   1.00
O517   O     0.49648   0.77042   0.22679   0.00000  Uiso   1.00
O518   O     0.50053   0.89284   0.28103   0.00000  Uiso   1.00
O519   O     0.36948   0.75369   0.24691   0.00000  Uiso   1.00
O520   O     0.39155   0.90368   0.24502   0.00000  Uiso   1.00
O521   O     0.60845   0.76298   0.25499   0.00000  Uiso   1.00
O522   O     0.63662   0.84063   0.32247   0.00000  Uiso   1.00
O523   O     0.36338   0.82603   0.17753   0.00000  Uiso   1.00
O524   O     0.39764   0.83134   0.31439   0.00000  Uiso   1.00
O525   O     0.60236   0.83533   0.18561   0.00000  Uiso   1.00
O526   O     0.37533   0.76292   0.09139   0.00000  Uiso   1.00
Zn527  Zn    0.60366   0.83954   0.25540   0.00000  Uiso   1.00
Zn528  Zn    0.39634   0.82713   0.24461   0.00000  Uiso   1.00
C529   C     0.68175   0.93155   0.24894   0.00000  Uiso   1.00
C530   C     0.97926   0.82857   0.15832   0.00000  Uiso   1.00
C531   C     0.70006   0.85257   0.39443   0.00000  Uiso   1.00
C532   C     0.96996   0.82448   0.10430   0.00000  Uiso   1.00
C533   C     0.69901   0.91152   0.46825   0.00000  Uiso   1.00
C534   C     0.98170   0.78285   0.02279   0.00000  Uiso   1.00
C535   C     0.67624   0.89426   0.42090   0.00000  Uiso   1.00
C536   C     0.66737   0.79226   0.07243   0.00000  Uiso   1.00
C537   C     0.74708   0.83104   0.41465   0.00000  Uiso   1.00
C538   C     0.92510   0.85031   0.08526   0.00000  Uiso   1.00
C539   C     0.77659   0.85510   0.45683   0.00000  Uiso   1.00
C540   C     0.98495   0.73513   0.25131   0.00000  Uiso   1.00
C541   C     0.90618   0.84145   0.03565   0.00000  Uiso   1.00
C542   C     0.75043   0.89416   0.48515   0.00000  Uiso   1.00
C543   C     0.93463   0.80625   0.00468   0.00000  Uiso   1.00
C544   C     0.83146   0.84157   0.47117   0.00000  Uiso   1.00
C545   C     0.85624   0.86227   0.01752   0.00000  Uiso   1.00
C546   C     0.76039   0.77379   0.06814   0.00000  Uiso   1.00
C547   C     0.98523   0.97061   0.39112   0.00000  Uiso   1.00
C548   C     0.81193   0.75584   0.17785   0.00000  Uiso   1.00
C549   C     0.86121   0.90536   0.32736   0.00000  Uiso   1.00
C550   C     0.82936   0.90181   0.04467   0.00000  Uiso   1.00
C551   C     0.86291   0.80902   0.44013   0.00000  Uiso   1.00
C552   C     0.77723   0.91732   0.02865   0.00000  Uiso   1.00
C553   C     0.91412   0.79239   0.45651   0.00000  Uiso   1.00
C554   C     0.68956   0.98620   0.24838   0.00000  Uiso   1.00
C555   C     0.97721   0.68052   0.25231   0.00000  Uiso   1.00
C556   C     0.68775   0.83939   0.34150   0.00000  Uiso   1.00
H557   H     0.75808   0.94799   0.05020   0.00000  Uiso   1.00
H558   H     0.93423   0.99660   0.25619   0.00000  Uiso   1.00
H559   H     0.77993   0.81285   0.08237   0.00000  Uiso   1.00
H560   H     0.75643   0.77154   0.02717   0.00000  Uiso   1.00
H561   H     0.78977   0.74388   0.07715   0.00000  Uiso   1.00
H562   H     0.68856   0.97085   0.36642   0.00000  Uiso   1.00
H563   H     0.99664   0.99511   0.42598   0.00000  Uiso   1.00
H564   H     0.95072   0.98952   0.37224   0.00000  Uiso   1.00
H565   H     0.83098   0.78431   0.15292   0.00000  Uiso   1.00
H566   H     0.76500   0.75205   0.17360   0.00000  Uiso   1.00
H567   H     0.82725   0.71702   0.16720   0.00000  Uiso   1.00
H568   H     0.93650   0.76664   0.43200   0.00000  Uiso   1.00
H569   H     0.85983   0.87122   0.35049   0.00000  Uiso   1.00
H570   H     0.83904   0.93662   0.34715   0.00000  Uiso   1.00
H571   H     0.90524   0.92082   0.32272   0.00000  Uiso   1.00
H572   H     0.90262   0.87408   0.11106   0.00000  Uiso   1.00
H573   H     0.76197   0.79727   0.39468   0.00000  Uiso   1.00
H574   H     0.67905   0.94153   0.48995   0.00000  Uiso   1.00
H575   H     0.66786   0.75422   0.49903   0.00000  Uiso   1.00
H576   H     0.84829   0.92243   0.07794   0.00000  Uiso   1.00
H577   H     0.84948   0.79625   0.40256   0.00000  Uiso   1.00
H578   H     0.73256   0.67013   0.24458   0.00000  Uiso   1.00
N579   N     0.81362   0.81883   0.23740   0.00000  Uiso   1.00
N580   N     0.85305   0.84784   0.26261   0.00000  Uiso   1.00
O581   O     0.96386   0.91298   0.25310   0.00000  Uiso   1.00
O582   O     0.96544   0.91887   0.40020   0.00000  Uiso   1.00
O583   O     0.82981   0.77042   0.22679   0.00000  Uiso   1.00
O584   O     0.83387   0.89284   0.28103   0.00000  Uiso   1.00
O585   O     0.70281   0.75369   0.24691   0.00000  Uiso   1.00
O586   O     0.72488   0.90368   0.24502   0.00000  Uiso   1.00
O587   O     0.94178   0.76298   0.25499   0.00000  Uiso   1.00
O588   O     0.96995   0.84063   0.32247   0.00000  Uiso   1.00
O589   O     0.69672   0.82603   0.17753   0.00000  Uiso   1.00
O590   O     0.73098   0.83134   0.31439   0.00000  Uiso   1.00
O591   O     0.93569   0.83533   0.18561   0.00000  Uiso   1.00
O592   O     0.70867   0.76292   0.09139   0.00000  Uiso   1.00
Zn593  Zn    0.93700   0.83954   0.25540   0.00000  Uiso   1.00
Zn594  Zn    0.72967   0.82713   0.24461   0.00000  Uiso   1.00
C595   C     0.01509   0.26489   0.74894   0.00000  Uiso   1.00
C596   C     0.31259   0.16190   0.65832   0.00000  Uiso   1.00
C597   C     0.03339   0.18590   0.89443   0.00000  Uiso   1.00
C598   C     0.30330   0.15781   0.60430   0.00000  Uiso   1.00
C599   C     0.03235   0.24485   0.96825   0.00000  Uiso   1.00
C600   C     0.31503   0.11618   0.52279   0.00000  Uiso   1.00
C601   C     0.00957   0.22760   0.92090   0.00000  Uiso   1.00
C602   C     0.00070   0.12559   0.57243   0.00000  Uiso   1.00
C603   C     0.08041   0.16437   0.91465   0.00000  Uiso   1.00
C604   C     0.25843   0.18364   0.58526   0.00000  Uiso   1.00
C605   C     0.10992   0.18844   0.95683   0.00000  Uiso   1.00
C606   C     0.31828   0.06846   0.75131   0.00000  Uiso   1.00
C607   C     0.23952   0.17478   0.53565   0.00000  Uiso   1.00
C608   C     0.08377   0.22750   0.98515   0.00000  Uiso   1.00
C609   C     0.26796   0.13958   0.50468   0.00000  Uiso   1.00
C610   C     0.16479   0.17490   0.97117   0.00000  Uiso   1.00
C611   C     0.18958   0.19561   0.51752   0.00000  Uiso   1.00
C612   C     0.09373   0.10712   0.56814   0.00000  Uiso   1.00
C613   C     0.31856   0.30394   0.89112   0.00000  Uiso   1.00
C614   C     0.14526   0.08917   0.67785   0.00000  Uiso   1.00
C615   C     0.19454   0.23870   0.82736   0.00000  Uiso   1.00
C616   C     0.16270   0.23515   0.54467   0.00000  Uiso   1.00
C617   C     0.19624   0.14235   0.94013   0.00000  Uiso   1.00
C618   C     0.11056   0.25065   0.52865   0.00000  Uiso   1.00
C619   C     0.24745   0.12572   0.95651   0.00000  Uiso   1.00
C620   C     0.02290   0.31954   0.74838   0.00000  Uiso   1.00
C621   C     0.31054   0.01385   0.75231   0.00000  Uiso   1.00
C622   C     0.02108   0.17272   0.84150   0.00000  Uiso   1.00
H623   H     0.09141   0.28132   0.55020   0.00000  Uiso   1.00
H624   H     0.26756   0.32994   0.75619   0.00000  Uiso   1.00
H625   H     0.11326   0.14618   0.58237   0.00000  Uiso   1.00
H626   H     0.08976   0.10488   0.52717   0.00000  Uiso   1.00
H627   H     0.12310   0.07722   0.57715   0.00000  Uiso   1.00
H628   H     0.02189   0.30418   0.86642   0.00000  Uiso   1.00
H629   H     0.32997   0.32844   0.92598   0.00000  Uiso   1.00
H630   H     0.28406   0.32285   0.87224   0.00000  Uiso   1.00
H631   H     0.16431   0.11764   0.65292   0.00000  Uiso   1.00
H632   H     0.09833   0.08539   0.67360   0.00000  Uiso   1.00
H633   H     0.16058   0.05035   0.66720   0.00000  Uiso   1.00
H634   H     0.26983   0.09997   0.93200   0.00000  Uiso   1.00
H635   H     0.19316   0.20455   0.85049   0.00000  Uiso   1.00
H636   H     0.17237   0.26995   0.84715   0.00000  Uiso   1.00
H637   H     0.23857   0.25415   0.82272   0.00000  Uiso   1.00
H638   H     0.23595   0.20741   0.61106   0.00000  Uiso   1.00
H639   H     0.09530   0.13060   0.89468   0.00000  Uiso   1.00
H640   H     0.01238   0.27486   0.98995   0.00000  Uiso   1.00
H641   H     0.00119   0.08756   0.99903   0.00000  Uiso   1.00
H642   H     0.18162   0.25576   0.57794   0.00000  Uiso   1.00
H643   H     0.18281   0.12958   0.90256   0.00000  Uiso   1.00
H644   H     0.06589   0.00346   0.74458   0.00000  Uiso   1.00
N645   N     0.14695   0.15216   0.73740   0.00000  Uiso   1.00
N646   N     0.18638   0.18117   0.76261   0.00000  Uiso   1.00
O647   O     0.29719   0.24631   0.75310   0.00000  Uiso   1.00
O648   O     0.29877   0.25220   0.90020   0.00000  Uiso   1.00
O649   O     0.16314   0.10376   0.72679   0.00000  Uiso   1.00
O650   O     0.16720   0.22618   0.78103   0.00000  Uiso   1.00
O651   O     0.03614   0.08702   0.74691   0.00000  Uiso   1.00
O652   O     0.05822   0.23702   0.74502   0.00000  Uiso   1.00
O653   O     0.27512   0.09632   0.75499   0.00000  Uiso   1.00
O654   O     0.30328   0.17397   0.82247   0.00000  Uiso   1.00
O655   O     0.03005   0.15937   0.67753   0.00000  Uiso   1.00
O656   O     0.06431   0.16467   0.81439   0.00000  Uiso   1.00
O657   O     0.26902   0.16866   0.68561   0.00000  Uiso   1.00
O658   O     0.04200   0.09626   0.59139   0.00000  Uiso   1.00
Zn659  Zn    0.27033   0.17287   0.75540   0.00000  Uiso   1.00
Zn660  Zn    0.06300   0.16046   0.74461   0.00000  Uiso   1.00
C661   C     0.34842   0.26489   0.74894   0.00000  Uiso   1.00
C662   C     0.64593   0.16190   0.65832   0.00000  Uiso   1.00
C663   C     0.36672   0.18590   0.89443   0.00000  Uiso   1.00
C664   C     0.63663   0.15781   0.60430   0.00000  Uiso   1.00
C665   C     0.36568   0.24485   0.96825   0.00000  Uiso   1.00
C666   C     0.64837   0.11618   0.52279   0.00000  Uiso   1.00
C667   C     0.34290   0.22760   0.92090   0.00000  Uiso   1.00
C668   C     0.33403   0.12559   0.57243   0.00000  Uiso   1.00
C669   C     0.41374   0.16437   0.91465   0.00000  Uiso   1.00
C670   C     0.59177   0.18364   0.58526   0.00000  Uiso   1.00
C671   C     0.44325   0.18844   0.95683   0.00000  Uiso   1.00
C672   C     0.65162   0.06846   0.75131   0.00000  Uiso   1.00
C673   C     0.57285   0.17478   0.53565   0.00000  Uiso   1.00
C674   C     0.41710   0.22750   0.98515   0.00000  Uiso   1.00
C675   C     0.60129   0.13958   0.50468   0.00000  Uiso   1.00
C676   C     0.49813   0.17490   0.97117   0.00000  Uiso   1.00
C677   C     0.52291   0.19561   0.51752   0.00000  Uiso   1.00
C678   C     0.42706   0.10712   0.56814   0.00000  Uiso   1.00
C679   C     0.65190   0.30394   0.89112   0.00000  Uiso   1.00
C680   C     0.47860   0.08917   0.67785   0.00000  Uiso   1.00
C681   C     0.52787   0.23870   0.82736   0.00000  Uiso   1.00
C682   C     0.49603   0.23515   0.54467   0.00000  Uiso   1.00
C683   C     0.52957   0.14235   0.94013   0.00000  Uiso   1.00
C684   C     0.44390   0.25065   0.52865   0.00000  Uiso   1.00
C685   C     0.58078   0.12572   0.95651   0.00000  Uiso   1.00
C686   C     0.35623   0.31954   0.74838   0.00000  Uiso   1.00
C687   C     0.64387   0.01385   0.75231   0.00000  Uiso   1.00
C688   C     0.35441   0.17272   0.84150   0.00000  Uiso   1.00
H689   H     0.42475   0.28132   0.55020   0.00000  Uiso   1.00
H690   H     0.60089   0.32994   0.75619   0.00000  Uiso   1.00
H691   H     0.44659   0.14618   0.58237   0.00000  Uiso   1.00
H692   H     0.42310   0.10488   0.52717   0.00000  Uiso   1.00
H693   H     0.45644   0.07722   0.57715   0.00000  Uiso   1.00
H694   H     0.35522   0.30418   0.86642   0.00000  Uiso   1.00
H695   H     0.66331   0.32844   0.92598   0.00000  Uiso   1.00
H696   H     0.61739   0.32285   0.87224   0.00000  Uiso   1.00
H697   H     0.49764   0.11764   0.65292   0.00000  Uiso   1.00
H698   H     0.43166   0.08539   0.67360   0.00000  Uiso   1.00
H699   H     0.49391   0.05035   0.66720   0.00000  Uiso   1.00
H700   H     0.60317   0.09997   0.93200   0.00000  Uiso   1.00
H701   H     0.52650   0.20455   0.85049   0.00000  Uiso   1.00
H702   H     0.50571   0.26995   0.84715   0.00000  Uiso   1.00
H703   H     0.57191   0.25415   0.82272   0.00000  Uiso   1.00
H704   H     0.56929   0.20741   0.61106   0.00000  Uiso   1.00
H705   H     0.42864   0.13060   0.89468   0.00000  Uiso   1.00
H706   H     0.34571   0.27486   0.98995   0.00000  Uiso   1.00
H707   H     0.33452   0.08756   0.99903   0.00000  Uiso   1.00
H708   H     0.51495   0.25576   0.57794   0.00000  Uiso   1.00
H709   H     0.51615   0.12958   0.90256   0.00000  Uiso   1.00
H710   H     0.39922   0.00346   0.74458   0.00000  Uiso   1.00
N711   N     0.48029   0.15216   0.73740   0.00000  Uiso   1.00
N712   N     0.51971   0.18117   0.76261   0.00000  Uiso   1.00
O713   O     0.63052   0.24631   0.75310   0.00000  Uiso   1.00
O714   O     0.63210   0.25220   0.90020   0.00000  Uiso   1.00
O715   O     0.49648   0.10376   0.72679   0.00000  Uiso   1.00
O716   O     0.50053   0.22618   0.78103   0.00000  Uiso   1.00
O717   O     0.36948   0.08702   0.74691   0.00000  Uiso   1.00
O718   O     0.39155   0.23702   0.74502   0.00000  Uiso   1.00
O719   O     0.60845   0.09632   0.75499   0.00000  Uiso   1.00
O720   O     0.63662   0.17397   0.82247   0.00000  Uiso   1.00
O721   O     0.36338   0.15937   0.67753   0.00000  Uiso   1.00
O722   O     0.39764   0.16467   0.81439   0.00000  Uiso   1.00
O723   O     0.60236   0.16866   0.68561   0.00000  Uiso   1.00
O724   O     0.37533   0.09626   0.59139   0.00000  Uiso   1.00
Zn725  Zn    0.60366   0.17287   0.75540   0.00000  Uiso   1.00
Zn726  Zn    0.39634   0.16046   0.74461   0.00000  Uiso   1.00
C727   C     0.68175   0.26489   0.74894   0.00000  Uiso   1.00
C728   C     0.97926   0.16190   0.65832   0.00000  Uiso   1.00
C729   C     0.70006   0.18590   0.89443   0.00000  Uiso   1.00
C730   C     0.96996   0.15781   0.60430   0.00000  Uiso   1.00
C731   C     0.69901   0.24485   0.96825   0.00000  Uiso   1.00
C732   C     0.98170   0.11618   0.52279   0.00000  Uiso   1.00
C733   C     0.67624   0.22760   0.92090   0.00000  Uiso   1.00
C734   C     0.66737   0.12559   0.57243   0.00000  Uiso   1.00
C735   C     0.74708   0.16437   0.91465   0.00000  Uiso   1.00
C736   C     0.92510   0.18364   0.58526   0.00000  Uiso   1.00
C737   C     0.77659   0.18844   0.95683   0.00000  Uiso   1.00
C738   C     0.98495   0.06846   0.75131   0.00000  Uiso   1.00
C739   C     0.90618   0.17478   0.53565   0.00000  Uiso   1.00
C740   C     0.75043   0.22750   0.98515   0.00000  Uiso   1.00
C741   C     0.93463   0.13958   0.50468   0.00000  Uiso   1.00
C742   C     0.83146   0.17490   0.97117   0.00000  Uiso   1.00
C743   C     0.85624   0.19561   0.51752   0.00000  Uiso   1.00
C744   C     0.76039   0.10712   0.56814   0.00000  Uiso   1.00
C745   C     0.98523   0.30394   0.89112   0.00000  Uiso   1.00
C746   C     0.81193   0.08917   0.67785   0.00000  Uiso   1.00
C747   C     0.86121   0.23870   0.82736   0.00000  Uiso   1.00
C748   C     0.82936   0.23515   0.54467   0.00000  Uiso   1.00
C749   C     0.86291   0.14235   0.94013   0.00000  Uiso   1.00
C750   C     0.77723   0.25065   0.52865   0.00000  Uiso   1.00
C751   C     0.91412   0.12572   0.95651   0.00000  Uiso   1.00
C752   C     0.68956   0.31954   0.74838   0.00000  Uiso   1.00
C753   C     0.97721   0.01385   0.75231   0.00000  Uiso   1.00
C754   C     0.68775   0.17272   0.84150   0.00000  Uiso   1.00
H755   H     0.75808   0.28132   0.55020   0.00000  Uiso   1.00
H756   H     0.93423   0.32994   0.75619   0.00000  Uiso   1.00
H757   H     0.77993   0.14618   0.58237   0.00000  Uiso   1.00
H758   H     0.75643   0.10488   0.52717   0.00000  Uiso   1.00
H759   H     0.78977   0.07722   0.57715   0.00000  Uiso   1.00
H760   H     0.68856   0.30418   0.86642   0.00000  Uiso   1.00
H761   H     0.99664   0.32844   0.92598   0.00000  Uiso   1.00
H762   H     0.95072   0.32285   0.87224   0.00000  Uiso   1.00
H763   H     0.83098   0.11764   0.65292   0.00000  Uiso   1.00
H764   H     0.76500   0.08539   0.67360   0.00000  Uiso   1.00
H765   H     0.82725   0.05035   0.66720   0.00000  Uiso   1.00
H766   H     0.93650   0.09997   0.93200   0.00000  Uiso   1.00
H767   H     0.85983   0.20455   0.85049   0.00000  Uiso   1.00
H768   H     0.83904   0.26995   0.84715   0.00000  Uiso   1.00
H769   H     0.90524   0.25415   0.82272   0.00000  Uiso   1.00
H770   H     0.90262   0.20741   0.61106   0.00000  Uiso   1.00
H771   H     0.76197   0.13060   0.89468   0.00000  Uiso   1.00
H772   H     0.67905   0.27486   0.98995   0.00000  Uiso   1.00
H773   H     0.66786   0.08756   0.99903   0.00000  Uiso   1.00
H774   H     0.84829   0.25576   0.57794   0.00000  Uiso   1.00
H775   H     0.84948   0.12958   0.90256   0.00000  Uiso   1.00
H776   H     0.73256   0.00346   0.74458   0.00000  Uiso   1.00
N777   N     0.81362   0.15216   0.73740   0.00000  Uiso   1.00
N778   N     0.85305   0.18117   0.76261   0.00000  Uiso   1.00
O779   O     0.96386   0.24631   0.75310   0.00000  Uiso   1.00
O780   O     0.96544   0.25220   0.90020   0.00000  Uiso   1.00
O781   O     0.82981   0.10376   0.72679   0.00000  Uiso   1.00
O782   O     0.83387   0.22618   0.78103   0.00000  Uiso   1.00
O783   O     0.70281   0.08702   0.74691   0.00000  Uiso   1.00
O784   O     0.72488   0.23702   0.74502   0.00000  Uiso   1.00
O785   O     0.94178   0.09632   0.75499   0.00000  Uiso   1.00
O786   O     0.96995   0.17397   0.82247   0.00000  Uiso   1.00
O787   O     0.69672   0.15937   0.67753   0.00000  Uiso   1.00
O788   O     0.73098   0.16467   0.81439   0.00000  Uiso   1.00
O789   O     0.93569   0.16866   0.68561   0.00000  Uiso   1.00
O790   O     0.70867   0.09626   0.59139   0.00000  Uiso   1.00
Zn791  Zn    0.93700   0.17287   0.75540   0.00000  Uiso   1.00
Zn792  Zn    0.72967   0.16046   0.74461   0.00000  Uiso   1.00
C793   C     0.01509   0.59822   0.74894   0.00000  Uiso   1.00
C794   C     0.31259   0.49524   0.65832   0.00000  Uiso   1.00
C795   C     0.03339   0.51924   0.89443   0.00000  Uiso   1.00
C796   C     0.30330   0.49114   0.60430   0.00000  Uiso   1.00
C797   C     0.03235   0.57819   0.96825   0.00000  Uiso   1.00
C798   C     0.31503   0.44951   0.52279   0.00000  Uiso   1.00
C799   C     0.00957   0.56093   0.92090   0.00000  Uiso   1.00
C800   C     0.00070   0.45893   0.57243   0.00000  Uiso   1.00
C801   C     0.08041   0.49771   0.91465   0.00000  Uiso   1.00
C802   C     0.25843   0.51697   0.58526   0.00000  Uiso   1.00
C803   C     0.10992   0.52177   0.95683   0.00000  Uiso   1.00
C804   C     0.31828   0.40180   0.75131   0.00000  Uiso   1.00
C805   C     0.23952   0.50812   0.53565   0.00000  Uiso   1.00
C806   C     0.08377   0.56083   0.98515   0.00000  Uiso   1.00
C807   C     0.26796   0.47291   0.50468   0.00000  Uiso   1.00
C808   C     0.16479   0.50824   0.97117   0.00000  Uiso   1.00
C809   C     0.18958   0.52894   0.51752   0.00000  Uiso   1.00
C810   C     0.09373   0.44046   0.56814   0.00000  Uiso   1.00
C811   C     0.31856   0.63727   0.89112   0.00000  Uiso   1.00
C812   C     0.14526   0.42250   0.67785   0.00000  Uiso   1.00
C813   C     0.19454   0.57203   0.82736   0.00000  Uiso   1.00
C814   C     0.16270   0.56848   0.54467   0.00000  Uiso   1.00
C815   C     0.19624   0.47569   0.94013   0.00000  Uiso   1.00
C816   C     0.11056   0.58399   0.52865   0.00000  Uiso   1.00
C817   C     0.24745   0.45906   0.95651   0.00000  Uiso   1.00
C818   C     0.02290   0.65287   0.74838   0.00000  Uiso   1.00
C819   C     0.31054   0.34719   0.75231   0.00000  Uiso   1.00
C820   C     0.02108   0.50606   0.84150   0.00000  Uiso   1.00
H821   H     0.09141   0.61465   0.55020   0.00000  Uiso   1.00
H822   H     0.26756   0.66327   0.75619   0.00000  Uiso   1.00
H823   H     0.11326   0.47951   0.58237   0.00000  Uiso   1.00
H824   H     0.08976   0.43821   0.52717   0.00000  Uiso   1.00
H825   H     0.12310   0.41055   0.57715   0.00000  Uiso   1.00
H826   H     0.02189   0.63751   0.86642   0.00000  Uiso   1.00
H827   H     0.32997   0.66178   0.92598   0.00000  Uiso   1.00
H828   H     0.28406   0.65619   0.87224   0.00000  Uiso   1.00
H829   H     0.16431   0.45097   0.65292   0.00000  Uiso   1.00
H830   H     0.09833   0.41872   0.67360   0.00000  Uiso   1.00
H831   H     0.16058   0.38369   0.66720   0.00000  Uiso   1.00
H832   H     0.26983   0.43330   0.93200   0.00000  Uiso   1.00
H833   H     0.19316   0.53789   0.85049   0.00000  Uiso   1.00
H834   H     0.17237   0.60328   0.84715   0.00000  Uiso   1.00
H835   H     0.23857   0.58749   0.82272   0.00000  Uiso   1.00
H836   H     0.23595   0.54075   0.61106   0.00000  Uiso   1.00
H837   H     0.09530   0.46393   0.89468   0.00000  Uiso   1.00
H838   H     0.01238   0.60820   0.98995   0.00000  Uiso   1.00
H839   H     0.00119   0.42089   0.99903   0.00000  Uiso   1.00
H840   H     0.18162   0.58909   0.57794   0.00000  Uiso   1.00
H841   H     0.18281   0.46291   0.90256   0.00000  Uiso   1.00
H842   H     0.06589   0.33679   0.74458   0.00000  Uiso   1.00
N843   N     0.14695   0.48550   0.73740   0.00000  Uiso   1.00
N844   N     0.18638   0.51450   0.76261   0.00000  Uiso   1.00
O845   O     0.29719   0.57964   0.75310   0.00000  Uiso   1.00
O846   O     0.29877   0.58553   0.90020   0.00000  Uiso   1.00
O847   O     0.16314   0.43709   0.72679   0.00000  Uiso   1.00
O848   O     0.16720   0.55951   0.78103   0.00000  Uiso   1.00
O849   O     0.03614   0.42036   0.74691   0.00000  Uiso   1.00
O850   O     0.05822   0.57035   0.74502   0.00000  Uiso   1.00
O851   O     0.27512   0.42965   0.75499   0.00000  Uiso   1.00
O852   O     0.30328   0.50730   0.82247   0.00000  Uiso   1.00
O853   O     0.03005   0.49270   0.67753   0.00000  Uiso   1.00
O854   O     0.06431   0.49801   0.81439   0.00000  Uiso   1.00
O855   O     0.26902   0.50199   0.68561   0.00000  Uiso   1.00
O856   O     0.04200   0.42959   0.59139   0.00000  Uiso   1.00
Zn857  Zn    0.27033   0.50621   0.75540   0.00000  Uiso   1.00
Zn858  Zn    0.06300   0.49379   0.74461   0.00000  Uiso   1.00
C859   C     0.34842   0.59822   0.74894   0.00000  Uiso   1.00
C860   C     0.64593   0.49524   0.65832   0.00000  Uiso   1.00
C861   C     0.36672   0.51924   0.89443   0.00000  Uiso   1.00
C862   C     0.63663   0.49114   0.60430   0.00000  Uiso   1.00
C863   C     0.36568   0.57819   0.96825   0.00000  Uiso   1.00
C864   C     0.64837   0.44951   0.52279   0.00000  Uiso   1.00
C865   C     0.34290   0.56093   0.92090   0.00000  Uiso   1.00
C866   C     0.33403   0.45893   0.57243   0.00000  Uiso   1.00
C867   C     0.41374   0.49771   0.91465   0.00000  Uiso   1.00
C868   C     0.59177   0.51697   0.58526   0.00000  Uiso   1.00
C869   C     0.44325   0.52177   0.95683   0.00000  Uiso   1.00
C870   C     0.65162   0.40180   0.75131   0.00000  Uiso   1.00
C871   C     0.57285   0.50812   0.53565   0.00000  Uiso   1.00
C872   C     0.41710   0.56083   0.98515   0.00000  Uiso   1.00
C873   C     0.60129   0.47291   0.50468   0.00000  Uiso   1.00
C874   C     0.49813   0.50824   0.97117   0.00000  Uiso   1.00
C875   C     0.52291   0.52894   0.51752   0.00000  Uiso   1.00
C876   C     0.42706   0.44046   0.56814   0.00000  Uiso   1.00
C877   C     0.65190   0.63727   0.89112   0.00000  Uiso   1.00
C878   C     0.47860   0.42250   0.67785   0.00000  Uiso   1.00
C879   C     0.52787   0.57203   0.82736   0.00000  Uiso   1.00
C880   C     0.49603   0.56848   0.54467   0.00000  Uiso   1.00
C881   C     0.52957   0.47569   0.94013   0.00000  Uiso   1.00
C882   C     0.44390   0.58399   0.52865   0.00000  Uiso   1.00
C883   C     0.58078   0.45906   0.95651   0.00000  Uiso   1.00
C884   C     0.35623   0.65287   0.74838   0.00000  Uiso   1.00
C885   C     0.64387   0.34719   0.75231   0.00000  Uiso   1.00
C886   C     0.35441   0.50606   0.84150   0.00000  Uiso   1.00
H887   H     0.42475   0.61465   0.55020   0.00000  Uiso   1.00
H888   H     0.60089   0.66327   0.75619   0.00000  Uiso   1.00
H889   H     0.44659   0.47951   0.58237   0.00000  Uiso   1.00
H890   H     0.42310   0.43821   0.52717   0.00000  Uiso   1.00
H891   H     0.45644   0.41055   0.57715   0.00000  Uiso   1.00
H892   H     0.35522   0.63751   0.86642   0.00000  Uiso   1.00
H893   H     0.66331   0.66178   0.92598   0.00000  Uiso   1.00
H894   H     0.61739   0.65619   0.87224   0.00000  Uiso   1.00
H895   H     0.49764   0.45097   0.65292   0.00000  Uiso   1.00
H896   H     0.43166   0.41872   0.67360   0.00000  Uiso   1.00
H897   H     0.49391   0.38369   0.66720   0.00000  Uiso   1.00
H898   H     0.60317   0.43330   0.93200   0.00000  Uiso   1.00
H899   H     0.52650   0.53789   0.85049   0.00000  Uiso   1.00
H900   H     0.50571   0.60328   0.84715   0.00000  Uiso   1.00
H901   H     0.57191   0.58749   0.82272   0.00000  Uiso   1.00
H902   H     0.56929   0.54075   0.61106   0.00000  Uiso   1.00
H903   H     0.42864   0.46393   0.89468   0.00000  Uiso   1.00
H904   H     0.34571   0.60820   0.98995   0.00000  Uiso   1.00
H905   H     0.33452   0.42089   0.99903   0.00000  Uiso   1.00
H906   H     0.51495   0.58909   0.57794   0.00000  Uiso   1.00
H907   H     0.51615   0.46291   0.90256   0.00000  Uiso   1.00
H908   H     0.39922   0.33679   0.74458   0.00000  Uiso   1.00
N909   N     0.48029   0.48550   0.73740   0.00000  Uiso   1.00
N910   N     0.51971   0.51450   0.76261   0.00000  Uiso   1.00
O911   O     0.63052   0.57964   0.75310   0.00000  Uiso   1.00
O912   O     0.63210   0.58553   0.90020   0.00000  Uiso   1.00
O913   O     0.49648   0.43709   0.72679   0.00000  Uiso   1.00
O914   O     0.50053   0.55951   0.78103   0.00000  Uiso   1.00
O915   O     0.36948   0.42036   0.74691   0.00000  Uiso   1.00
O916   O     0.39155   0.57035   0.74502   0.00000  Uiso   1.00
O917   O     0.60845   0.42965   0.75499   0.00000  Uiso   1.00
O918   O     0.63662   0.50730   0.82247   0.00000  Uiso   1.00
O919   O     0.36338   0.49270   0.67753   0.00000  Uiso   1.00
O920   O     0.39764   0.49801   0.81439   0.00000  Uiso   1.00
O921   O     0.60236   0.50199   0.68561   0.00000  Uiso   1.00
O922   O     0.37533   0.42959   0.59139   0.00000  Uiso   1.00
Zn923  Zn    0.60366   0.50621   0.75540   0.00000  Uiso   1.00
Zn924  Zn    0.39634   0.49379   0.74461   0.00000  Uiso   1.00
C925   C     0.68175   0.59822   0.74894   0.00000  Uiso   1.00
C926   C     0.97926   0.49524   0.65832   0.00000  Uiso   1.00
C927   C     0.70006   0.51924   0.89443   0.00000  Uiso   1.00
C928   C     0.96996   0.49114   0.60430   0.00000  Uiso   1.00
C929   C     0.69901   0.57819   0.96825   0.00000  Uiso   1.00
C930   C     0.98170   0.44951   0.52279   0.00000  Uiso   1.00
C931   C     0.67624   0.56093   0.92090   0.00000  Uiso   1.00
C932   C     0.66737   0.45893   0.57243   0.00000  Uiso   1.00
C933   C     0.74708   0.49771   0.91465   0.00000  Uiso   1.00
C934   C     0.92510   0.51697   0.58526   0.00000  Uiso   1.00
C935   C     0.77659   0.52177   0.95683   0.00000  Uiso   1.00
C936   C     0.98495   0.40180   0.75131   0.00000  Uiso   1.00
C937   C     0.90618   0.50812   0.53565   0.00000  Uiso   1.00
C938   C     0.75043   0.56083   0.98515   0.00000  Uiso   1.00
C939   C     0.93463   0.47291   0.50468   0.00000  Uiso   1.00
C940   C     0.83146   0.50824   0.97117   0.00000  Uiso   1.00
C941   C     0.85624   0.52894   0.51752   0.00000  Uiso   1.00
C942   C     0.76039   0.44046   0.56814   0.00000  Uiso   1.00
C943   C     0.98523   0.63727   0.89112   0.00000  Uiso   1.00
C944   C     0.81193   0.42250   0.67785   0.00000  Uiso   1.00
C945   C     0.86121   0.57203   0.82736   0.00000  Uiso   1.00
C946   C     0.82936   0.56848   0.54467   0.00000  Uiso   1.00
C947   C     0.86291   0.47569   0.94013   0.00000  Uiso   1.00
C948   C     0.77723   0.58399   0.52865   0.00000  Uiso   1.00
C949   C     0.91412   0.45906   0.95651   0.00000  Uiso   1.00
C950   C     0.68956   0.65287   0.74838   0.00000  Uiso   1.00
C951   C     0.97721   0.34719   0.75231   0.00000  Uiso   1.00
C952   C     0.68775   0.50606   0.84150   0.00000  Uiso   1.00
H953   H     0.75808   0.61465   0.55020   0.00000  Uiso   1.00
H954   H     0.93423   0.66327   0.75619   0.00000  Uiso   1.00
H955   H     0.77993   0.47951   0.58237   0.00000  Uiso   1.00
H956   H     0.75643   0.43821   0.52717   0.00000  Uiso   1.00
H957   H     0.78977   0.41055   0.57715   0.00000  Uiso   1.00
H958   H     0.68856   0.63751   0.86642   0.00000  Uiso   1.00
H959   H     0.99664   0.66178   0.92598   0.00000  Uiso   1.00
H960   H     0.95072   0.65619   0.87224   0.00000  Uiso   1.00
H961   H     0.83098   0.45097   0.65292   0.00000  Uiso   1.00
H962   H     0.76500   0.41872   0.67360   0.00000  Uiso   1.00
H963   H     0.82725   0.38369   0.66720   0.00000  Uiso   1.00
H964   H     0.93650   0.43330   0.93200   0.00000  Uiso   1.00
H965   H     0.85983   0.53789   0.85049   0.00000  Uiso   1.00
H966   H     0.83904   0.60328   0.84715   0.00000  Uiso   1.00
H967   H     0.90524   0.58749   0.82272   0.00000  Uiso   1.00
H968   H     0.90262   0.54075   0.61106   0.00000  Uiso   1.00
H969   H     0.76197   0.46393   0.89468   0.00000  Uiso   1.00
H970   H     0.67905   0.60820   0.98995   0.00000  Uiso   1.00
H971   H     0.66786   0.42089   0.99903   0.00000  Uiso   1.00
H972   H     0.84829   0.58909   0.57794   0.00000  Uiso   1.00
H973   H     0.84948   0.46291   0.90256   0.00000  Uiso   1.00
H974   H     0.73256   0.33679   0.74458   0.00000  Uiso   1.00
N975   N     0.81362   0.48550   0.73740   0.00000  Uiso   1.00
N976   N     0.85305   0.51450   0.76261   0.00000  Uiso   1.00
O977   O     0.96386   0.57964   0.75310   0.00000  Uiso   1.00
O978   O     0.96544   0.58553   0.90020   0.00000  Uiso   1.00
O979   O     0.82981   0.43709   0.72679   0.00000  Uiso   1.00
O980   O     0.83387   0.55951   0.78103   0.00000  Uiso   1.00
O981   O     0.70281   0.42036   0.74691   0.00000  Uiso   1.00
O982   O     0.72488   0.57035   0.74502   0.00000  Uiso   1.00
O983   O     0.94178   0.42965   0.75499   0.00000  Uiso   1.00
O984   O     0.96995   0.50730   0.82247   0.00000  Uiso   1.00
O985   O     0.69672   0.49270   0.67753   0.00000  Uiso   1.00
O986   O     0.73098   0.49801   0.81439   0.00000  Uiso   1.00
O987   O     0.93569   0.50199   0.68561   0.00000  Uiso   1.00
O988   O     0.70867   0.42959   0.59139   0.00000  Uiso   1.00
Zn989  Zn    0.93700   0.50621   0.75540   0.00000  Uiso   1.00
Zn990  Zn    0.72967   0.49379   0.74461   0.00000  Uiso   1.00
C991   C     0.01509   0.93155   0.74894   0.00000  Uiso   1.00
C992   C     0.31259   0.82857   0.65832   0.00000  Uiso   1.00
C993   C     0.03339   0.85257   0.89443   0.00000  Uiso   1.00
C994   C     0.30330   0.82448   0.60430   0.00000  Uiso   1.00
C995   C     0.03235   0.91152   0.96825   0.00000  Uiso   1.00
C996   C     0.31503   0.78285   0.52279   0.00000  Uiso   1.00
C997   C     0.00957   0.89426   0.92090   0.00000  Uiso   1.00
C998   C     0.00070   0.79226   0.57243   0.00000  Uiso   1.00
C999   C     0.08041   0.83104   0.91465   0.00000  Uiso   1.00
C1000  C     0.25843   0.85031   0.58526   0.00000  Uiso   1.00
C1001  C     0.10992   0.85510   0.95683   0.00000  Uiso   1.00
C1002  C     0.31828   0.73513   0.75131   0.00000  Uiso   1.00
C1003  C     0.23952   0.84145   0.53565   0.00000  Uiso   1.00
C1004  C     0.08377   0.89416   0.98515   0.00000  Uiso   1.00
C1005  C     0.26796   0.80625   0.50468   0.00000  Uiso   1.00
C1006  C     0.16479   0.84157   0.97117   0.00000  Uiso   1.00
C1007  C     0.18958   0.86227   0.51752   0.00000  Uiso   1.00
C1008  C     0.09373   0.77379   0.56814   0.00000  Uiso   1.00
C1009  C     0.31856   0.97061   0.89112   0.00000  Uiso   1.00
C1010  C     0.14526   0.75584   0.67785   0.00000  Uiso   1.00
C1011  C     0.19454   0.90536   0.82736   0.00000  Uiso   1.00
C1012  C     0.16270   0.90181   0.54467   0.00000  Uiso   1.00
C1013  C     0.19624   0.80902   0.94013   0.00000  Uiso   1.00
C1014  C     0.11056   0.91732   0.52865   0.00000  Uiso   1.00
C1015  C     0.24745   0.79239   0.95651   0.00000  Uiso   1.00
C1016  C     0.02290   0.98620   0.74838   0.00000  Uiso   1.00
C1017  C     0.31054   0.68052   0.75231   0.00000  Uiso   1.00
C1018  C     0.02108   0.83939   0.84150   0.00000  Uiso   1.00
H1019  H     0.09141   0.94799   0.55020   0.00000  Uiso   1.00
H1020  H     0.26756   0.99660   0.75619   0.00000  Uiso   1.00
H1021  H     0.11326   0.81285   0.58237   0.00000  Uiso   1.00
H1022  H     0.08976   0.77154   0.52717   0.00000  Uiso   1.00
H1023  H     0.12310   0.74388   0.57715   0.00000  Uiso   1.00
H1024  H     0.02189   0.97085   0.86642   0.00000  Uiso   1.00
H1025  H     0.32997   0.99511   0.92598   0.00000  Uiso   1.00
H1026  H     0.28406   0.98952   0.87224   0.00000  Uiso   1.00
H1027  H     0.16431   0.78431   0.65292   0.00000  Uiso   1.00
H1028  H     0.09833   0.75205   0.67360   0.00000  Uiso   1.00
H1029  H     0.16058   0.71702   0.66720   0.00000  Uiso   1.00
H1030  H     0.26983   0.76664   0.93200   0.00000  Uiso   1.00
H1031  H     0.19316   0.87122   0.85049   0.00000  Uiso   1.00
H1032  H     0.17237   0.93662   0.84715   0.00000  Uiso   1.00
H1033  H     0.23857   0.92082   0.82272   0.00000  Uiso   1.00
H1034  H     0.23595   0.87408   0.61106   0.00000  Uiso   1.00
H1035  H     0.09530   0.79727   0.89468   0.00000  Uiso   1.00
H1036  H     0.01238   0.94153   0.98995   0.00000  Uiso   1.00
H1037  H     0.00119   0.75422   0.99903   0.00000  Uiso   1.00
H1038  H     0.18162   0.92243   0.57794   0.00000  Uiso   1.00
H1039  H     0.18281   0.79625   0.90256   0.00000  Uiso   1.00
H1040  H     0.06589   0.67013   0.74458   0.00000  Uiso   1.00
N1041  N     0.14695   0.81883   0.73740   0.00000  Uiso   1.00
N1042  N     0.18638   0.84784   0.76261   0.00000  Uiso   1.00
O1043  O     0.29719   0.91298   0.75310   0.00000  Uiso   1.00
O1044  O     0.29877   0.91887   0.90020   0.00000  Uiso   1.00
O1045  O     0.16314   0.77042   0.72679   0.00000  Uiso   1.00
O1046  O     0.16720   0.89284   0.78103   0.00000  Uiso   1.00
O1047  O     0.03614   0.75369   0.74691   0.00000  Uiso   1.00
O1048  O     0.05822   0.90368   0.74502   0.00000  Uiso   1.00
O1049  O     0.27512   0.76298   0.75499   0.00000  Uiso   1.00
O1050  O     0.30328   0.84063   0.82247   0.00000  Uiso   1.00
O1051  O     0.03005   0.82603   0.67753   0.00000  Uiso   1.00
O1052  O     0.06431   0.83134   0.81439   0.00000  Uiso   1.00
O1053  O     0.26902   0.83533   0.68561   0.00000  Uiso   1.00
O1054  O     0.04200   0.76292   0.59139   0.00000  Uiso   1.00
Zn1055 Zn    0.27033   0.83954   0.75540   0.00000  Uiso   1.00
Zn1056 Zn    0.06300   0.82713   0.74461   0.00000  Uiso   1.00
C1057  C     0.34842   0.93155   0.74894   0.00000  Uiso   1.00
C1058  C     0.64593   0.82857   0.65832   0.00000  Uiso   1.00
C1059  C     0.36672   0.85257   0.89443   0.00000  Uiso   1.00
C1060  C     0.63663   0.82448   0.60430   0.00000  Uiso   1.00
C1061  C     0.36568   0.91152   0.96825   0.00000  Uiso   1.00
C1062  C     0.64837   0.78285   0.52279   0.00000  Uiso   1.00
C1063  C     0.34290   0.89426   0.92090   0.00000  Uiso   1.00
C1064  C     0.33403   0.79226   0.57243   0.00000  Uiso   1.00
C1065  C     0.41374   0.83104   0.91465   0.00000  Uiso   1.00
C1066  C     0.59177   0.85031   0.58526   0.00000  Uiso   1.00
C1067  C     0.44325   0.85510   0.95683   0.00000  Uiso   1.00
C1068  C     0.65162   0.73513   0.75131   0.00000  Uiso   1.00
C1069  C     0.57285   0.84145   0.53565   0.00000  Uiso   1.00
C1070  C     0.41710   0.89416   0.98515   0.00000  Uiso   1.00
C1071  C     0.60129   0.80625   0.50468   0.00000  Uiso   1.00
C1072  C     0.49813   0.84157   0.97117   0.00000  Uiso   1.00
C1073  C     0.52291   0.86227   0.51752   0.00000  Uiso   1.00
C1074  C     0.42706   0.77379   0.56814   0.00000  Uiso   1.00
C1075  C     0.65190   0.97061   0.89112   0.00000  Uiso   1.00
C1076  C     0.47860   0.75584   0.67785   0.00000  Uiso   1.00
C1077  C     0.52787   0.90536   0.82736   0.00000  Uiso   1.00
C1078  C     0.49603   0.90181   0.54467   0.00000  Uiso   1.00
C1079  C     0.52957   0.80902   0.94013   0.00000  Uiso   1.00
C1080  C     0.44390   0.91732   0.52865   0.00000  Uiso   1.00
C1081  C     0.58078   0.79239   0.95651   0.00000  Uiso   1.00
C1082  C     0.35623   0.98620   0.74838   0.00000  Uiso   1.00
C1083  C     0.64387   0.68052   0.75231   0.00000  Uiso   1.00
C1084  C     0.35441   0.83939   0.84150   0.00000  Uiso   1.00
H1085  H     0.42475   0.94799   0.55020   0.00000  Uiso   1.00
H1086  H     0.60089   0.99660   0.75619   0.00000  Uiso   1.00
H1087  H     0.44659   0.81285   0.58237   0.00000  Uiso   1.00
H1088  H     0.42310   0.77154   0.52717   0.00000  Uiso   1.00
H1089  H     0.45644   0.74388   0.57715   0.00000  Uiso   1.00
H1090  H     0.35522   0.97085   0.86642   0.00000  Uiso   1.00
H1091  H     0.66331   0.99511   0.92598   0.00000  Uiso   1.00
H1092  H     0.61739   0.98952   0.87224   0.00000  Uiso   1.00
H1093  H     0.49764   0.78431   0.65292   0.00000  Uiso   1.00
H1094  H     0.43166   0.75205   0.67360   0.00000  Uiso   1.00
H1095  H     0.49391   0.71702   0.66720   0.00000  Uiso   1.00
H1096  H     0.60317   0.76664   0.93200   0.00000  Uiso   1.00
H1097  H     0.52650   0.87122   0.85049   0.00000  Uiso   1.00
H1098  H     0.50571   0.93662   0.84715   0.00000  Uiso   1.00
H1099  H     0.57191   0.92082   0.82272   0.00000  Uiso   1.00
H1100  H     0.56929   0.87408   0.61106   0.00000  Uiso   1.00
H1101  H     0.42864   0.79727   0.89468   0.00000  Uiso   1.00
H1102  H     0.34571   0.94153   0.98995   0.00000  Uiso   1.00
H1103  H     0.33452   0.75422   0.99903   0.00000  Uiso   1.00
H1104  H     0.51495   0.92243   0.57794   0.00000  Uiso   1.00
H1105  H     0.51615   0.79625   0.90256   0.00000  Uiso   1.00
H1106  H     0.39922   0.67013   0.74458   0.00000  Uiso   1.00
N1107  N     0.48029   0.81883   0.73740   0.00000  Uiso   1.00
N1108  N     0.51971   0.84784   0.76261   0.00000  Uiso   1.00
O1109  O     0.63052   0.91298   0.75310   0.00000  Uiso   1.00
O1110  O     0.63210   0.91887   0.90020   0.00000  Uiso   1.00
O1111  O     0.49648   0.77042   0.72679   0.00000  Uiso   1.00
O1112  O     0.50053   0.89284   0.78103   0.00000  Uiso   1.00
O1113  O     0.36948   0.75369   0.74691   0.00000  Uiso   1.00
O1114  O     0.39155   0.90368   0.74502   0.00000  Uiso   1.00
O1115  O     0.60845   0.76298   0.75499   0.00000  Uiso   1.00
O1116  O     0.63662   0.84063   0.82247   0.00000  Uiso   1.00
O1117  O     0.36338   0.82603   0.67753   0.00000  Uiso   1.00
O1118  O     0.39764   0.83134   0.81439   0.00000  Uiso   1.00
O1119  O     0.60236   0.83533   0.68561   0.00000  Uiso   1.00
O1120  O     0.37533   0.76292   0.59139   0.00000  Uiso   1.00
Zn1121 Zn    0.60366   0.83954   0.75540   0.00000  Uiso   1.00
Zn1122 Zn    0.39634   0.82713   0.74461   0.00000  Uiso   1.00
C1123  C     0.68175   0.93155   0.74894   0.00000  Uiso   1.00
C1124  C     0.97926   0.82857   0.65832   0.00000  Uiso   1.00
C1125  C     0.70006   0.85257   0.89443   0.00000  Uiso   1.00
C1126  C     0.96996   0.82448   0.60430   0.00000  Uiso   1.00
C1127  C     0.69901   0.91152   0.96825   0.00000  Uiso   1.00
C1128  C     0.98170   0.78285   0.52279   0.00000  Uiso   1.00
C1129  C     0.67624   0.89426   0.92090   0.00000  Uiso   1.00
C1130  C     0.66737   0.79226   0.57243   0.00000  Uiso   1.00
C1131  C     0.74708   0.83104   0.91465   0.00000  Uiso   1.00
C1132  C     0.92510   0.85031   0.58526   0.00000  Uiso   1.00
C1133  C     0.77659   0.85510   0.95683   0.00000  Uiso   1.00
C1134  C     0.98495   0.73513   0.75131   0.00000  Uiso   1.00
C1135  C     0.90618   0.84145   0.53565   0.00000  Uiso   1.00
C1136  C     0.75043   0.89416   0.98515   0.00000  Uiso   1.00
C1137  C     0.93463   0.80625   0.50468   0.00000  Uiso   1.00
C1138  C     0.83146   0.84157   0.97117   0.00000  Uiso   1.00
C1139  C     0.85624   0.86227   0.51752   0.00000  Uiso   1.00
C1140  C     0.76039   0.77379   0.56814   0.00000  Uiso   1.00
C1141  C     0.98523   0.97061   0.89112   0.00000  Uiso   1.00
C1142  C     0.81193   0.75584   0.67785   0.00000  Uiso   1.00
C1143  C     0.86121   0.90536   0.82736   0.00000  Uiso   1.00
C1144  C     0.82936   0.90181   0.54467   0.00000  Uiso   1.00
C1145  C     0.86291   0.80902   0.94013   0.00000  Uiso   1.00
C1146  C     0.77723   0.91732   0.52865   0.00000  Uiso   1.00
C1147  C     0.91412   0.79239   0.95651   0.00000  Uiso   1.00
C1148  C     0.68956   0.98620   0.74838   0.00000  Uiso   1.00
C1149  C     0.97721   0.68052   0.75231   0.00000  Uiso   1.00
C1150  C     0.68775   0.83939   0.84150   0.00000  Uiso   1.00
H1151  H     0.75808   0.94799   0.55020   0.00000  Uiso   1.00
H1152  H     0.93423   0.99660   0.75619   0.00000  Uiso   1.00
H1153  H     0.77993   0.81285   0.58237   0.00000  Uiso   1.00
H1154  H     0.75643   0.77154   0.52717   0.00000  Uiso   1.00
H1155  H     0.78977   0.74388   0.57715   0.00000  Uiso   1.00
H1156  H     0.68856   0.97085   0.86642   0.00000  Uiso   1.00
H1157  H     0.99664   0.99511   0.92598   0.00000  Uiso   1.00
H1158  H     0.95072   0.98952   0.87224   0.00000  Uiso   1.00
H1159  H     0.83098   0.78431   0.65292   0.00000  Uiso   1.00
H1160  H     0.76500   0.75205   0.67360   0.00000  Uiso   1.00
H1161  H     0.82725   0.71702   0.66720   0.00000  Uiso   1.00
H1162  H     0.93650   0.76664   0.93200   0.00000  Uiso   1.00
H1163  H     0.85983   0.87122   0.85049   0.00000  Uiso   1.00
H1164  H     0.83904   0.93662   0.84715   0.00000  Uiso   1.00
H1165  H     0.90524   0.92082   0.82272   0.00000  Uiso   1.00
H1166  H     0.90262   0.87408   0.61106   0.00000  Uiso   1.00
H1167  H     0.76197   0.79727   0.89468   0.00000  Uiso   1.00
H1168  H     0.67905   0.94153   0.98995   0.00000  Uiso   1.00
H1169  H     0.66786   0.75422   0.99903   0.00000  Uiso   1.00
H1170  H     0.84829   0.92243   0.57794   0.00000  Uiso   1.00
H1171  H     0.84948   0.79625   0.90256   0.00000  Uiso   1.00
H1172  H     0.73256   0.67013   0.74458   0.00000  Uiso   1.00
N1173  N     0.81362   0.81883   0.73740   0.00000  Uiso   1.00
N1174  N     0.85305   0.84784   0.76261   0.00000  Uiso   1.00
O1175  O     0.96386   0.91298   0.75310   0.00000  Uiso   1.00
O1176  O     0.96544   0.91887   0.90020   0.00000  Uiso   1.00
O1177  O     0.82981   0.77042   0.72679   0.00000  Uiso   1.00
O1178  O     0.83387   0.89284   0.78103   0.00000  Uiso   1.00
O1179  O     0.70281   0.75369   0.74691   0.00000  Uiso   1.00
O1180  O     0.72488   0.90368   0.74502   0.00000  Uiso   1.00
O1181  O     0.94178   0.76298   0.75499   0.00000  Uiso   1.00
O1182  O     0.96995   0.84063   0.82247   0.00000  Uiso   1.00
O1183  O     0.69672   0.82603   0.67753   0.00000  Uiso   1.00
O1184  O     0.73098   0.83134   0.81439   0.00000  Uiso   1.00
O1185  O     0.93569   0.83533   0.68561   0.00000  Uiso   1.00
O1186  O     0.70867   0.76292   0.59139   0.00000  Uiso   1.00
Zn1187 Zn    0.93700   0.83954   0.75540   0.00000  Uiso   1.00
Zn1188 Zn    0.72967   0.82713   0.74461   0.00000  Uiso   1.00
loop_
_geom_bond_atom_site_label_1
_geom_bond_atom_site_label_2
_geom_bond_distance
_geom_bond_site_symmetry_2
_ccdc_geom_bond_type
C1     O58     1.293   .     A
C1     C26     1.402   .     S
C1     O185    1.278   1_455 S
C2     C4      1.469   .     S
C2     O63     1.304   .     A
C2     O127    1.299   .     S
C3     C9      1.391   .     A
C3     C7      1.412   .     A
C3     C28     1.465   .     S
C4     C10     1.396   .     A
C4     C74     1.413   .     S
C5     H46     1.084   .     S
C5     C14     1.399   .     A
C5     C7      1.404   .     A
C6     C15     1.394   .     A
C6     C74     1.403   .     S
C6     H707    1.084   1_554 S
C7     O186    1.382   1_455 S
C8     O64     1.384   .     S
C8     C136    1.413   1_455 S
C8     C138    1.403   1_455 S
C9     H45     1.079   .     S
C9     C11     1.398   .     A
C10    C13     1.400   .     A
C10    H44     1.078   .     S
C11    C14     1.414   .     A
C11    C16     1.416   .     A
C12    C27     1.403   .     S
C12    O59     1.293   .     A
C12    O123    1.278   .     S
C13    C17     1.419   .     A
C13    C15     1.415   .     A
C14    C618    1.392   .     S
C15    C619    1.390   1_554 S
C16    C23     1.415   .     A
C16    C611    1.419   .     S
C17    C22     1.416   .     A
C17    C610    1.419   1_554 S
C18    O64     1.413   .     S
C18    H33     1.108   .     S
C18    H32     1.109   .     S
C18    H31     1.109   .     S
C19    H35     1.111   .     S
C19    O54     1.415   .     S
C19    H36     1.108   .     S
C19    H100    1.114   .     S
C20    H38     1.107   .     S
C20    H37     1.111   .     S
C20    O55     1.395   .     S
C20    H39     1.109   .     S
C21    O56     1.398   .     S
C21    H41     1.113   .     S
C21    H42     1.109   .     S
C21    H43     1.099   .     S
C22    C24     1.388   .     A
C22    H48     1.078   .     S
C23    H49     1.078   .     S
C23    C25     1.382   .     A
C24    H29     1.084   .     S
C24    C608    1.392   1_554 S
C25    H40     1.085   .     S
C25    C609    1.390   .     S
C26    C357    1.340   1_455 S
C26    H248    1.088   .     S
C27    C488    1.340   1_545 S
C27    H426    1.088   1_545 S
C28    O62     1.301   .     A
C28    O192    1.300   1_455 S
H30    C225    1.088   .     S
H34    C151    1.114   1_455 S
H47    C732    1.084   1_455 S
H50    C422    1.088   1_545 S
N51    O55     1.344   .     S
N51    N52     1.291   .     D
N51    Zn66    2.026   .     S
N52    O56     1.344   .     S
N52    Zn65    2.026   .     S
O53    Zn65    1.949   .     S
O53    C67     1.278   .     S
O54    C73     1.382   .     S
O57    Zn66    1.949   .     S
O57    C144    1.278   1_455 S
O58    Zn66    1.977   .     S
O59    Zn65    1.977   .     S
O60    Zn65    1.951   .     S
O60    C94     1.300   .     S
O61    Zn66    1.951   .     S
O61    C134    1.299   1_455 S
O62    Zn66    1.888   .     S
O63    Zn65    1.888   .     S
C67    O124    1.293   .     A
C67    C92     1.402   .     S
C68    C70     1.469   .     S
C68    O129    1.304   .     A
C68    O193    1.299   .     S
C69    C75     1.391   .     A
C69    C73     1.412   .     A
C69    C94     1.465   .     S
C70    C76     1.396   .     A
C70    C140    1.413   .     S
C71    H112    1.084   .     S
C71    C80     1.399   .     A
C71    C73     1.404   .     A
C72    C81     1.394   .     A
C72    C140    1.403   .     S
C72    H773    1.084   1_554 S
C74    O130    1.384   .     S
C75    H111    1.079   .     S
C75    C77     1.398   .     A
C76    C79     1.400   .     A
C76    H110    1.078   .     S
C77    C80     1.414   .     A
C77    C82     1.416   .     A
C78    C93     1.403   .     S
C78    O125    1.293   .     A
C78    O189    1.278   .     S
C79    C83     1.419   .     A
C79    C81     1.415   .     A
C80    C684    1.392   .     S
C81    C685    1.390   1_554 S
C82    C89     1.415   .     A
C82    C677    1.419   .     S
C83    C88     1.416   .     A
C83    C676    1.419   1_554 S
C84    O130    1.413   .     S
C84    H99     1.108   .     S
C84    H98     1.109   .     S
C84    H97     1.109   .     S
C85    H101    1.111   .     S
C85    O120    1.415   .     S
C85    H102    1.108   .     S
C85    H166    1.114   .     S
C86    H104    1.107   .     S
C86    H103    1.111   .     S
C86    O121    1.395   .     S
C86    H105    1.109   .     S
C87    O122    1.398   .     S
C87    H107    1.113   .     S
C87    H108    1.109   .     S
C87    H109    1.099   .     S
C88    C90     1.388   .     A
C88    H114    1.078   .     S
C89    H115    1.078   .     S
C89    C91     1.382   .     A
C90    H95     1.084   .     S
C90    C674    1.392   1_554 S
C91    H106    1.085   .     S
C91    C675    1.390   .     S
C92    C225    1.340   .     S
C92    H314    1.088   .     S
C93    C554    1.340   1_545 S
C93    H492    1.088   1_545 S
C94    O128    1.301   .     A
H96    C291    1.088   .     S
H113   C600    1.084   .     S
H116   C488    1.088   1_545 S
N117   O121    1.344   .     S
N117   N118    1.291   .     D
N117   Zn132   2.026   .     S
N118   O122    1.344   .     S
N118   Zn131   2.026   .     S
O119   Zn131   1.949   .     S
O119   C133    1.278   .     S
O120   C139    1.382   .     S
O123   Zn132   1.949   .     S
O124   Zn132   1.977   .     S
O125   Zn131   1.977   .     S
O126   Zn131   1.951   .     S
O126   C160    1.300   .     S
O127   Zn132   1.951   .     S
O128   Zn132   1.888   .     S
O129   Zn131   1.888   .     S
C133   O190    1.293   .     A
C133   C158    1.402   .     S
C134   C136    1.469   .     S
C134   O195    1.304   .     A
C134   O61     1.299   1_655 S
C135   C141    1.391   .     A
C135   C139    1.412   .     A
C135   C160    1.465   .     S
C136   C142    1.396   .     A
C136   C8      1.413   1_655 S
C137   H178    1.084   .     S
C137   C146    1.399   .     A
C137   C139    1.404   .     A
C138   C147    1.394   .     A
C138   C8      1.403   1_655 S
C138   H641    1.084   1_654 S
C140   O196    1.384   .     S
C141   H177    1.079   .     S
C141   C143    1.398   .     A
C142   C145    1.400   .     A
C142   H176    1.078   .     S
C143   C146    1.414   .     A
C143   C148    1.416   .     A
C144   C159    1.403   .     S
C144   O191    1.293   .     A
C144   O57     1.278   1_655 S
C145   C149    1.419   .     A
C145   C147    1.415   .     A
C146   C750    1.392   .     S
C147   C751    1.390   1_554 S
C148   C155    1.415   .     A
C148   C743    1.419   .     S
C149   C154    1.416   .     A
C149   C742    1.419   1_554 S
C150   O196    1.413   .     S
C150   H165    1.108   .     S
C150   H164    1.109   .     S
C150   H163    1.109   .     S
C151   H167    1.111   .     S
C151   O186    1.415   .     S
C151   H168    1.108   .     S
C151   H34     1.114   1_655 S
C152   H170    1.107   .     S
C152   H169    1.111   .     S
C152   O187    1.395   .     S
C152   H171    1.109   .     S
C153   O188    1.398   .     S
C153   H173    1.113   .     S
C153   H174    1.109   .     S
C153   H175    1.099   .     S
C154   C156    1.388   .     A
C154   H180    1.078   .     S
C155   H181    1.078   .     S
C155   C157    1.382   .     A
C156   H161    1.084   .     S
C156   C740    1.392   1_554 S
C157   H172    1.085   .     S
C157   C741    1.390   .     S
C158   C291    1.340   .     S
C158   H380    1.088   .     S
C159   C422    1.340   1_645 S
C159   H558    1.088   1_545 S
C160   O194    1.301   .     A
H162   C357    1.088   .     S
H179   C666    1.084   .     S
H182   C554    1.088   1_545 S
N183   O187    1.344   .     S
N183   N184    1.291   .     D
N183   Zn198   2.026   .     S
N184   O188    1.344   .     S
N184   Zn197   2.026   .     S
O185   Zn197   1.949   .     S
O185   C1      1.278   1_655 S
O186   C7      1.382   1_655 S
O189   Zn198   1.949   .     S
O190   Zn198   1.977   .     S
O191   Zn197   1.977   .     S
O192   Zn197   1.951   .     S
O192   C28     1.300   1_655 S
O193   Zn198   1.951   .     S
O194   Zn198   1.888   .     S
O195   Zn197   1.888   .     S
C199   O256    1.293   .     A
C199   C224    1.402   .     S
C199   O383    1.278   1_455 S
C200   C202    1.469   .     S
C200   O261    1.304   .     A
C200   O325    1.299   .     S
C201   C207    1.391   .     A
C201   C205    1.412   .     A
C201   C226    1.465   .     S
C202   C208    1.396   .     A
C202   C272    1.413   .     S
C203   H244    1.084   .     S
C203   C212    1.399   .     A
C203   C205    1.404   .     A
C204   C213    1.394   .     A
C204   C272    1.403   .     S
C204   H905    1.084   1_554 S
C205   O384    1.382   1_455 S
C206   O262    1.384   .     S
C206   C334    1.413   1_455 S
C206   C336    1.403   1_455 S
C207   H243    1.079   .     S
C207   C209    1.398   .     A
C208   C211    1.400   .     A
C208   H242    1.078   .     S
C209   C212    1.414   .     A
C209   C214    1.416   .     A
C210   C225    1.403   .     S
C210   O257    1.293   .     A
C210   O321    1.278   .     S
C211   C215    1.419   .     A
C211   C213    1.415   .     A
C212   C816    1.392   .     S
C213   C817    1.390   1_554 S
C214   C221    1.415   .     A
C214   C809    1.419   .     S
C215   C220    1.416   .     A
C215   C808    1.419   1_554 S
C216   O262    1.413   .     S
C216   H231    1.108   .     S
C216   H230    1.109   .     S
C216   H229    1.109   .     S
C217   H233    1.111   .     S
C217   O252    1.415   .     S
C217   H234    1.108   .     S
C217   H298    1.114   .     S
C218   H236    1.107   .     S
C218   H235    1.111   .     S
C218   O253    1.395   .     S
C218   H237    1.109   .     S
C219   O254    1.398   .     S
C219   H239    1.113   .     S
C219   H240    1.109   .     S
C219   H241    1.099   .     S
C220   C222    1.388   .     A
C220   H246    1.078   .     S
C221   H247    1.078   .     S
C221   C223    1.382   .     A
C222   H227    1.084   .     S
C222   C806    1.392   1_554 S
C223   H238    1.085   .     S
C223   C807    1.390   .     S
C224   C555    1.340   1_455 S
C224   H446    1.088   .     S
C226   O260    1.301   .     A
C226   O390    1.300   1_455 S
H228   C423    1.088   .     S
H232   C349    1.114   1_455 S
H245   C930    1.084   1_455 S
N249   O253    1.344   .     S
N249   N250    1.291   .     D
N249   Zn264   2.026   .     S
N250   O254    1.344   .     S
N250   Zn263   2.026   .     S
O251   Zn263   1.949   .     S
O251   C265    1.278   .     S
O252   C271    1.382   .     S
O255   Zn264   1.949   .     S
O255   C342    1.278   1_455 S
O256   Zn264   1.977   .     S
O257   Zn263   1.977   .     S
O258   Zn263   1.951   .     S
O258   C292    1.300   .     S
O259   Zn264   1.951   .     S
O259   C332    1.299   1_455 S
O260   Zn264   1.888   .     S
O261   Zn263   1.888   .     S
C265   O322    1.293   .     A
C265   C290    1.402   .     S
C266   C268    1.469   .     S
C266   O327    1.304   .     A
C266   O391    1.299   .     S
C267   C273    1.391   .     A
C267   C271    1.412   .     A
C267   C292    1.465   .     S
C268   C274    1.396   .     A
C268   C338    1.413   .     S
C269   H310    1.084   .     S
C269   C278    1.399   .     A
C269   C271    1.404   .     A
C270   C279    1.394   .     A
C270   C338    1.403   .     S
C270   H971    1.084   1_554 S
C272   O328    1.384   .     S
C273   H309    1.079   .     S
C273   C275    1.398   .     A
C274   C277    1.400   .     A
C274   H308    1.078   .     S
C275   C278    1.414   .     A
C275   C280    1.416   .     A
C276   C291    1.403   .     S
C276   O323    1.293   .     A
C276   O387    1.278   .     S
C277   C281    1.419   .     A
C277   C279    1.415   .     A
C278   C882    1.392   .     S
C279   C883    1.390   1_554 S
C280   C287    1.415   .     A
C280   C875    1.419   .     S
C281   C286    1.416   .     A
C281   C874    1.419   1_554 S
C282   O328    1.413   .     S
C282   H297    1.108   .     S
C282   H296    1.109   .     S
C282   H295    1.109   .     S
C283   H299    1.111   .     S
C283   O318    1.415   .     S
C283   H300    1.108   .     S
C283   H364    1.114   .     S
C284   H302    1.107   .     S
C284   H301    1.111   .     S
C284   O319    1.395   .     S
C284   H303    1.109   .     S
C285   O320    1.398   .     S
C285   H305    1.113   .     S
C285   H306    1.109   .     S
C285   H307    1.099   .     S
C286   C288    1.388   .     A
C286   H312    1.078   .     S
C287   H313    1.078   .     S
C287   C289    1.382   .     A
C288   H293    1.084   .     S
C288   C872    1.392   1_554 S
C289   H304    1.085   .     S
C289   C873    1.390   .     S
C290   C423    1.340   .     S
C290   H512    1.088   .     S
C292   O326    1.301   .     A
H294   C489    1.088   .     S
H311   C798    1.084   .     S
N315   O319    1.344   .     S
N315   N316    1.291   .     D
N315   Zn330   2.026   .     S
N316   O320    1.344   .     S
N316   Zn329   2.026   .     S
O317   Zn329   1.949   .     S
O317   C331    1.278   .     S
O318   C337    1.382   .     S
O321   Zn330   1.949   .     S
O322   Zn330   1.977   .     S
O323   Zn329   1.977   .     S
O324   Zn329   1.951   .     S
O324   C358    1.300   .     S
O325   Zn330   1.951   .     S
O326   Zn330   1.888   .     S
O327   Zn329   1.888   .     S
C331   O388    1.293   .     A
C331   C356    1.402   .     S
C332   C334    1.469   .     S
C332   O393    1.304   .     A
C332   O259    1.299   1_655 S
C333   C339    1.391   .     A
C333   C337    1.412   .     A
C333   C358    1.465   .     S
C334   C340    1.396   .     A
C334   C206    1.413   1_655 S
C335   H376    1.084   .     S
C335   C344    1.399   .     A
C335   C337    1.404   .     A
C336   C345    1.394   .     A
C336   C206    1.403   1_655 S
C336   H839    1.084   1_654 S
C338   O394    1.384   .     S
C339   H375    1.079   .     S
C339   C341    1.398   .     A
C340   C343    1.400   .     A
C340   H374    1.078   .     S
C341   C344    1.414   .     A
C341   C346    1.416   .     A
C342   C357    1.403   .     S
C342   O389    1.293   .     A
C342   O255    1.278   1_655 S
C343   C347    1.419   .     A
C343   C345    1.415   .     A
C344   C948    1.392   .     S
C345   C949    1.390   1_554 S
C346   C353    1.415   .     A
C346   C941    1.419   .     S
C347   C352    1.416   .     A
C347   C940    1.419   1_554 S
C348   O394    1.413   .     S
C348   H363    1.108   .     S
C348   H362    1.109   .     S
C348   H361    1.109   .     S
C349   H365    1.111   .     S
C349   O384    1.415   .     S
C349   H366    1.108   .     S
C349   H232    1.114   1_655 S
C350   H368    1.107   .     S
C350   H367    1.111   .     S
C350   O385    1.395   .     S
C350   H369    1.109   .     S
C351   O386    1.398   .     S
C351   H371    1.113   .     S
C351   H372    1.109   .     S
C351   H373    1.099   .     S
C352   C354    1.388   .     A
C352   H378    1.078   .     S
C353   H379    1.078   .     S
C353   C355    1.382   .     A
C354   H359    1.084   .     S
C354   C938    1.392   1_554 S
C355   H370    1.085   .     S
C355   C939    1.390   .     S
C356   C489    1.340   .     S
C356   H578    1.088   .     S
C357   C26     1.340   1_655 S
C358   O392    1.301   .     A
H360   C555    1.088   .     S
H377   C864    1.084   .     S
N381   O385    1.344   .     S
N381   N382    1.291   .     D
N381   Zn396   2.026   .     S
N382   O386    1.344   .     S
N382   Zn395   2.026   .     S
O383   Zn395   1.949   .     S
O383   C199    1.278   1_655 S
O384   C205    1.382   1_655 S
O387   Zn396   1.949   .     S
O388   Zn396   1.977   .     S
O389   Zn395   1.977   .     S
O390   Zn395   1.951   .     S
O390   C226    1.300   1_655 S
O391   Zn396   1.951   .     S
O392   Zn396   1.888   .     S
O393   Zn395   1.888   .     S
C397   O454    1.293   .     A
C397   C422    1.402   .     S
C397   O581    1.278   1_455 S
C398   C400    1.469   .     S
C398   O459    1.304   .     A
C398   O523    1.299   .     S
C399   C405    1.391   .     A
C399   C403    1.412   .     A
C399   C424    1.465   .     S
C400   C406    1.396   .     A
C400   C470    1.413   .     S
C401   H442    1.084   .     S
C401   C410    1.399   .     A
C401   C403    1.404   .     A
C402   C411    1.394   .     A
C402   C470    1.403   .     S
C402   H1103   1.084   1_554 S
C403   O582    1.382   1_455 S
C404   O460    1.384   .     S
C404   C532    1.413   1_455 S
C404   C534    1.403   1_455 S
C405   H441    1.079   .     S
C405   C407    1.398   .     A
C406   C409    1.400   .     A
C406   H440    1.078   .     S
C407   C410    1.414   .     A
C407   C412    1.416   .     A
C408   C423    1.403   .     S
C408   O455    1.293   .     A
C408   O519    1.278   .     S
C409   C413    1.419   .     A
C409   C411    1.415   .     A
C410   C1014   1.392   .     S
C411   C1015   1.390   1_554 S
C412   C419    1.415   .     A
C412   C1007   1.419   .     S
C413   C418    1.416   .     A
C413   C1006   1.419   1_554 S
C414   O460    1.413   .     S
C414   H429    1.108   .     S
C414   H428    1.109   .     S
C414   H427    1.109   .     S
C415   H431    1.111   .     S
C415   O450    1.415   .     S
C415   H432    1.108   .     S
C415   H496    1.114   .     S
C416   H434    1.107   .     S
C416   H433    1.111   .     S
C416   O451    1.395   .     S
C416   H435    1.109   .     S
C417   O452    1.398   .     S
C417   H437    1.113   .     S
C417   H438    1.109   .     S
C417   H439    1.099   .     S
C418   C420    1.388   .     A
C418   H444    1.078   .     S
C419   H445    1.078   .     S
C419   C421    1.382   .     A
C420   H425    1.084   .     S
C420   C1004   1.392   1_554 S
C421   H436    1.085   .     S
C421   C1005   1.390   .     S
C422   C159    1.340   1_465 S
C422   H50     1.088   1_565 S
C424   O458    1.301   .     A
C424   O588    1.300   1_455 S
H426   C27     1.088   1_565 S
H430   C547    1.114   1_455 S
H443   C1128   1.084   1_455 S
N447   O451    1.344   .     S
N447   N448    1.291   .     D
N447   Zn462   2.026   .     S
N448   O452    1.344   .     S
N448   Zn461   2.026   .     S
O449   Zn461   1.949   .     S
O449   C463    1.278   .     S
O450   C469    1.382   .     S
O453   Zn462   1.949   .     S
O453   C540    1.278   1_455 S
O454   Zn462   1.977   .     S
O455   Zn461   1.977   .     S
O456   Zn461   1.951   .     S
O456   C490    1.300   .     S
O457   Zn462   1.951   .     S
O457   C530    1.299   1_455 S
O458   Zn462   1.888   .     S
O459   Zn461   1.888   .     S
C463   O520    1.293   .     A
C463   C488    1.402   .     S
C464   C466    1.469   .     S
C464   O525    1.304   .     A
C464   O589    1.299   .     S
C465   C471    1.391   .     A
C465   C469    1.412   .     A
C465   C490    1.465   .     S
C466   C472    1.396   .     A
C466   C536    1.413   .     S
C467   H508    1.084   .     S
C467   C476    1.399   .     A
C467   C469    1.404   .     A
C468   C477    1.394   .     A
C468   C536    1.403   .     S
C468   H1169   1.084   1_554 S
C470   O526    1.384   .     S
C471   H507    1.079   .     S
C471   C473    1.398   .     A
C472   C475    1.400   .     A
C472   H506    1.078   .     S
C473   C476    1.414   .     A
C473   C478    1.416   .     A
C474   C489    1.403   .     S
C474   O521    1.293   .     A
C474   O585    1.278   .     S
C475   C479    1.419   .     A
C475   C477    1.415   .     A
C476   C1080   1.392   .     S
C477   C1081   1.390   1_554 S
C478   C485    1.415   .     A
C478   C1073   1.419   .     S
C479   C484    1.416   .     A
C479   C1072   1.419   1_554 S
C480   O526    1.413   .     S
C480   H495    1.108   .     S
C480   H494    1.109   .     S
C480   H493    1.109   .     S
C481   H497    1.111   .     S
C481   O516    1.415   .     S
C481   H498    1.108   .     S
C481   H562    1.114   .     S
C482   H500    1.107   .     S
C482   H499    1.111   .     S
C482   O517    1.395   .     S
C482   H501    1.109   .     S
C483   O518    1.398   .     S
C483   H503    1.113   .     S
C483   H504    1.109   .     S
C483   H505    1.099   .     S
C484   C486    1.388   .     A
C484   H510    1.078   .     S
C485   H511    1.078   .     S
C485   C487    1.382   .     A
C486   H491    1.084   .     S
C486   C1070   1.392   1_554 S
C487   H502    1.085   .     S
C487   C1071   1.390   .     S
C488   C27     1.340   1_565 S
C488   H116    1.088   1_565 S
C490   O524    1.301   .     A
H492   C93     1.088   1_565 S
H509   C996    1.084   .     S
N513   O517    1.344   .     S
N513   N514    1.291   .     D
N513   Zn528   2.026   .     S
N514   O518    1.344   .     S
N514   Zn527   2.026   .     S
O515   Zn527   1.949   .     S
O515   C529    1.278   .     S
O516   C535    1.382   .     S
O519   Zn528   1.949   .     S
O520   Zn528   1.977   .     S
O521   Zn527   1.977   .     S
O522   Zn527   1.951   .     S
O522   C556    1.300   .     S
O523   Zn528   1.951   .     S
O524   Zn528   1.888   .     S
O525   Zn527   1.888   .     S
C529   O586    1.293   .     A
C529   C554    1.402   .     S
C530   C532    1.469   .     S
C530   O591    1.304   .     A
C530   O457    1.299   1_655 S
C531   C537    1.391   .     A
C531   C535    1.412   .     A
C531   C556    1.465   .     S
C532   C538    1.396   .     A
C532   C404    1.413   1_655 S
C533   H574    1.084   .     S
C533   C542    1.399   .     A
C533   C535    1.404   .     A
C534   C543    1.394   .     A
C534   C404    1.403   1_655 S
C534   H1037   1.084   1_654 S
C536   O592    1.384   .     S
C537   H573    1.079   .     S
C537   C539    1.398   .     A
C538   C541    1.400   .     A
C538   H572    1.078   .     S
C539   C542    1.414   .     A
C539   C544    1.416   .     A
C540   C555    1.403   .     S
C540   O587    1.293   .     A
C540   O453    1.278   1_655 S
C541   C545    1.419   .     A
C541   C543    1.415   .     A
C542   C1146   1.392   .     S
C543   C1147   1.390   1_554 S
C544   C551    1.415   .     A
C544   C1139   1.419   .     S
C545   C550    1.416   .     A
C545   C1138   1.419   1_554 S
C546   O592    1.413   .     S
C546   H561    1.108   .     S
C546   H560    1.109   .     S
C546   H559    1.109   .     S
C547   H563    1.111   .     S
C547   O582    1.415   .     S
C547   H564    1.108   .     S
C547   H430    1.114   1_655 S
C548   H566    1.107   .     S
C548   H565    1.111   .     S
C548   O583    1.395   .     S
C548   H567    1.109   .     S
C549   O584    1.398   .     S
C549   H569    1.113   .     S
C549   H570    1.109   .     S
C549   H571    1.099   .     S
C550   C552    1.388   .     A
C550   H576    1.078   .     S
C551   H577    1.078   .     S
C551   C553    1.382   .     A
C552   H557    1.084   .     S
C552   C1136   1.392   1_554 S
C553   H568    1.085   .     S
C553   C1137   1.390   .     S
C554   C93     1.340   1_565 S
C554   H182    1.088   1_565 S
C555   C224    1.340   1_655 S
C556   O590    1.301   .     A
H558   C159    1.088   1_565 S
H575   C1062   1.084   .     S
N579   O583    1.344   .     S
N579   N580    1.291   .     D
N579   Zn594   2.026   .     S
N580   O584    1.344   .     S
N580   Zn593   2.026   .     S
O581   Zn593   1.949   .     S
O581   C397    1.278   1_655 S
O582   C403    1.382   1_655 S
O585   Zn594   1.949   .     S
O586   Zn594   1.977   .     S
O587   Zn593   1.977   .     S
O588   Zn593   1.951   .     S
O588   C424    1.300   1_655 S
O589   Zn594   1.951   .     S
O590   Zn594   1.888   .     S
O591   Zn593   1.888   .     S
C595   O652    1.293   .     A
C595   C620    1.402   .     S
C595   O779    1.278   1_455 S
C596   C598    1.469   .     S
C596   O657    1.304   .     A
C596   O721    1.299   .     S
C597   C603    1.391   .     A
C597   C601    1.412   .     A
C597   C622    1.465   .     S
C598   C604    1.396   .     A
C598   C668    1.413   .     S
C599   H640    1.084   .     S
C599   C608    1.399   .     A
C599   C601    1.404   .     A
C600   C609    1.394   .     A
C600   C668    1.403   .     S
C601   O780    1.382   1_455 S
C602   O658    1.384   .     S
C602   C730    1.413   1_455 S
C602   C732    1.403   1_455 S
C603   H639    1.079   .     S
C603   C605    1.398   .     A
C604   C607    1.400   .     A
C604   H638    1.078   .     S
C605   C608    1.414   .     A
C605   C610    1.416   .     A
C606   C621    1.403   .     S
C606   O653    1.293   .     A
C606   O717    1.278   .     S
C607   C611    1.419   .     A
C607   C609    1.415   .     A
C608   C24     1.392   1_556 S
C610   C617    1.415   .     A
C610   C17     1.419   1_556 S
C611   C616    1.416   .     A
C612   O658    1.413   .     S
C612   H627    1.108   .     S
C612   H626    1.109   .     S
C612   H625    1.109   .     S
C613   H629    1.111   .     S
C613   O648    1.415   .     S
C613   H630    1.108   .     S
C613   H694    1.114   .     S
C614   H632    1.107   .     S
C614   H631    1.111   .     S
C614   O649    1.395   .     S
C614   H633    1.109   .     S
C615   O650    1.398   .     S
C615   H635    1.113   .     S
C615   H636    1.109   .     S
C615   H637    1.099   .     S
C616   C618    1.388   .     A
C616   H642    1.078   .     S
C617   H643    1.078   .     S
C617   C619    1.382   .     A
C618   H623    1.084   .     S
C619   H634    1.085   .     S
C619   C15     1.390   1_556 S
C620   C951    1.340   1_455 S
C620   H842    1.088   .     S
C621   C1082   1.340   1_545 S
C621   H1020   1.088   1_545 S
C622   O656    1.301   .     A
C622   O786    1.300   1_455 S
H624   C819    1.088   .     S
H628   C745    1.114   1_455 S
H641   C138    1.084   1_456 S
H644   C1016   1.088   1_545 S
N645   O649    1.344   .     S
N645   N646    1.291   .     D
N645   Zn660   2.026   .     S
N646   O650    1.344   .     S
N646   Zn659   2.026   .     S
O647   Zn659   1.949   .     S
O647   C661    1.278   .     S
O648   C667    1.382   .     S
O651   Zn660   1.949   .     S
O651   C738    1.278   1_455 S
O652   Zn660   1.977   .     S
O653   Zn659   1.977   .     S
O654   Zn659   1.951   .     S
O654   C688    1.300   .     S
O655   Zn660   1.951   .     S
O655   C728    1.299   1_455 S
O656   Zn660   1.888   .     S
O657   Zn659   1.888   .     S
C661   O718    1.293   .     A
C661   C686    1.402   .     S
C662   C664    1.469   .     S
C662   O723    1.304   .     A
C662   O787    1.299   .     S
C663   C669    1.391   .     A
C663   C667    1.412   .     A
C663   C688    1.465   .     S
C664   C670    1.396   .     A
C664   C734    1.413   .     S
C665   H706    1.084   .     S
C665   C674    1.399   .     A
C665   C667    1.404   .     A
C666   C675    1.394   .     A
C666   C734    1.403   .     S
C668   O724    1.384   .     S
C669   H705    1.079   .     S
C669   C671    1.398   .     A
C670   C673    1.400   .     A
C670   H704    1.078   .     S
C671   C674    1.414   .     A
C671   C676    1.416   .     A
C672   C687    1.403   .     S
C672   O719    1.293   .     A
C672   O783    1.278   .     S
C673   C677    1.419   .     A
C673   C675    1.415   .     A
C674   C90     1.392   1_556 S
C676   C683    1.415   .     A
C676   C83     1.419   1_556 S
C677   C682    1.416   .     A
C678   O724    1.413   .     S
C678   H693    1.108   .     S
C678   H692    1.109   .     S
C678   H691    1.109   .     S
C679   H695    1.111   .     S
C679   O714    1.415   .     S
C679   H696    1.108   .     S
C679   H760    1.114   .     S
C680   H698    1.107   .     S
C680   H697    1.111   .     S
C680   O715    1.395   .     S
C680   H699    1.109   .     S
C681   O716    1.398   .     S
C681   H701    1.113   .     S
C681   H702    1.109   .     S
C681   H703    1.099   .     S
C682   C684    1.388   .     A
C682   H708    1.078   .     S
C683   H709    1.078   .     S
C683   C685    1.382   .     A
C684   H689    1.084   .     S
C685   H700    1.085   .     S
C685   C81     1.390   1_556 S
C686   C819    1.340   .     S
C686   H908    1.088   .     S
C687   C1148   1.340   1_545 S
C687   H1086   1.088   1_545 S
C688   O722    1.301   .     A
H690   C885    1.088   .     S
H707   C6      1.084   1_556 S
H710   C1082   1.088   1_545 S
N711   O715    1.344   .     S
N711   N712    1.291   .     D
N711   Zn726   2.026   .     S
N712   O716    1.344   .     S
N712   Zn725   2.026   .     S
O713   Zn725   1.949   .     S
O713   C727    1.278   .     S
O714   C733    1.382   .     S
O717   Zn726   1.949   .     S
O718   Zn726   1.977   .     S
O719   Zn725   1.977   .     S
O720   Zn725   1.951   .     S
O720   C754    1.300   .     S
O721   Zn726   1.951   .     S
O722   Zn726   1.888   .     S
O723   Zn725   1.888   .     S
C727   O784    1.293   .     A
C727   C752    1.402   .     S
C728   C730    1.469   .     S
C728   O789    1.304   .     A
C728   O655    1.299   1_655 S
C729   C735    1.391   .     A
C729   C733    1.412   .     A
C729   C754    1.465   .     S
C730   C736    1.396   .     A
C730   C602    1.413   1_655 S
C731   H772    1.084   .     S
C731   C740    1.399   .     A
C731   C733    1.404   .     A
C732   C741    1.394   .     A
C732   C602    1.403   1_655 S
C732   H47     1.084   1_655 S
C734   O790    1.384   .     S
C735   H771    1.079   .     S
C735   C737    1.398   .     A
C736   C739    1.400   .     A
C736   H770    1.078   .     S
C737   C740    1.414   .     A
C737   C742    1.416   .     A
C738   C753    1.403   .     S
C738   O785    1.293   .     A
C738   O651    1.278   1_655 S
C739   C743    1.419   .     A
C739   C741    1.415   .     A
C740   C156    1.392   1_556 S
C742   C749    1.415   .     A
C742   C149    1.419   1_556 S
C743   C748    1.416   .     A
C744   O790    1.413   .     S
C744   H759    1.108   .     S
C744   H758    1.109   .     S
C744   H757    1.109   .     S
C745   H761    1.111   .     S
C745   O780    1.415   .     S
C745   H762    1.108   .     S
C745   H628    1.114   1_655 S
C746   H764    1.107   .     S
C746   H763    1.111   .     S
C746   O781    1.395   .     S
C746   H765    1.109   .     S
C747   O782    1.398   .     S
C747   H767    1.113   .     S
C747   H768    1.109   .     S
C747   H769    1.099   .     S
C748   C750    1.388   .     A
C748   H774    1.078   .     S
C749   H775    1.078   .     S
C749   C751    1.382   .     A
C750   H755    1.084   .     S
C751   H766    1.085   .     S
C751   C147    1.390   1_556 S
C752   C885    1.340   .     S
C752   H974    1.088   .     S
C753   C1016   1.340   1_645 S
C753   H1152   1.088   1_545 S
C754   O788    1.301   .     A
H756   C951    1.088   .     S
H773   C72     1.084   1_556 S
H776   C1148   1.088   1_545 S
N777   O781    1.344   .     S
N777   N778    1.291   .     D
N777   Zn792   2.026   .     S
N778   O782    1.344   .     S
N778   Zn791   2.026   .     S
O779   Zn791   1.949   .     S
O779   C595    1.278   1_655 S
O780   C601    1.382   1_655 S
O783   Zn792   1.949   .     S
O784   Zn792   1.977   .     S
O785   Zn791   1.977   .     S
O786   Zn791   1.951   .     S
O786   C622    1.300   1_655 S
O787   Zn792   1.951   .     S
O788   Zn792   1.888   .     S
O789   Zn791   1.888   .     S
C793   O850    1.293   .     A
C793   C818    1.402   .     S
C793   O977    1.278   1_455 S
C794   C796    1.469   .     S
C794   O855    1.304   .     A
C794   O919    1.299   .     S
C795   C801    1.391   .     A
C795   C799    1.412   .     A
C795   C820    1.465   .     S
C796   C802    1.396   .     A
C796   C866    1.413   .     S
C797   H838    1.084   .     S
C797   C806    1.399   .     A
C797   C799    1.404   .     A
C798   C807    1.394   .     A
C798   C866    1.403   .     S
C799   O978    1.382   1_455 S
C800   O856    1.384   .     S
C800   C928    1.413   1_455 S
C800   C930    1.403   1_455 S
C801   H837    1.079   .     S
C801   C803    1.398   .     A
C802   C805    1.400   .     A
C802   H836    1.078   .     S
C803   C806    1.414   .     A
C803   C808    1.416   .     A
C804   C819    1.403   .     S
C804   O851    1.293   .     A
C804   O915    1.278   .     S
C805   C809    1.419   .     A
C805   C807    1.415   .     A
C806   C222    1.392   1_556 S
C808   C815    1.415   .     A
C808   C215    1.419   1_556 S
C809   C814    1.416   .     A
C810   O856    1.413   .     S
C810   H825    1.108   .     S
C810   H824    1.109   .     S
C810   H823    1.109   .     S
C811   H827    1.111   .     S
C811   O846    1.415   .     S
C811   H828    1.108   .     S
C811   H892    1.114   .     S
C812   H830    1.107   .     S
C812   H829    1.111   .     S
C812   O847    1.395   .     S
C812   H831    1.109   .     S
C813   O848    1.398   .     S
C813   H833    1.113   .     S
C813   H834    1.109   .     S
C813   H835    1.099   .     S
C814   C816    1.388   .     A
C814   H840    1.078   .     S
C815   H841    1.078   .     S
C815   C817    1.382   .     A
C816   H821    1.084   .     S
C817   H832    1.085   .     S
C817   C213    1.390   1_556 S
C818   C1149   1.340   1_455 S
C818   H1040   1.088   .     S
C820   O854    1.301   .     A
C820   O984    1.300   1_455 S
H822   C1017   1.088   .     S
H826   C943    1.114   1_455 S
H839   C336    1.084   1_456 S
N843   O847    1.344   .     S
N843   N844    1.291   .     D
N843   Zn858   2.026   .     S
N844   O848    1.344   .     S
N844   Zn857   2.026   .     S
O845   Zn857   1.949   .     S
O845   C859    1.278   .     S
O846   C865    1.382   .     S
O849   Zn858   1.949   .     S
O849   C936    1.278   1_455 S
O850   Zn858   1.977   .     S
O851   Zn857   1.977   .     S
O852   Zn857   1.951   .     S
O852   C886    1.300   .     S
O853   Zn858   1.951   .     S
O853   C926    1.299   1_455 S
O854   Zn858   1.888   .     S
O855   Zn857   1.888   .     S
C859   O916    1.293   .     A
C859   C884    1.402   .     S
C860   C862    1.469   .     S
C860   O921    1.304   .     A
C860   O985    1.299   .     S
C861   C867    1.391   .     A
C861   C865    1.412   .     A
C861   C886    1.465   .     S
C862   C868    1.396   .     A
C862   C932    1.413   .     S
C863   H904    1.084   .     S
C863   C872    1.399   .     A
C863   C865    1.404   .     A
C864   C873    1.394   .     A
C864   C932    1.403   .     S
C866   O922    1.384   .     S
C867   H903    1.079   .     S
C867   C869    1.398   .     A
C868   C871    1.400   .     A
C868   H902    1.078   .     S
C869   C872    1.414   .     A
C869   C874    1.416   .     A
C870   C885    1.403   .     S
C870   O917    1.293   .     A
C870   O981    1.278   .     S
C871   C875    1.419   .     A
C871   C873    1.415   .     A
C872   C288    1.392   1_556 S
C874   C881    1.415   .     A
C874   C281    1.419   1_556 S
C875   C880    1.416   .     A
C876   O922    1.413   .     S
C876   H891    1.108   .     S
C876   H890    1.109   .     S
C876   H889    1.109   .     S
C877   H893    1.111   .     S
C877   O912    1.415   .     S
C877   H894    1.108   .     S
C877   H958    1.114   .     S
C878   H896    1.107   .     S
C878   H895    1.111   .     S
C878   O913    1.395   .     S
C878   H897    1.109   .     S
C879   O914    1.398   .     S
C879   H899    1.113   .     S
C879   H900    1.109   .     S
C879   H901    1.099   .     S
C880   C882    1.388   .     A
C880   H906    1.078   .     S
C881   H907    1.078   .     S
C881   C883    1.382   .     A
C882   H887    1.084   .     S
C883   H898    1.085   .     S
C883   C279    1.390   1_556 S
C884   C1017   1.340   .     S
C884   H1106   1.088   .     S
C886   O920    1.301   .     A
H888   C1083   1.088   .     S
H905   C204    1.084   1_556 S
N909   O913    1.344   .     S
N909   N910    1.291   .     D
N909   Zn924   2.026   .     S
N910   O914    1.344   .     S
N910   Zn923   2.026   .     S
O911   Zn923   1.949   .     S
O911   C925    1.278   .     S
O912   C931    1.382   .     S
O915   Zn924   1.949   .     S
O916   Zn924   1.977   .     S
O917   Zn923   1.977   .     S
O918   Zn923   1.951   .     S
O918   C952    1.300   .     S
O919   Zn924   1.951   .     S
O920   Zn924   1.888   .     S
O921   Zn923   1.888   .     S
C925   O982    1.293   .     A
C925   C950    1.402   .     S
C926   C928    1.469   .     S
C926   O987    1.304   .     A
C926   O853    1.299   1_655 S
C927   C933    1.391   .     A
C927   C931    1.412   .     A
C927   C952    1.465   .     S
C928   C934    1.396   .     A
C928   C800    1.413   1_655 S
C929   H970    1.084   .     S
C929   C938    1.399   .     A
C929   C931    1.404   .     A
C930   C939    1.394   .     A
C930   C800    1.403   1_655 S
C930   H245    1.084   1_655 S
C932   O988    1.384   .     S
C933   H969    1.079   .     S
C933   C935    1.398   .     A
C934   C937    1.400   .     A
C934   H968    1.078   .     S
C935   C938    1.414   .     A
C935   C940    1.416   .     A
C936   C951    1.403   .     S
C936   O983    1.293   .     A
C936   O849    1.278   1_655 S
C937   C941    1.419   .     A
C937   C939    1.415   .     A
C938   C354    1.392   1_556 S
C940   C947    1.415   .     A
C940   C347    1.419   1_556 S
C941   C946    1.416   .     A
C942   O988    1.413   .     S
C942   H957    1.108   .     S
C942   H956    1.109   .     S
C942   H955    1.109   .     S
C943   H959    1.111   .     S
C943   O978    1.415   .     S
C943   H960    1.108   .     S
C943   H826    1.114   1_655 S
C944   H962    1.107   .     S
C944   H961    1.111   .     S
C944   O979    1.395   .     S
C944   H963    1.109   .     S
C945   O980    1.398   .     S
C945   H965    1.113   .     S
C945   H966    1.109   .     S
C945   H967    1.099   .     S
C946   C948    1.388   .     A
C946   H972    1.078   .     S
C947   H973    1.078   .     S
C947   C949    1.382   .     A
C948   H953    1.084   .     S
C949   H964    1.085   .     S
C949   C345    1.390   1_556 S
C950   C1083   1.340   .     S
C950   H1172   1.088   .     S
C951   C620    1.340   1_655 S
C952   O986    1.301   .     A
H954   C1149   1.088   .     S
H971   C270    1.084   1_556 S
N975   O979    1.344   .     S
N975   N976    1.291   .     D
N975   Zn990   2.026   .     S
N976   O980    1.344   .     S
N976   Zn989   2.026   .     S
O977   Zn989   1.949   .     S
O977   C793    1.278   1_655 S
O978   C799    1.382   1_655 S
O981   Zn990   1.949   .     S
O982   Zn990   1.977   .     S
O983   Zn989   1.977   .     S
O984   Zn989   1.951   .     S
O984   C820    1.300   1_655 S
O985   Zn990   1.951   .     S
O986   Zn990   1.888   .     S
O987   Zn989   1.888   .     S
C991   O1048   1.293   .     A
C991   C1016   1.402   .     S
C991   O1175   1.278   1_455 S
C992   C994    1.469   .     S
C992   O1053   1.304   .     A
C992   O1117   1.299   .     S
C993   C999    1.391   .     A
C993   C997    1.412   .     A
C993   C1018   1.465   .     S
C994   C1000   1.396   .     A
C994   C1064   1.413   .     S
C995   H1036   1.084   .     S
C995   C1004   1.399   .     A
C995   C997    1.404   .     A
C996   C1005   1.394   .     A
C996   C1064   1.403   .     S
C997   O1176   1.382   1_455 S
C998   O1054   1.384   .     S
C998   C1126   1.413   1_455 S
C998   C1128   1.403   1_455 S
C999   H1035   1.079   .     S
C999   C1001   1.398   .     A
C1000  C1003   1.400   .     A
C1000  H1034   1.078   .     S
C1001  C1004   1.414   .     A
C1001  C1006   1.416   .     A
C1002  C1017   1.403   .     S
C1002  O1049   1.293   .     A
C1002  O1113   1.278   .     S
C1003  C1007   1.419   .     A
C1003  C1005   1.415   .     A
C1004  C420    1.392   1_556 S
C1006  C1013   1.415   .     A
C1006  C413    1.419   1_556 S
C1007  C1012   1.416   .     A
C1008  O1054   1.413   .     S
C1008  H1023   1.108   .     S
C1008  H1022   1.109   .     S
C1008  H1021   1.109   .     S
C1009  H1025   1.111   .     S
C1009  O1044   1.415   .     S
C1009  H1026   1.108   .     S
C1009  H1090   1.114   .     S
C1010  H1028   1.107   .     S
C1010  H1027   1.111   .     S
C1010  O1045   1.395   .     S
C1010  H1029   1.109   .     S
C1011  O1046   1.398   .     S
C1011  H1031   1.113   .     S
C1011  H1032   1.109   .     S
C1011  H1033   1.099   .     S
C1012  C1014   1.388   .     A
C1012  H1038   1.078   .     S
C1013  H1039   1.078   .     S
C1013  C1015   1.382   .     A
C1014  H1019   1.084   .     S
C1015  H1030   1.085   .     S
C1015  C411    1.390   1_556 S
C1016  C753    1.340   1_465 S
C1016  H644    1.088   1_565 S
C1018  O1052   1.301   .     A
C1018  O1182   1.300   1_455 S
H1020  C621    1.088   1_565 S
H1024  C1141   1.114   1_455 S
H1037  C534    1.084   1_456 S
N1041  O1045   1.344   .     S
N1041  N1042   1.291   .     D
N1041  Zn1056  2.026   .     S
N1042  O1046   1.344   .     S
N1042  Zn1055  2.026   .     S
O1043  Zn1055  1.949   .     S
O1043  C1057   1.278   .     S
O1044  C1063   1.382   .     S
O1047  Zn1056  1.949   .     S
O1047  C1134   1.278   1_455 S
O1048  Zn1056  1.977   .     S
O1049  Zn1055  1.977   .     S
O1050  Zn1055  1.951   .     S
O1050  C1084   1.300   .     S
O1051  Zn1056  1.951   .     S
O1051  C1124   1.299   1_455 S
O1052  Zn1056  1.888   .     S
O1053  Zn1055  1.888   .     S
C1057  O1114   1.293   .     A
C1057  C1082   1.402   .     S
C1058  C1060   1.469   .     S
C1058  O1119   1.304   .     A
C1058  O1183   1.299   .     S
C1059  C1065   1.391   .     A
C1059  C1063   1.412   .     A
C1059  C1084   1.465   .     S
C1060  C1066   1.396   .     A
C1060  C1130   1.413   .     S
C1061  H1102   1.084   .     S
C1061  C1070   1.399   .     A
C1061  C1063   1.404   .     A
C1062  C1071   1.394   .     A
C1062  C1130   1.403   .     S
C1064  O1120   1.384   .     S
C1065  H1101   1.079   .     S
C1065  C1067   1.398   .     A
C1066  C1069   1.400   .     A
C1066  H1100   1.078   .     S
C1067  C1070   1.414   .     A
C1067  C1072   1.416   .     A
C1068  C1083   1.403   .     S
C1068  O1115   1.293   .     A
C1068  O1179   1.278   .     S
C1069  C1073   1.419   .     A
C1069  C1071   1.415   .     A
C1070  C486    1.392   1_556 S
C1072  C1079   1.415   .     A
C1072  C479    1.419   1_556 S
C1073  C1078   1.416   .     A
C1074  O1120   1.413   .     S
C1074  H1089   1.108   .     S
C1074  H1088   1.109   .     S
C1074  H1087   1.109   .     S
C1075  H1091   1.111   .     S
C1075  O1110   1.415   .     S
C1075  H1092   1.108   .     S
C1075  H1156   1.114   .     S
C1076  H1094   1.107   .     S
C1076  H1093   1.111   .     S
C1076  O1111   1.395   .     S
C1076  H1095   1.109   .     S
C1077  O1112   1.398   .     S
C1077  H1097   1.113   .     S
C1077  H1098   1.109   .     S
C1077  H1099   1.099   .     S
C1078  C1080   1.388   .     A
C1078  H1104   1.078   .     S
C1079  H1105   1.078   .     S
C1079  C1081   1.382   .     A
C1080  H1085   1.084   .     S
C1081  H1096   1.085   .     S
C1081  C477    1.390   1_556 S
C1082  C621    1.340   1_565 S
C1082  H710    1.088   1_565 S
C1084  O1118   1.301   .     A
H1086  C687    1.088   1_565 S
H1103  C402    1.084   1_556 S
N1107  O1111   1.344   .     S
N1107  N1108   1.291   .     D
N1107  Zn1122  2.026   .     S
N1108  O1112   1.344   .     S
N1108  Zn1121  2.026   .     S
O1109  Zn1121  1.949   .     S
O1109  C1123   1.278   .     S
O1110  C1129   1.382   .     S
O1113  Zn1122  1.949   .     S
O1114  Zn1122  1.977   .     S
O1115  Zn1121  1.977   .     S
O1116  Zn1121  1.951   .     S
O1116  C1150   1.300   .     S
O1117  Zn1122  1.951   .     S
O1118  Zn1122  1.888   .     S
O1119  Zn1121  1.888   .     S
C1123  O1180   1.293   .     A
C1123  C1148   1.402   .     S
C1124  C1126   1.469   .     S
C1124  O1185   1.304   .     A
C1124  O1051   1.299   1_655 S
C1125  C1131   1.391   .     A
C1125  C1129   1.412   .     A
C1125  C1150   1.465   .     S
C1126  C1132   1.396   .     A
C1126  C998    1.413   1_655 S
C1127  H1168   1.084   .     S
C1127  C1136   1.399   .     A
C1127  C1129   1.404   .     A
C1128  C1137   1.394   .     A
C1128  C998    1.403   1_655 S
C1128  H443    1.084   1_655 S
C1130  O1186   1.384   .     S
C1131  H1167   1.079   .     S
C1131  C1133   1.398   .     A
C1132  C1135   1.400   .     A
C1132  H1166   1.078   .     S
C1133  C1136   1.414   .     A
C1133  C1138   1.416   .     A
C1134  C1149   1.403   .     S
C1134  O1181   1.293   .     A
C1134  O1047   1.278   1_655 S
C1135  C1139   1.419   .     A
C1135  C1137   1.415   .     A
C1136  C552    1.392   1_556 S
C1138  C1145   1.415   .     A
C1138  C545    1.419   1_556 S
C1139  C1144   1.416   .     A
C1140  O1186   1.413   .     S
C1140  H1155   1.108   .     S
C1140  H1154   1.109   .     S
C1140  H1153   1.109   .     S
C1141  H1157   1.111   .     S
C1141  O1176   1.415   .     S
C1141  H1158   1.108   .     S
C1141  H1024   1.114   1_655 S
C1142  H1160   1.107   .     S
C1142  H1159   1.111   .     S
C1142  O1177   1.395   .     S
C1142  H1161   1.109   .     S
C1143  O1178   1.398   .     S
C1143  H1163   1.113   .     S
C1143  H1164   1.109   .     S
C1143  H1165   1.099   .     S
C1144  C1146   1.388   .     A
C1144  H1170   1.078   .     S
C1145  H1171   1.078   .     S
C1145  C1147   1.382   .     A
C1146  H1151   1.084   .     S
C1147  H1162   1.085   .     S
C1147  C543    1.390   1_556 S
C1148  C687    1.340   1_565 S
C1148  H776    1.088   1_565 S
C1149  C818    1.340   1_655 S
C1150  O1184   1.301   .     A
H1152  C753    1.088   1_565 S
H1169  C468    1.084   1_556 S
N1173  O1177   1.344   .     S
N1173  N1174   1.291   .     D
N1173  Zn1188  2.026   .     S
N1174  O1178   1.344   .     S
N1174  Zn1187  2.026   .     S
O1175  Zn1187  1.949   .     S
O1175  C991    1.278   1_655 S
O1176  C997    1.382   1_655 S
O1179  Zn1188  1.949   .     S
O1180  Zn1188  1.977   .     S
O1181  Zn1187  1.977   .     S
O1182  Zn1187  1.951   .     S
O1182  C1018   1.300   1_655 S
O1183  Zn1188  1.951   .     S
O1184  Zn1188  1.888   .     S
O1185  Zn1187  1.888   .     S
