data_str_m3_o1_o18_pcu_sym.106
_audit_creation_date              2020-01-03
_audit_creation_method            'Materials Studio'
_symmetry_space_group_name_H-M    'P1'
_symmetry_Int_Tables_number       1
_symmetry_cell_setting            triclinic
loop_
_symmetry_equiv_pos_as_xyz
  x,y,z
_cell_length_a                    30.0092
_cell_length_b                    32.3345
_cell_length_c                    30.6230
_cell_angle_alpha                 92.5534
_cell_angle_beta                  69.4095
_cell_angle_gamma                 91.5114
loop_
_atom_site_label
_atom_site_type_symbol
_atom_site_fract_x
_atom_site_fract_y
_atom_site_fract_z
_atom_site_U_iso_or_equiv
_atom_site_adp_type
_atom_site_occupancy
C1     C     0.16825   0.24675   0.24729   0.00000  Uiso   1.00
C2     C     0.16417   0.08721   0.25513   0.00000  Uiso   1.00
C3     C     0.10045   0.18177   0.05997   0.00000  Uiso   1.00
C4     C     0.19085   0.23465   0.46837   0.00000  Uiso   1.00
C5     C     0.06774   0.16795   0.03857   0.00000  Uiso   1.00
C6     C     0.22807   0.24014   0.48635   0.00000  Uiso   1.00
C7     C     0.20661   0.31519   0.25356   0.00000  Uiso   1.00
C8     C     0.12209   0.02000   0.25766   0.00000  Uiso   1.00
C9     C     0.19957   0.02340   0.26668   0.00000  Uiso   1.00
C10    C     0.12836   0.31161   0.24499   0.00000  Uiso   1.00
C11    C     0.16055   0.04316   0.26218   0.00000  Uiso   1.00
C12    C     0.16917   0.29170   0.24636   0.00000  Uiso   1.00
C13    C     0.31906   0.13982   0.22097   0.00000  Uiso   1.00
C14    C     0.01412   0.19279   0.27971   0.00000  Uiso   1.00
C15    C     0.03343   0.13970   0.22106   0.00000  Uiso   1.00
C16    C     0.29992   0.19270   0.27957   0.00000  Uiso   1.00
C17    C     0.13641   0.16583   0.33828   0.00000  Uiso   1.00
C18    C     0.19653   0.16918   0.16191   0.00000  Uiso   1.00
C19    C     0.11592   0.16638   0.39011   0.00000  Uiso   1.00
C20    C     0.21360   0.18041   0.11192   0.00000  Uiso   1.00
C21    C     0.05266   0.15207   0.46448   0.00000  Uiso   1.00
C22    C     0.26164   0.22272   0.04652   0.00000  Uiso   1.00
C23    C     0.07006   0.15026   0.41539   0.00000  Uiso   1.00
C24    C     0.25322   0.20674   0.09117   0.00000  Uiso   1.00
C25    C     0.14233   0.18515   0.41496   0.00000  Uiso   1.00
C26    C     0.18310   0.17151   0.08751   0.00000  Uiso   1.00
C27    C     0.12535   0.18815   0.46371   0.00000  Uiso   1.00
C28    C     0.18503   0.19439   0.04913   0.00000  Uiso   1.00
C29    C     0.08120   0.16930   0.48930   0.00000  Uiso   1.00
C30    C     0.22585   0.21866   0.02652   0.00000  Uiso   1.00
C31    C     0.15503   0.20473   0.48711   0.00000  Uiso   1.00
C32    C     0.14718   0.19222   0.03213   0.00000  Uiso   1.00
H33    H     0.15463   0.14923   0.10120   0.00000  Uiso   1.00
H34    H     0.17767   0.19591   0.39626   0.00000  Uiso   1.00
N35    N     0.04759   0.16668   0.25001   0.00000  Uiso   1.00
N36    N     0.28574   0.16666   0.24999   0.00000  Uiso   1.00
O37    O     0.12846   0.22775   0.25001   0.00000  Uiso   1.00
O38    O     0.20488   0.10558   0.25000   0.00000  Uiso   1.00
O39    O     0.20490   0.22774   0.25000   0.00000  Uiso   1.00
O40    O     0.12843   0.10559   0.25000   0.00000  Uiso   1.00
O41    O     0.10661   0.16667   0.31613   0.00000  Uiso   1.00
O42    O     0.22672   0.16666   0.18388   0.00000  Uiso   1.00
O43    O     0.18305   0.16666   0.31612   0.00000  Uiso   1.00
O44    O     0.15028   0.16667   0.18388   0.00000  Uiso   1.00
Zn45   Zn    0.11562   0.16667   0.25000   0.00000  Uiso   1.00
Zn46   Zn    0.21771   0.16666   0.25000   0.00000  Uiso   1.00
O47    O     0.02400   0.15177   0.06473   0.00000  Uiso   1.00
H48    H     0.02360   0.14721   0.09652   0.00000  Uiso   1.00
O49    O     0.26505   0.26764   0.46685   0.00000  Uiso   1.00
H50    H     0.26656   0.27345   0.43487   0.00000  Uiso   1.00
I51    I     0.29385   0.23236   0.12930   0.00000  Uiso   1.00
I52    I     0.02396   0.12123   0.38345   0.00000  Uiso   1.00
O53    O     0.00829   0.13533   0.48707   0.00000  Uiso   1.00
H54    H     0.32237   0.15781   0.00739   0.00000  Uiso   1.00
O55    O     0.30287   0.24455   0.02359   0.00000  Uiso   1.00
H56    H     0.32894   0.23442   0.03290   0.00000  Uiso   1.00
I57    I     0.07575   0.20618   0.13052   0.00000  Uiso   1.00
I58    I     0.17334   0.28507   0.43457   0.00000  Uiso   1.00
I59    I     0.27967   0.29745   0.22983   0.00000  Uiso   1.00
I60    I     0.05024   0.04155   0.28393   0.00000  Uiso   1.00
O61    O     0.23116   0.04573   0.28258   0.00000  Uiso   1.00
H62    H     0.24563   0.02680   0.29828   0.00000  Uiso   1.00
O63    O     0.09523   0.28980   0.23077   0.00000  Uiso   1.00
H64    H     0.07818   0.30917   0.21815   0.00000  Uiso   1.00
I65    I     0.29991   0.09726   0.17488   0.00000  Uiso   1.00
I66    I     0.03257   0.23357   0.32801   0.00000  Uiso   1.00
I67    I     0.08326   0.09757   0.17370   0.00000  Uiso   1.00
I68    I     0.25093   0.23330   0.32716   0.00000  Uiso   1.00
C69    C     0.50159   0.24675   0.24729   0.00000  Uiso   1.00
C70    C     0.49750   0.08721   0.25513   0.00000  Uiso   1.00
C71    C     0.43378   0.18177   0.05997   0.00000  Uiso   1.00
C72    C     0.52418   0.23465   0.46837   0.00000  Uiso   1.00
C73    C     0.40107   0.16795   0.03857   0.00000  Uiso   1.00
C74    C     0.56140   0.24014   0.48635   0.00000  Uiso   1.00
C75    C     0.53994   0.31519   0.25356   0.00000  Uiso   1.00
C76    C     0.45543   0.02000   0.25766   0.00000  Uiso   1.00
C77    C     0.53290   0.02340   0.26668   0.00000  Uiso   1.00
C78    C     0.46169   0.31161   0.24499   0.00000  Uiso   1.00
C79    C     0.49388   0.04316   0.26218   0.00000  Uiso   1.00
C80    C     0.50251   0.29170   0.24636   0.00000  Uiso   1.00
C81    C     0.65240   0.13982   0.22097   0.00000  Uiso   1.00
C82    C     0.34745   0.19279   0.27971   0.00000  Uiso   1.00
C83    C     0.36677   0.13970   0.22106   0.00000  Uiso   1.00
C84    C     0.63325   0.19270   0.27957   0.00000  Uiso   1.00
C85    C     0.46974   0.16583   0.33828   0.00000  Uiso   1.00
C86    C     0.52986   0.16918   0.16191   0.00000  Uiso   1.00
C87    C     0.44926   0.16638   0.39011   0.00000  Uiso   1.00
C88    C     0.54693   0.18041   0.11192   0.00000  Uiso   1.00
C89    C     0.38599   0.15207   0.46448   0.00000  Uiso   1.00
C90    C     0.59498   0.22272   0.04652   0.00000  Uiso   1.00
C91    C     0.40339   0.15026   0.41539   0.00000  Uiso   1.00
C92    C     0.58655   0.20674   0.09117   0.00000  Uiso   1.00
C93    C     0.47566   0.18515   0.41496   0.00000  Uiso   1.00
C94    C     0.51644   0.17151   0.08751   0.00000  Uiso   1.00
C95    C     0.45868   0.18815   0.46371   0.00000  Uiso   1.00
C96    C     0.51836   0.19439   0.04913   0.00000  Uiso   1.00
C97    C     0.41453   0.16930   0.48930   0.00000  Uiso   1.00
C98    C     0.55919   0.21866   0.02652   0.00000  Uiso   1.00
C99    C     0.48837   0.20473   0.48711   0.00000  Uiso   1.00
C100   C     0.48052   0.19222   0.03213   0.00000  Uiso   1.00
H101   H     0.48797   0.14923   0.10120   0.00000  Uiso   1.00
H102   H     0.51101   0.19591   0.39626   0.00000  Uiso   1.00
N103   N     0.38093   0.16668   0.25001   0.00000  Uiso   1.00
N104   N     0.61907   0.16666   0.24999   0.00000  Uiso   1.00
O105   O     0.46179   0.22775   0.25001   0.00000  Uiso   1.00
O106   O     0.53821   0.10558   0.25000   0.00000  Uiso   1.00
O107   O     0.53823   0.22774   0.25000   0.00000  Uiso   1.00
O108   O     0.46177   0.10559   0.25000   0.00000  Uiso   1.00
O109   O     0.43994   0.16667   0.31613   0.00000  Uiso   1.00
O110   O     0.56006   0.16666   0.18388   0.00000  Uiso   1.00
O111   O     0.51639   0.16666   0.31612   0.00000  Uiso   1.00
O112   O     0.48361   0.16667   0.18388   0.00000  Uiso   1.00
Zn113  Zn    0.44896   0.16667   0.25000   0.00000  Uiso   1.00
Zn114  Zn    0.55104   0.16666   0.25000   0.00000  Uiso   1.00
O115   O     0.35734   0.15177   0.06473   0.00000  Uiso   1.00
H116   H     0.35693   0.14721   0.09652   0.00000  Uiso   1.00
O117   O     0.59838   0.26764   0.46685   0.00000  Uiso   1.00
H118   H     0.59990   0.27345   0.43487   0.00000  Uiso   1.00
I119   I     0.62718   0.23236   0.12930   0.00000  Uiso   1.00
I120   I     0.35729   0.12123   0.38345   0.00000  Uiso   1.00
O121   O     0.34162   0.13533   0.48707   0.00000  Uiso   1.00
H122   H     0.65570   0.15781   0.00739   0.00000  Uiso   1.00
O123   O     0.63620   0.24455   0.02359   0.00000  Uiso   1.00
H124   H     0.66227   0.23442   0.03290   0.00000  Uiso   1.00
I125   I     0.40908   0.20618   0.13052   0.00000  Uiso   1.00
I126   I     0.50667   0.28507   0.43457   0.00000  Uiso   1.00
I127   I     0.61300   0.29745   0.22983   0.00000  Uiso   1.00
I128   I     0.38358   0.04155   0.28393   0.00000  Uiso   1.00
O129   O     0.56449   0.04573   0.28258   0.00000  Uiso   1.00
H130   H     0.57896   0.02680   0.29828   0.00000  Uiso   1.00
O131   O     0.42856   0.28980   0.23077   0.00000  Uiso   1.00
H132   H     0.41152   0.30917   0.21815   0.00000  Uiso   1.00
I133   I     0.63325   0.09726   0.17488   0.00000  Uiso   1.00
I134   I     0.36591   0.23357   0.32801   0.00000  Uiso   1.00
I135   I     0.41659   0.09757   0.17370   0.00000  Uiso   1.00
I136   I     0.58426   0.23330   0.32716   0.00000  Uiso   1.00
C137   C     0.83492   0.24675   0.24729   0.00000  Uiso   1.00
C138   C     0.83083   0.08721   0.25513   0.00000  Uiso   1.00
C139   C     0.76711   0.18177   0.05997   0.00000  Uiso   1.00
C140   C     0.85751   0.23465   0.46837   0.00000  Uiso   1.00
C141   C     0.73440   0.16795   0.03857   0.00000  Uiso   1.00
C142   C     0.89473   0.24014   0.48635   0.00000  Uiso   1.00
C143   C     0.87328   0.31519   0.25356   0.00000  Uiso   1.00
C144   C     0.78876   0.02000   0.25766   0.00000  Uiso   1.00
C145   C     0.86623   0.02340   0.26668   0.00000  Uiso   1.00
C146   C     0.79503   0.31161   0.24499   0.00000  Uiso   1.00
C147   C     0.82722   0.04316   0.26218   0.00000  Uiso   1.00
C148   C     0.83584   0.29170   0.24636   0.00000  Uiso   1.00
C149   C     0.98573   0.13982   0.22097   0.00000  Uiso   1.00
C150   C     0.68079   0.19279   0.27971   0.00000  Uiso   1.00
C151   C     0.70010   0.13970   0.22106   0.00000  Uiso   1.00
C152   C     0.96658   0.19270   0.27957   0.00000  Uiso   1.00
C153   C     0.80307   0.16583   0.33828   0.00000  Uiso   1.00
C154   C     0.86319   0.16918   0.16191   0.00000  Uiso   1.00
C155   C     0.78259   0.16638   0.39011   0.00000  Uiso   1.00
C156   C     0.88026   0.18041   0.11192   0.00000  Uiso   1.00
C157   C     0.71932   0.15207   0.46448   0.00000  Uiso   1.00
C158   C     0.92831   0.22272   0.04652   0.00000  Uiso   1.00
C159   C     0.73672   0.15026   0.41539   0.00000  Uiso   1.00
C160   C     0.91989   0.20674   0.09117   0.00000  Uiso   1.00
C161   C     0.80900   0.18515   0.41496   0.00000  Uiso   1.00
C162   C     0.84977   0.17151   0.08751   0.00000  Uiso   1.00
C163   C     0.79201   0.18815   0.46371   0.00000  Uiso   1.00
C164   C     0.85169   0.19439   0.04913   0.00000  Uiso   1.00
C165   C     0.74787   0.16930   0.48930   0.00000  Uiso   1.00
C166   C     0.89252   0.21866   0.02652   0.00000  Uiso   1.00
C167   C     0.82170   0.20473   0.48711   0.00000  Uiso   1.00
C168   C     0.81385   0.19222   0.03213   0.00000  Uiso   1.00
H169   H     0.82130   0.14923   0.10120   0.00000  Uiso   1.00
H170   H     0.84434   0.19591   0.39626   0.00000  Uiso   1.00
N171   N     0.71426   0.16668   0.25001   0.00000  Uiso   1.00
N172   N     0.95241   0.16666   0.24999   0.00000  Uiso   1.00
O173   O     0.79512   0.22775   0.25001   0.00000  Uiso   1.00
O174   O     0.87154   0.10558   0.25000   0.00000  Uiso   1.00
O175   O     0.87157   0.22774   0.25000   0.00000  Uiso   1.00
O176   O     0.79510   0.10559   0.25000   0.00000  Uiso   1.00
O177   O     0.77328   0.16667   0.31613   0.00000  Uiso   1.00
O178   O     0.89339   0.16666   0.18388   0.00000  Uiso   1.00
O179   O     0.84972   0.16666   0.31612   0.00000  Uiso   1.00
O180   O     0.81695   0.16667   0.18388   0.00000  Uiso   1.00
Zn181  Zn    0.78229   0.16667   0.25000   0.00000  Uiso   1.00
Zn182  Zn    0.88438   0.16666   0.25000   0.00000  Uiso   1.00
O183   O     0.69067   0.15177   0.06473   0.00000  Uiso   1.00
H184   H     0.69026   0.14721   0.09652   0.00000  Uiso   1.00
O185   O     0.93172   0.26764   0.46685   0.00000  Uiso   1.00
H186   H     0.93323   0.27345   0.43487   0.00000  Uiso   1.00
I187   I     0.96051   0.23236   0.12930   0.00000  Uiso   1.00
I188   I     0.69063   0.12123   0.38345   0.00000  Uiso   1.00
O189   O     0.67496   0.13533   0.48707   0.00000  Uiso   1.00
H190   H     0.98904   0.15781   0.00739   0.00000  Uiso   1.00
O191   O     0.96953   0.24455   0.02359   0.00000  Uiso   1.00
H192   H     0.99560   0.23442   0.03290   0.00000  Uiso   1.00
I193   I     0.74241   0.20618   0.13052   0.00000  Uiso   1.00
I194   I     0.84001   0.28507   0.43457   0.00000  Uiso   1.00
I195   I     0.94633   0.29745   0.22983   0.00000  Uiso   1.00
I196   I     0.71691   0.04155   0.28393   0.00000  Uiso   1.00
O197   O     0.89782   0.04573   0.28258   0.00000  Uiso   1.00
H198   H     0.91230   0.02680   0.29828   0.00000  Uiso   1.00
O199   O     0.76190   0.28980   0.23077   0.00000  Uiso   1.00
H200   H     0.74485   0.30917   0.21815   0.00000  Uiso   1.00
I201   I     0.96658   0.09726   0.17488   0.00000  Uiso   1.00
I202   I     0.69924   0.23357   0.32801   0.00000  Uiso   1.00
I203   I     0.74992   0.09757   0.17370   0.00000  Uiso   1.00
I204   I     0.91760   0.23330   0.32716   0.00000  Uiso   1.00
C205   C     0.16825   0.58008   0.24729   0.00000  Uiso   1.00
C206   C     0.16417   0.42054   0.25513   0.00000  Uiso   1.00
C207   C     0.10045   0.51511   0.05997   0.00000  Uiso   1.00
C208   C     0.19085   0.56798   0.46837   0.00000  Uiso   1.00
C209   C     0.06774   0.50128   0.03857   0.00000  Uiso   1.00
C210   C     0.22807   0.57347   0.48635   0.00000  Uiso   1.00
C211   C     0.20661   0.64852   0.25356   0.00000  Uiso   1.00
C212   C     0.12209   0.35333   0.25766   0.00000  Uiso   1.00
C213   C     0.19957   0.35674   0.26668   0.00000  Uiso   1.00
C214   C     0.12836   0.64494   0.24499   0.00000  Uiso   1.00
C215   C     0.16055   0.37650   0.26218   0.00000  Uiso   1.00
C216   C     0.16917   0.62504   0.24636   0.00000  Uiso   1.00
C217   C     0.31906   0.47315   0.22097   0.00000  Uiso   1.00
C218   C     0.01412   0.52612   0.27971   0.00000  Uiso   1.00
C219   C     0.03343   0.47303   0.22106   0.00000  Uiso   1.00
C220   C     0.29992   0.52603   0.27957   0.00000  Uiso   1.00
C221   C     0.13641   0.49916   0.33828   0.00000  Uiso   1.00
C222   C     0.19653   0.50251   0.16191   0.00000  Uiso   1.00
C223   C     0.11592   0.49972   0.39011   0.00000  Uiso   1.00
C224   C     0.21360   0.51375   0.11192   0.00000  Uiso   1.00
C225   C     0.05266   0.48540   0.46448   0.00000  Uiso   1.00
C226   C     0.26164   0.55605   0.04652   0.00000  Uiso   1.00
C227   C     0.07006   0.48359   0.41539   0.00000  Uiso   1.00
C228   C     0.25322   0.54008   0.09117   0.00000  Uiso   1.00
C229   C     0.14233   0.51849   0.41496   0.00000  Uiso   1.00
C230   C     0.18310   0.50484   0.08751   0.00000  Uiso   1.00
C231   C     0.12535   0.52148   0.46371   0.00000  Uiso   1.00
C232   C     0.18503   0.52772   0.04913   0.00000  Uiso   1.00
C233   C     0.08120   0.50263   0.48930   0.00000  Uiso   1.00
C234   C     0.22585   0.55199   0.02652   0.00000  Uiso   1.00
C235   C     0.15503   0.53806   0.48711   0.00000  Uiso   1.00
C236   C     0.14718   0.52556   0.03213   0.00000  Uiso   1.00
H237   H     0.15463   0.48256   0.10120   0.00000  Uiso   1.00
H238   H     0.17767   0.52924   0.39626   0.00000  Uiso   1.00
N239   N     0.04759   0.50001   0.25001   0.00000  Uiso   1.00
N240   N     0.28574   0.49999   0.24999   0.00000  Uiso   1.00
O241   O     0.12846   0.56108   0.25001   0.00000  Uiso   1.00
O242   O     0.20488   0.43892   0.25000   0.00000  Uiso   1.00
O243   O     0.20490   0.56107   0.25000   0.00000  Uiso   1.00
O244   O     0.12843   0.43893   0.25000   0.00000  Uiso   1.00
O245   O     0.10661   0.50001   0.31613   0.00000  Uiso   1.00
O246   O     0.22672   0.49999   0.18388   0.00000  Uiso   1.00
O247   O     0.18305   0.50000   0.31612   0.00000  Uiso   1.00
O248   O     0.15028   0.50000   0.18388   0.00000  Uiso   1.00
Zn249  Zn    0.11562   0.50001   0.25000   0.00000  Uiso   1.00
Zn250  Zn    0.21771   0.49999   0.25000   0.00000  Uiso   1.00
O251   O     0.02400   0.48510   0.06473   0.00000  Uiso   1.00
H252   H     0.02360   0.48054   0.09652   0.00000  Uiso   1.00
O253   O     0.26505   0.60097   0.46685   0.00000  Uiso   1.00
H254   H     0.26656   0.60678   0.43487   0.00000  Uiso   1.00
I255   I     0.29385   0.56569   0.12930   0.00000  Uiso   1.00
I256   I     0.02396   0.45457   0.38345   0.00000  Uiso   1.00
O257   O     0.00829   0.46866   0.48707   0.00000  Uiso   1.00
H258   H     0.32237   0.49115   0.00739   0.00000  Uiso   1.00
O259   O     0.30287   0.57788   0.02359   0.00000  Uiso   1.00
H260   H     0.32894   0.56776   0.03290   0.00000  Uiso   1.00
I261   I     0.07575   0.53951   0.13052   0.00000  Uiso   1.00
I262   I     0.17334   0.61840   0.43457   0.00000  Uiso   1.00
I263   I     0.27967   0.63079   0.22983   0.00000  Uiso   1.00
I264   I     0.05024   0.37488   0.28393   0.00000  Uiso   1.00
O265   O     0.23116   0.37907   0.28258   0.00000  Uiso   1.00
H266   H     0.24563   0.36013   0.29828   0.00000  Uiso   1.00
O267   O     0.09523   0.62313   0.23077   0.00000  Uiso   1.00
H268   H     0.07818   0.64250   0.21815   0.00000  Uiso   1.00
I269   I     0.29991   0.43059   0.17488   0.00000  Uiso   1.00
I270   I     0.03257   0.56690   0.32801   0.00000  Uiso   1.00
I271   I     0.08326   0.43091   0.17370   0.00000  Uiso   1.00
I272   I     0.25093   0.56663   0.32716   0.00000  Uiso   1.00
C273   C     0.50159   0.58008   0.24729   0.00000  Uiso   1.00
C274   C     0.49750   0.42054   0.25513   0.00000  Uiso   1.00
C275   C     0.43378   0.51511   0.05997   0.00000  Uiso   1.00
C276   C     0.52418   0.56798   0.46837   0.00000  Uiso   1.00
C277   C     0.40107   0.50128   0.03857   0.00000  Uiso   1.00
C278   C     0.56140   0.57347   0.48635   0.00000  Uiso   1.00
C279   C     0.53994   0.64852   0.25356   0.00000  Uiso   1.00
C280   C     0.45543   0.35333   0.25766   0.00000  Uiso   1.00
C281   C     0.53290   0.35674   0.26668   0.00000  Uiso   1.00
C282   C     0.46169   0.64494   0.24499   0.00000  Uiso   1.00
C283   C     0.49388   0.37650   0.26218   0.00000  Uiso   1.00
C284   C     0.50251   0.62504   0.24636   0.00000  Uiso   1.00
C285   C     0.65240   0.47315   0.22097   0.00000  Uiso   1.00
C286   C     0.34745   0.52612   0.27971   0.00000  Uiso   1.00
C287   C     0.36677   0.47303   0.22106   0.00000  Uiso   1.00
C288   C     0.63325   0.52603   0.27957   0.00000  Uiso   1.00
C289   C     0.46974   0.49916   0.33828   0.00000  Uiso   1.00
C290   C     0.52986   0.50251   0.16191   0.00000  Uiso   1.00
C291   C     0.44926   0.49972   0.39011   0.00000  Uiso   1.00
C292   C     0.54693   0.51375   0.11192   0.00000  Uiso   1.00
C293   C     0.38599   0.48540   0.46448   0.00000  Uiso   1.00
C294   C     0.59498   0.55605   0.04652   0.00000  Uiso   1.00
C295   C     0.40339   0.48359   0.41539   0.00000  Uiso   1.00
C296   C     0.58655   0.54008   0.09117   0.00000  Uiso   1.00
C297   C     0.47566   0.51849   0.41496   0.00000  Uiso   1.00
C298   C     0.51644   0.50484   0.08751   0.00000  Uiso   1.00
C299   C     0.45868   0.52148   0.46371   0.00000  Uiso   1.00
C300   C     0.51836   0.52772   0.04913   0.00000  Uiso   1.00
C301   C     0.41453   0.50263   0.48930   0.00000  Uiso   1.00
C302   C     0.55919   0.55199   0.02652   0.00000  Uiso   1.00
C303   C     0.48837   0.53806   0.48711   0.00000  Uiso   1.00
C304   C     0.48052   0.52556   0.03213   0.00000  Uiso   1.00
H305   H     0.48797   0.48256   0.10120   0.00000  Uiso   1.00
H306   H     0.51101   0.52924   0.39626   0.00000  Uiso   1.00
N307   N     0.38093   0.50001   0.25001   0.00000  Uiso   1.00
N308   N     0.61907   0.49999   0.24999   0.00000  Uiso   1.00
O309   O     0.46179   0.56108   0.25001   0.00000  Uiso   1.00
O310   O     0.53821   0.43892   0.25000   0.00000  Uiso   1.00
O311   O     0.53823   0.56107   0.25000   0.00000  Uiso   1.00
O312   O     0.46177   0.43893   0.25000   0.00000  Uiso   1.00
O313   O     0.43994   0.50001   0.31613   0.00000  Uiso   1.00
O314   O     0.56006   0.49999   0.18388   0.00000  Uiso   1.00
O315   O     0.51639   0.50000   0.31612   0.00000  Uiso   1.00
O316   O     0.48361   0.50000   0.18388   0.00000  Uiso   1.00
Zn317  Zn    0.44896   0.50001   0.25000   0.00000  Uiso   1.00
Zn318  Zn    0.55104   0.49999   0.25000   0.00000  Uiso   1.00
O319   O     0.35734   0.48510   0.06473   0.00000  Uiso   1.00
H320   H     0.35693   0.48054   0.09652   0.00000  Uiso   1.00
O321   O     0.59838   0.60097   0.46685   0.00000  Uiso   1.00
H322   H     0.59990   0.60678   0.43487   0.00000  Uiso   1.00
I323   I     0.62718   0.56569   0.12930   0.00000  Uiso   1.00
I324   I     0.35729   0.45457   0.38345   0.00000  Uiso   1.00
O325   O     0.34162   0.46866   0.48707   0.00000  Uiso   1.00
H326   H     0.65570   0.49115   0.00739   0.00000  Uiso   1.00
O327   O     0.63620   0.57788   0.02359   0.00000  Uiso   1.00
H328   H     0.66227   0.56776   0.03290   0.00000  Uiso   1.00
I329   I     0.40908   0.53951   0.13052   0.00000  Uiso   1.00
I330   I     0.50667   0.61840   0.43457   0.00000  Uiso   1.00
I331   I     0.61300   0.63079   0.22983   0.00000  Uiso   1.00
I332   I     0.38358   0.37488   0.28393   0.00000  Uiso   1.00
O333   O     0.56449   0.37907   0.28258   0.00000  Uiso   1.00
H334   H     0.57896   0.36013   0.29828   0.00000  Uiso   1.00
O335   O     0.42856   0.62313   0.23077   0.00000  Uiso   1.00
H336   H     0.41152   0.64250   0.21815   0.00000  Uiso   1.00
I337   I     0.63325   0.43059   0.17488   0.00000  Uiso   1.00
I338   I     0.36591   0.56690   0.32801   0.00000  Uiso   1.00
I339   I     0.41659   0.43091   0.17370   0.00000  Uiso   1.00
I340   I     0.58426   0.56663   0.32716   0.00000  Uiso   1.00
C341   C     0.83492   0.58008   0.24729   0.00000  Uiso   1.00
C342   C     0.83083   0.42054   0.25513   0.00000  Uiso   1.00
C343   C     0.76711   0.51511   0.05997   0.00000  Uiso   1.00
C344   C     0.85751   0.56798   0.46837   0.00000  Uiso   1.00
C345   C     0.73440   0.50128   0.03857   0.00000  Uiso   1.00
C346   C     0.89473   0.57347   0.48635   0.00000  Uiso   1.00
C347   C     0.87328   0.64852   0.25356   0.00000  Uiso   1.00
C348   C     0.78876   0.35333   0.25766   0.00000  Uiso   1.00
C349   C     0.86623   0.35674   0.26668   0.00000  Uiso   1.00
C350   C     0.79503   0.64494   0.24499   0.00000  Uiso   1.00
C351   C     0.82722   0.37650   0.26218   0.00000  Uiso   1.00
C352   C     0.83584   0.62504   0.24636   0.00000  Uiso   1.00
C353   C     0.98573   0.47315   0.22097   0.00000  Uiso   1.00
C354   C     0.68079   0.52612   0.27971   0.00000  Uiso   1.00
C355   C     0.70010   0.47303   0.22106   0.00000  Uiso   1.00
C356   C     0.96658   0.52603   0.27957   0.00000  Uiso   1.00
C357   C     0.80307   0.49916   0.33828   0.00000  Uiso   1.00
C358   C     0.86319   0.50251   0.16191   0.00000  Uiso   1.00
C359   C     0.78259   0.49972   0.39011   0.00000  Uiso   1.00
C360   C     0.88026   0.51375   0.11192   0.00000  Uiso   1.00
C361   C     0.71932   0.48540   0.46448   0.00000  Uiso   1.00
C362   C     0.92831   0.55605   0.04652   0.00000  Uiso   1.00
C363   C     0.73672   0.48359   0.41539   0.00000  Uiso   1.00
C364   C     0.91989   0.54008   0.09117   0.00000  Uiso   1.00
C365   C     0.80900   0.51849   0.41496   0.00000  Uiso   1.00
C366   C     0.84977   0.50484   0.08751   0.00000  Uiso   1.00
C367   C     0.79201   0.52148   0.46371   0.00000  Uiso   1.00
C368   C     0.85169   0.52772   0.04913   0.00000  Uiso   1.00
C369   C     0.74787   0.50263   0.48930   0.00000  Uiso   1.00
C370   C     0.89252   0.55199   0.02652   0.00000  Uiso   1.00
C371   C     0.82170   0.53806   0.48711   0.00000  Uiso   1.00
C372   C     0.81385   0.52556   0.03213   0.00000  Uiso   1.00
H373   H     0.82130   0.48256   0.10120   0.00000  Uiso   1.00
H374   H     0.84434   0.52924   0.39626   0.00000  Uiso   1.00
N375   N     0.71426   0.50001   0.25001   0.00000  Uiso   1.00
N376   N     0.95241   0.49999   0.24999   0.00000  Uiso   1.00
O377   O     0.79512   0.56108   0.25001   0.00000  Uiso   1.00
O378   O     0.87154   0.43892   0.25000   0.00000  Uiso   1.00
O379   O     0.87157   0.56107   0.25000   0.00000  Uiso   1.00
O380   O     0.79510   0.43893   0.25000   0.00000  Uiso   1.00
O381   O     0.77328   0.50001   0.31613   0.00000  Uiso   1.00
O382   O     0.89339   0.49999   0.18388   0.00000  Uiso   1.00
O383   O     0.84972   0.50000   0.31612   0.00000  Uiso   1.00
O384   O     0.81695   0.50000   0.18388   0.00000  Uiso   1.00
Zn385  Zn    0.78229   0.50001   0.25000   0.00000  Uiso   1.00
Zn386  Zn    0.88438   0.49999   0.25000   0.00000  Uiso   1.00
O387   O     0.69067   0.48510   0.06473   0.00000  Uiso   1.00
H388   H     0.69026   0.48054   0.09652   0.00000  Uiso   1.00
O389   O     0.93172   0.60097   0.46685   0.00000  Uiso   1.00
H390   H     0.93323   0.60678   0.43487   0.00000  Uiso   1.00
I391   I     0.96051   0.56569   0.12930   0.00000  Uiso   1.00
I392   I     0.69063   0.45457   0.38345   0.00000  Uiso   1.00
O393   O     0.67496   0.46866   0.48707   0.00000  Uiso   1.00
H394   H     0.98904   0.49115   0.00739   0.00000  Uiso   1.00
O395   O     0.96953   0.57788   0.02359   0.00000  Uiso   1.00
H396   H     0.99560   0.56776   0.03290   0.00000  Uiso   1.00
I397   I     0.74241   0.53951   0.13052   0.00000  Uiso   1.00
I398   I     0.84001   0.61840   0.43457   0.00000  Uiso   1.00
I399   I     0.94633   0.63079   0.22983   0.00000  Uiso   1.00
I400   I     0.71691   0.37488   0.28393   0.00000  Uiso   1.00
O401   O     0.89782   0.37907   0.28258   0.00000  Uiso   1.00
H402   H     0.91230   0.36013   0.29828   0.00000  Uiso   1.00
O403   O     0.76190   0.62313   0.23077   0.00000  Uiso   1.00
H404   H     0.74485   0.64250   0.21815   0.00000  Uiso   1.00
I405   I     0.96658   0.43059   0.17488   0.00000  Uiso   1.00
I406   I     0.69924   0.56690   0.32801   0.00000  Uiso   1.00
I407   I     0.74992   0.43091   0.17370   0.00000  Uiso   1.00
I408   I     0.91760   0.56663   0.32716   0.00000  Uiso   1.00
C409   C     0.16825   0.91342   0.24729   0.00000  Uiso   1.00
C410   C     0.16417   0.75388   0.25513   0.00000  Uiso   1.00
C411   C     0.10045   0.84844   0.05997   0.00000  Uiso   1.00
C412   C     0.19085   0.90132   0.46837   0.00000  Uiso   1.00
C413   C     0.06774   0.83462   0.03857   0.00000  Uiso   1.00
C414   C     0.22807   0.90681   0.48635   0.00000  Uiso   1.00
C415   C     0.20661   0.98185   0.25356   0.00000  Uiso   1.00
C416   C     0.12209   0.68667   0.25766   0.00000  Uiso   1.00
C417   C     0.19957   0.69007   0.26668   0.00000  Uiso   1.00
C418   C     0.12836   0.97827   0.24499   0.00000  Uiso   1.00
C419   C     0.16055   0.70983   0.26218   0.00000  Uiso   1.00
C420   C     0.16917   0.95837   0.24636   0.00000  Uiso   1.00
C421   C     0.31906   0.80648   0.22097   0.00000  Uiso   1.00
C422   C     0.01412   0.85945   0.27971   0.00000  Uiso   1.00
C423   C     0.03343   0.80637   0.22106   0.00000  Uiso   1.00
C424   C     0.29992   0.85936   0.27957   0.00000  Uiso   1.00
C425   C     0.13641   0.83249   0.33828   0.00000  Uiso   1.00
C426   C     0.19653   0.83584   0.16191   0.00000  Uiso   1.00
C427   C     0.11592   0.83305   0.39011   0.00000  Uiso   1.00
C428   C     0.21360   0.84708   0.11192   0.00000  Uiso   1.00
C429   C     0.05266   0.81873   0.46448   0.00000  Uiso   1.00
C430   C     0.26164   0.88938   0.04652   0.00000  Uiso   1.00
C431   C     0.07006   0.81692   0.41539   0.00000  Uiso   1.00
C432   C     0.25322   0.87341   0.09117   0.00000  Uiso   1.00
C433   C     0.14233   0.85182   0.41496   0.00000  Uiso   1.00
C434   C     0.18310   0.83818   0.08751   0.00000  Uiso   1.00
C435   C     0.12535   0.85481   0.46371   0.00000  Uiso   1.00
C436   C     0.18503   0.86106   0.04913   0.00000  Uiso   1.00
C437   C     0.08120   0.83596   0.48930   0.00000  Uiso   1.00
C438   C     0.22585   0.88532   0.02652   0.00000  Uiso   1.00
C439   C     0.15503   0.87139   0.48711   0.00000  Uiso   1.00
C440   C     0.14718   0.85889   0.03213   0.00000  Uiso   1.00
H441   H     0.15463   0.81590   0.10120   0.00000  Uiso   1.00
H442   H     0.17767   0.86257   0.39626   0.00000  Uiso   1.00
N443   N     0.04759   0.83334   0.25001   0.00000  Uiso   1.00
N444   N     0.28574   0.83332   0.24999   0.00000  Uiso   1.00
O445   O     0.12846   0.89442   0.25001   0.00000  Uiso   1.00
O446   O     0.20488   0.77225   0.25000   0.00000  Uiso   1.00
O447   O     0.20490   0.89441   0.25000   0.00000  Uiso   1.00
O448   O     0.12843   0.77226   0.25000   0.00000  Uiso   1.00
O449   O     0.10661   0.83334   0.31613   0.00000  Uiso   1.00
O450   O     0.22672   0.83333   0.18388   0.00000  Uiso   1.00
O451   O     0.18305   0.83333   0.31612   0.00000  Uiso   1.00
O452   O     0.15028   0.83334   0.18388   0.00000  Uiso   1.00
Zn453  Zn    0.11562   0.83334   0.25000   0.00000  Uiso   1.00
Zn454  Zn    0.21771   0.83333   0.25000   0.00000  Uiso   1.00
O455   O     0.02400   0.81843   0.06473   0.00000  Uiso   1.00
H456   H     0.02360   0.81387   0.09652   0.00000  Uiso   1.00
O457   O     0.26505   0.93431   0.46685   0.00000  Uiso   1.00
H458   H     0.26656   0.94011   0.43487   0.00000  Uiso   1.00
I459   I     0.29385   0.89903   0.12930   0.00000  Uiso   1.00
I460   I     0.02396   0.78790   0.38345   0.00000  Uiso   1.00
O461   O     0.00829   0.80199   0.48707   0.00000  Uiso   1.00
H462   H     0.32237   0.82448   0.00739   0.00000  Uiso   1.00
O463   O     0.30287   0.91122   0.02359   0.00000  Uiso   1.00
H464   H     0.32894   0.90109   0.03290   0.00000  Uiso   1.00
I465   I     0.07575   0.87284   0.13052   0.00000  Uiso   1.00
I466   I     0.17334   0.95173   0.43457   0.00000  Uiso   1.00
I467   I     0.27967   0.96412   0.22983   0.00000  Uiso   1.00
I468   I     0.05024   0.70821   0.28393   0.00000  Uiso   1.00
O469   O     0.23116   0.71240   0.28258   0.00000  Uiso   1.00
H470   H     0.24563   0.69347   0.29828   0.00000  Uiso   1.00
O471   O     0.09523   0.95646   0.23077   0.00000  Uiso   1.00
H472   H     0.07818   0.97584   0.21815   0.00000  Uiso   1.00
I473   I     0.29991   0.76392   0.17488   0.00000  Uiso   1.00
I474   I     0.03257   0.90024   0.32801   0.00000  Uiso   1.00
I475   I     0.08326   0.76424   0.17370   0.00000  Uiso   1.00
I476   I     0.25093   0.89996   0.32716   0.00000  Uiso   1.00
C477   C     0.50159   0.91342   0.24729   0.00000  Uiso   1.00
C478   C     0.49750   0.75388   0.25513   0.00000  Uiso   1.00
C479   C     0.43378   0.84844   0.05997   0.00000  Uiso   1.00
C480   C     0.52418   0.90132   0.46837   0.00000  Uiso   1.00
C481   C     0.40107   0.83462   0.03857   0.00000  Uiso   1.00
C482   C     0.56140   0.90681   0.48635   0.00000  Uiso   1.00
C483   C     0.53994   0.98185   0.25356   0.00000  Uiso   1.00
C484   C     0.45543   0.68667   0.25766   0.00000  Uiso   1.00
C485   C     0.53290   0.69007   0.26668   0.00000  Uiso   1.00
C486   C     0.46169   0.97827   0.24499   0.00000  Uiso   1.00
C487   C     0.49388   0.70983   0.26218   0.00000  Uiso   1.00
C488   C     0.50251   0.95837   0.24636   0.00000  Uiso   1.00
C489   C     0.65240   0.80648   0.22097   0.00000  Uiso   1.00
C490   C     0.34745   0.85945   0.27971   0.00000  Uiso   1.00
C491   C     0.36677   0.80637   0.22106   0.00000  Uiso   1.00
C492   C     0.63325   0.85936   0.27957   0.00000  Uiso   1.00
C493   C     0.46974   0.83249   0.33828   0.00000  Uiso   1.00
C494   C     0.52986   0.83584   0.16191   0.00000  Uiso   1.00
C495   C     0.44926   0.83305   0.39011   0.00000  Uiso   1.00
C496   C     0.54693   0.84708   0.11192   0.00000  Uiso   1.00
C497   C     0.38599   0.81873   0.46448   0.00000  Uiso   1.00
C498   C     0.59498   0.88938   0.04652   0.00000  Uiso   1.00
C499   C     0.40339   0.81692   0.41539   0.00000  Uiso   1.00
C500   C     0.58655   0.87341   0.09117   0.00000  Uiso   1.00
C501   C     0.47566   0.85182   0.41496   0.00000  Uiso   1.00
C502   C     0.51644   0.83818   0.08751   0.00000  Uiso   1.00
C503   C     0.45868   0.85481   0.46371   0.00000  Uiso   1.00
C504   C     0.51836   0.86106   0.04913   0.00000  Uiso   1.00
C505   C     0.41453   0.83596   0.48930   0.00000  Uiso   1.00
C506   C     0.55919   0.88532   0.02652   0.00000  Uiso   1.00
C507   C     0.48837   0.87139   0.48711   0.00000  Uiso   1.00
C508   C     0.48052   0.85889   0.03213   0.00000  Uiso   1.00
H509   H     0.48797   0.81590   0.10120   0.00000  Uiso   1.00
H510   H     0.51101   0.86257   0.39626   0.00000  Uiso   1.00
N511   N     0.38093   0.83334   0.25001   0.00000  Uiso   1.00
N512   N     0.61907   0.83332   0.24999   0.00000  Uiso   1.00
O513   O     0.46179   0.89442   0.25001   0.00000  Uiso   1.00
O514   O     0.53821   0.77225   0.25000   0.00000  Uiso   1.00
O515   O     0.53823   0.89441   0.25000   0.00000  Uiso   1.00
O516   O     0.46177   0.77226   0.25000   0.00000  Uiso   1.00
O517   O     0.43994   0.83334   0.31613   0.00000  Uiso   1.00
O518   O     0.56006   0.83333   0.18388   0.00000  Uiso   1.00
O519   O     0.51639   0.83333   0.31612   0.00000  Uiso   1.00
O520   O     0.48361   0.83334   0.18388   0.00000  Uiso   1.00
Zn521  Zn    0.44896   0.83334   0.25000   0.00000  Uiso   1.00
Zn522  Zn    0.55104   0.83333   0.25000   0.00000  Uiso   1.00
O523   O     0.35734   0.81843   0.06473   0.00000  Uiso   1.00
H524   H     0.35693   0.81387   0.09652   0.00000  Uiso   1.00
O525   O     0.59838   0.93431   0.46685   0.00000  Uiso   1.00
H526   H     0.59990   0.94011   0.43487   0.00000  Uiso   1.00
I527   I     0.62718   0.89903   0.12930   0.00000  Uiso   1.00
I528   I     0.35729   0.78790   0.38345   0.00000  Uiso   1.00
O529   O     0.34162   0.80199   0.48707   0.00000  Uiso   1.00
H530   H     0.65570   0.82448   0.00739   0.00000  Uiso   1.00
O531   O     0.63620   0.91122   0.02359   0.00000  Uiso   1.00
H532   H     0.66227   0.90109   0.03290   0.00000  Uiso   1.00
I533   I     0.40908   0.87284   0.13052   0.00000  Uiso   1.00
I534   I     0.50667   0.95173   0.43457   0.00000  Uiso   1.00
I535   I     0.61300   0.96412   0.22983   0.00000  Uiso   1.00
I536   I     0.38358   0.70821   0.28393   0.00000  Uiso   1.00
O537   O     0.56449   0.71240   0.28258   0.00000  Uiso   1.00
H538   H     0.57896   0.69347   0.29828   0.00000  Uiso   1.00
O539   O     0.42856   0.95646   0.23077   0.00000  Uiso   1.00
H540   H     0.41152   0.97584   0.21815   0.00000  Uiso   1.00
I541   I     0.63325   0.76392   0.17488   0.00000  Uiso   1.00
I542   I     0.36591   0.90024   0.32801   0.00000  Uiso   1.00
I543   I     0.41659   0.76424   0.17370   0.00000  Uiso   1.00
I544   I     0.58426   0.89996   0.32716   0.00000  Uiso   1.00
C545   C     0.83492   0.91342   0.24729   0.00000  Uiso   1.00
C546   C     0.83083   0.75388   0.25513   0.00000  Uiso   1.00
C547   C     0.76711   0.84844   0.05997   0.00000  Uiso   1.00
C548   C     0.85751   0.90132   0.46837   0.00000  Uiso   1.00
C549   C     0.73440   0.83462   0.03857   0.00000  Uiso   1.00
C550   C     0.89473   0.90681   0.48635   0.00000  Uiso   1.00
C551   C     0.87328   0.98185   0.25356   0.00000  Uiso   1.00
C552   C     0.78876   0.68667   0.25766   0.00000  Uiso   1.00
C553   C     0.86623   0.69007   0.26668   0.00000  Uiso   1.00
C554   C     0.79503   0.97827   0.24499   0.00000  Uiso   1.00
C555   C     0.82722   0.70983   0.26218   0.00000  Uiso   1.00
C556   C     0.83584   0.95837   0.24636   0.00000  Uiso   1.00
C557   C     0.98573   0.80648   0.22097   0.00000  Uiso   1.00
C558   C     0.68079   0.85945   0.27971   0.00000  Uiso   1.00
C559   C     0.70010   0.80637   0.22106   0.00000  Uiso   1.00
C560   C     0.96658   0.85936   0.27957   0.00000  Uiso   1.00
C561   C     0.80307   0.83249   0.33828   0.00000  Uiso   1.00
C562   C     0.86319   0.83584   0.16191   0.00000  Uiso   1.00
C563   C     0.78259   0.83305   0.39011   0.00000  Uiso   1.00
C564   C     0.88026   0.84708   0.11192   0.00000  Uiso   1.00
C565   C     0.71932   0.81873   0.46448   0.00000  Uiso   1.00
C566   C     0.92831   0.88938   0.04652   0.00000  Uiso   1.00
C567   C     0.73672   0.81692   0.41539   0.00000  Uiso   1.00
C568   C     0.91989   0.87341   0.09117   0.00000  Uiso   1.00
C569   C     0.80900   0.85182   0.41496   0.00000  Uiso   1.00
C570   C     0.84977   0.83818   0.08751   0.00000  Uiso   1.00
C571   C     0.79201   0.85481   0.46371   0.00000  Uiso   1.00
C572   C     0.85169   0.86106   0.04913   0.00000  Uiso   1.00
C573   C     0.74787   0.83596   0.48930   0.00000  Uiso   1.00
C574   C     0.89252   0.88532   0.02652   0.00000  Uiso   1.00
C575   C     0.82170   0.87139   0.48711   0.00000  Uiso   1.00
C576   C     0.81385   0.85889   0.03213   0.00000  Uiso   1.00
H577   H     0.82130   0.81590   0.10120   0.00000  Uiso   1.00
H578   H     0.84434   0.86257   0.39626   0.00000  Uiso   1.00
N579   N     0.71426   0.83334   0.25001   0.00000  Uiso   1.00
N580   N     0.95241   0.83332   0.24999   0.00000  Uiso   1.00
O581   O     0.79512   0.89442   0.25001   0.00000  Uiso   1.00
O582   O     0.87154   0.77225   0.25000   0.00000  Uiso   1.00
O583   O     0.87157   0.89441   0.25000   0.00000  Uiso   1.00
O584   O     0.79510   0.77226   0.25000   0.00000  Uiso   1.00
O585   O     0.77328   0.83334   0.31613   0.00000  Uiso   1.00
O586   O     0.89339   0.83333   0.18388   0.00000  Uiso   1.00
O587   O     0.84972   0.83333   0.31612   0.00000  Uiso   1.00
O588   O     0.81695   0.83334   0.18388   0.00000  Uiso   1.00
Zn589  Zn    0.78229   0.83334   0.25000   0.00000  Uiso   1.00
Zn590  Zn    0.88438   0.83333   0.25000   0.00000  Uiso   1.00
O591   O     0.69067   0.81843   0.06473   0.00000  Uiso   1.00
H592   H     0.69026   0.81387   0.09652   0.00000  Uiso   1.00
O593   O     0.93172   0.93431   0.46685   0.00000  Uiso   1.00
H594   H     0.93323   0.94011   0.43487   0.00000  Uiso   1.00
I595   I     0.96051   0.89903   0.12930   0.00000  Uiso   1.00
I596   I     0.69063   0.78790   0.38345   0.00000  Uiso   1.00
O597   O     0.67496   0.80199   0.48707   0.00000  Uiso   1.00
H598   H     0.98904   0.82448   0.00739   0.00000  Uiso   1.00
O599   O     0.96953   0.91122   0.02359   0.00000  Uiso   1.00
H600   H     0.99560   0.90109   0.03290   0.00000  Uiso   1.00
I601   I     0.74241   0.87284   0.13052   0.00000  Uiso   1.00
I602   I     0.84001   0.95173   0.43457   0.00000  Uiso   1.00
I603   I     0.94633   0.96412   0.22983   0.00000  Uiso   1.00
I604   I     0.71691   0.70821   0.28393   0.00000  Uiso   1.00
O605   O     0.89782   0.71240   0.28258   0.00000  Uiso   1.00
H606   H     0.91230   0.69347   0.29828   0.00000  Uiso   1.00
O607   O     0.76190   0.95646   0.23077   0.00000  Uiso   1.00
H608   H     0.74485   0.97584   0.21815   0.00000  Uiso   1.00
I609   I     0.96658   0.76392   0.17488   0.00000  Uiso   1.00
I610   I     0.69924   0.90024   0.32801   0.00000  Uiso   1.00
I611   I     0.74992   0.76424   0.17370   0.00000  Uiso   1.00
I612   I     0.91760   0.89996   0.32716   0.00000  Uiso   1.00
C613   C     0.16825   0.24675   0.74729   0.00000  Uiso   1.00
C614   C     0.16417   0.08721   0.75513   0.00000  Uiso   1.00
C615   C     0.10045   0.18177   0.55997   0.00000  Uiso   1.00
C616   C     0.19085   0.23465   0.96837   0.00000  Uiso   1.00
C617   C     0.06774   0.16795   0.53857   0.00000  Uiso   1.00
C618   C     0.22807   0.24014   0.98635   0.00000  Uiso   1.00
C619   C     0.20661   0.31519   0.75356   0.00000  Uiso   1.00
C620   C     0.12209   0.02000   0.75766   0.00000  Uiso   1.00
C621   C     0.19957   0.02340   0.76668   0.00000  Uiso   1.00
C622   C     0.12836   0.31161   0.74499   0.00000  Uiso   1.00
C623   C     0.16055   0.04316   0.76218   0.00000  Uiso   1.00
C624   C     0.16917   0.29170   0.74636   0.00000  Uiso   1.00
C625   C     0.31906   0.13982   0.72097   0.00000  Uiso   1.00
C626   C     0.01412   0.19279   0.77971   0.00000  Uiso   1.00
C627   C     0.03343   0.13970   0.72106   0.00000  Uiso   1.00
C628   C     0.29992   0.19270   0.77957   0.00000  Uiso   1.00
C629   C     0.13641   0.16583   0.83828   0.00000  Uiso   1.00
C630   C     0.19653   0.16918   0.66191   0.00000  Uiso   1.00
C631   C     0.11592   0.16638   0.89011   0.00000  Uiso   1.00
C632   C     0.21360   0.18041   0.61192   0.00000  Uiso   1.00
C633   C     0.05266   0.15207   0.96448   0.00000  Uiso   1.00
C634   C     0.26164   0.22272   0.54652   0.00000  Uiso   1.00
C635   C     0.07006   0.15026   0.91539   0.00000  Uiso   1.00
C636   C     0.25322   0.20674   0.59117   0.00000  Uiso   1.00
C637   C     0.14233   0.18515   0.91496   0.00000  Uiso   1.00
C638   C     0.18310   0.17151   0.58751   0.00000  Uiso   1.00
C639   C     0.12535   0.18815   0.96371   0.00000  Uiso   1.00
C640   C     0.18503   0.19439   0.54913   0.00000  Uiso   1.00
C641   C     0.08120   0.16930   0.98930   0.00000  Uiso   1.00
C642   C     0.22585   0.21866   0.52652   0.00000  Uiso   1.00
C643   C     0.15503   0.20473   0.98711   0.00000  Uiso   1.00
C644   C     0.14718   0.19222   0.53213   0.00000  Uiso   1.00
H645   H     0.15463   0.14923   0.60120   0.00000  Uiso   1.00
H646   H     0.17767   0.19591   0.89626   0.00000  Uiso   1.00
N647   N     0.04759   0.16668   0.75001   0.00000  Uiso   1.00
N648   N     0.28574   0.16666   0.74999   0.00000  Uiso   1.00
O649   O     0.12846   0.22775   0.75001   0.00000  Uiso   1.00
O650   O     0.20488   0.10558   0.75000   0.00000  Uiso   1.00
O651   O     0.20490   0.22774   0.75000   0.00000  Uiso   1.00
O652   O     0.12843   0.10559   0.75000   0.00000  Uiso   1.00
O653   O     0.10661   0.16667   0.81613   0.00000  Uiso   1.00
O654   O     0.22672   0.16666   0.68388   0.00000  Uiso   1.00
O655   O     0.18305   0.16666   0.81612   0.00000  Uiso   1.00
O656   O     0.15028   0.16667   0.68388   0.00000  Uiso   1.00
Zn657  Zn    0.11562   0.16667   0.75000   0.00000  Uiso   1.00
Zn658  Zn    0.21771   0.16666   0.75000   0.00000  Uiso   1.00
O659   O     0.02400   0.15177   0.56473   0.00000  Uiso   1.00
H660   H     0.02360   0.14721   0.59652   0.00000  Uiso   1.00
O661   O     0.26505   0.26764   0.96685   0.00000  Uiso   1.00
H662   H     0.26656   0.27345   0.93487   0.00000  Uiso   1.00
I663   I     0.29385   0.23236   0.62930   0.00000  Uiso   1.00
I664   I     0.02396   0.12123   0.88345   0.00000  Uiso   1.00
O665   O     0.00829   0.13533   0.98707   0.00000  Uiso   1.00
H666   H     0.32237   0.15781   0.50739   0.00000  Uiso   1.00
O667   O     0.30287   0.24455   0.52359   0.00000  Uiso   1.00
H668   H     0.32894   0.23442   0.53290   0.00000  Uiso   1.00
I669   I     0.07575   0.20618   0.63052   0.00000  Uiso   1.00
I670   I     0.17334   0.28507   0.93457   0.00000  Uiso   1.00
I671   I     0.27967   0.29745   0.72983   0.00000  Uiso   1.00
I672   I     0.05024   0.04155   0.78393   0.00000  Uiso   1.00
O673   O     0.23116   0.04573   0.78258   0.00000  Uiso   1.00
H674   H     0.24563   0.02680   0.79828   0.00000  Uiso   1.00
O675   O     0.09523   0.28980   0.73077   0.00000  Uiso   1.00
H676   H     0.07818   0.30917   0.71815   0.00000  Uiso   1.00
I677   I     0.29991   0.09726   0.67488   0.00000  Uiso   1.00
I678   I     0.03257   0.23357   0.82801   0.00000  Uiso   1.00
I679   I     0.08326   0.09757   0.67370   0.00000  Uiso   1.00
I680   I     0.25093   0.23330   0.82716   0.00000  Uiso   1.00
C681   C     0.50159   0.24675   0.74729   0.00000  Uiso   1.00
C682   C     0.49750   0.08721   0.75513   0.00000  Uiso   1.00
C683   C     0.43378   0.18177   0.55997   0.00000  Uiso   1.00
C684   C     0.52418   0.23465   0.96837   0.00000  Uiso   1.00
C685   C     0.40107   0.16795   0.53857   0.00000  Uiso   1.00
C686   C     0.56140   0.24014   0.98635   0.00000  Uiso   1.00
C687   C     0.53994   0.31519   0.75356   0.00000  Uiso   1.00
C688   C     0.45543   0.02000   0.75766   0.00000  Uiso   1.00
C689   C     0.53290   0.02340   0.76668   0.00000  Uiso   1.00
C690   C     0.46169   0.31161   0.74499   0.00000  Uiso   1.00
C691   C     0.49388   0.04316   0.76218   0.00000  Uiso   1.00
C692   C     0.50251   0.29170   0.74636   0.00000  Uiso   1.00
C693   C     0.65240   0.13982   0.72097   0.00000  Uiso   1.00
C694   C     0.34745   0.19279   0.77971   0.00000  Uiso   1.00
C695   C     0.36677   0.13970   0.72106   0.00000  Uiso   1.00
C696   C     0.63325   0.19270   0.77957   0.00000  Uiso   1.00
C697   C     0.46974   0.16583   0.83828   0.00000  Uiso   1.00
C698   C     0.52986   0.16918   0.66191   0.00000  Uiso   1.00
C699   C     0.44926   0.16638   0.89011   0.00000  Uiso   1.00
C700   C     0.54693   0.18041   0.61192   0.00000  Uiso   1.00
C701   C     0.38599   0.15207   0.96448   0.00000  Uiso   1.00
C702   C     0.59498   0.22272   0.54652   0.00000  Uiso   1.00
C703   C     0.40339   0.15026   0.91539   0.00000  Uiso   1.00
C704   C     0.58655   0.20674   0.59117   0.00000  Uiso   1.00
C705   C     0.47566   0.18515   0.91496   0.00000  Uiso   1.00
C706   C     0.51644   0.17151   0.58751   0.00000  Uiso   1.00
C707   C     0.45868   0.18815   0.96371   0.00000  Uiso   1.00
C708   C     0.51836   0.19439   0.54913   0.00000  Uiso   1.00
C709   C     0.41453   0.16930   0.98930   0.00000  Uiso   1.00
C710   C     0.55919   0.21866   0.52652   0.00000  Uiso   1.00
C711   C     0.48837   0.20473   0.98711   0.00000  Uiso   1.00
C712   C     0.48052   0.19222   0.53213   0.00000  Uiso   1.00
H713   H     0.48797   0.14923   0.60120   0.00000  Uiso   1.00
H714   H     0.51101   0.19591   0.89626   0.00000  Uiso   1.00
N715   N     0.38093   0.16668   0.75001   0.00000  Uiso   1.00
N716   N     0.61907   0.16666   0.74999   0.00000  Uiso   1.00
O717   O     0.46179   0.22775   0.75001   0.00000  Uiso   1.00
O718   O     0.53821   0.10558   0.75000   0.00000  Uiso   1.00
O719   O     0.53823   0.22774   0.75000   0.00000  Uiso   1.00
O720   O     0.46177   0.10559   0.75000   0.00000  Uiso   1.00
O721   O     0.43994   0.16667   0.81613   0.00000  Uiso   1.00
O722   O     0.56006   0.16666   0.68388   0.00000  Uiso   1.00
O723   O     0.51639   0.16666   0.81612   0.00000  Uiso   1.00
O724   O     0.48361   0.16667   0.68388   0.00000  Uiso   1.00
Zn725  Zn    0.44896   0.16667   0.75000   0.00000  Uiso   1.00
Zn726  Zn    0.55104   0.16666   0.75000   0.00000  Uiso   1.00
O727   O     0.35734   0.15177   0.56473   0.00000  Uiso   1.00
H728   H     0.35693   0.14721   0.59652   0.00000  Uiso   1.00
O729   O     0.59838   0.26764   0.96685   0.00000  Uiso   1.00
H730   H     0.59990   0.27345   0.93487   0.00000  Uiso   1.00
I731   I     0.62718   0.23236   0.62930   0.00000  Uiso   1.00
I732   I     0.35729   0.12123   0.88345   0.00000  Uiso   1.00
O733   O     0.34162   0.13533   0.98707   0.00000  Uiso   1.00
H734   H     0.65570   0.15781   0.50739   0.00000  Uiso   1.00
O735   O     0.63620   0.24455   0.52359   0.00000  Uiso   1.00
H736   H     0.66227   0.23442   0.53290   0.00000  Uiso   1.00
I737   I     0.40908   0.20618   0.63052   0.00000  Uiso   1.00
I738   I     0.50667   0.28507   0.93457   0.00000  Uiso   1.00
I739   I     0.61300   0.29745   0.72983   0.00000  Uiso   1.00
I740   I     0.38358   0.04155   0.78393   0.00000  Uiso   1.00
O741   O     0.56449   0.04573   0.78258   0.00000  Uiso   1.00
H742   H     0.57896   0.02680   0.79828   0.00000  Uiso   1.00
O743   O     0.42856   0.28980   0.73077   0.00000  Uiso   1.00
H744   H     0.41152   0.30917   0.71815   0.00000  Uiso   1.00
I745   I     0.63325   0.09726   0.67488   0.00000  Uiso   1.00
I746   I     0.36591   0.23357   0.82801   0.00000  Uiso   1.00
I747   I     0.41659   0.09757   0.67370   0.00000  Uiso   1.00
I748   I     0.58426   0.23330   0.82716   0.00000  Uiso   1.00
C749   C     0.83492   0.24675   0.74729   0.00000  Uiso   1.00
C750   C     0.83083   0.08721   0.75513   0.00000  Uiso   1.00
C751   C     0.76711   0.18177   0.55997   0.00000  Uiso   1.00
C752   C     0.85751   0.23465   0.96837   0.00000  Uiso   1.00
C753   C     0.73440   0.16795   0.53857   0.00000  Uiso   1.00
C754   C     0.89473   0.24014   0.98635   0.00000  Uiso   1.00
C755   C     0.87328   0.31519   0.75356   0.00000  Uiso   1.00
C756   C     0.78876   0.02000   0.75766   0.00000  Uiso   1.00
C757   C     0.86623   0.02340   0.76668   0.00000  Uiso   1.00
C758   C     0.79503   0.31161   0.74499   0.00000  Uiso   1.00
C759   C     0.82722   0.04316   0.76218   0.00000  Uiso   1.00
C760   C     0.83584   0.29170   0.74636   0.00000  Uiso   1.00
C761   C     0.98573   0.13982   0.72097   0.00000  Uiso   1.00
C762   C     0.68079   0.19279   0.77971   0.00000  Uiso   1.00
C763   C     0.70010   0.13970   0.72106   0.00000  Uiso   1.00
C764   C     0.96658   0.19270   0.77957   0.00000  Uiso   1.00
C765   C     0.80307   0.16583   0.83828   0.00000  Uiso   1.00
C766   C     0.86319   0.16918   0.66191   0.00000  Uiso   1.00
C767   C     0.78259   0.16638   0.89011   0.00000  Uiso   1.00
C768   C     0.88026   0.18041   0.61192   0.00000  Uiso   1.00
C769   C     0.71932   0.15207   0.96448   0.00000  Uiso   1.00
C770   C     0.92831   0.22272   0.54652   0.00000  Uiso   1.00
C771   C     0.73672   0.15026   0.91539   0.00000  Uiso   1.00
C772   C     0.91989   0.20674   0.59117   0.00000  Uiso   1.00
C773   C     0.80900   0.18515   0.91496   0.00000  Uiso   1.00
C774   C     0.84977   0.17151   0.58751   0.00000  Uiso   1.00
C775   C     0.79201   0.18815   0.96371   0.00000  Uiso   1.00
C776   C     0.85169   0.19439   0.54913   0.00000  Uiso   1.00
C777   C     0.74787   0.16930   0.98930   0.00000  Uiso   1.00
C778   C     0.89252   0.21866   0.52652   0.00000  Uiso   1.00
C779   C     0.82170   0.20473   0.98711   0.00000  Uiso   1.00
C780   C     0.81385   0.19222   0.53213   0.00000  Uiso   1.00
H781   H     0.82130   0.14923   0.60120   0.00000  Uiso   1.00
H782   H     0.84434   0.19591   0.89626   0.00000  Uiso   1.00
N783   N     0.71426   0.16668   0.75001   0.00000  Uiso   1.00
N784   N     0.95241   0.16666   0.74999   0.00000  Uiso   1.00
O785   O     0.79512   0.22775   0.75001   0.00000  Uiso   1.00
O786   O     0.87154   0.10558   0.75000   0.00000  Uiso   1.00
O787   O     0.87157   0.22774   0.75000   0.00000  Uiso   1.00
O788   O     0.79510   0.10559   0.75000   0.00000  Uiso   1.00
O789   O     0.77328   0.16667   0.81613   0.00000  Uiso   1.00
O790   O     0.89339   0.16666   0.68388   0.00000  Uiso   1.00
O791   O     0.84972   0.16666   0.81612   0.00000  Uiso   1.00
O792   O     0.81695   0.16667   0.68388   0.00000  Uiso   1.00
Zn793  Zn    0.78229   0.16667   0.75000   0.00000  Uiso   1.00
Zn794  Zn    0.88438   0.16666   0.75000   0.00000  Uiso   1.00
O795   O     0.69067   0.15177   0.56473   0.00000  Uiso   1.00
H796   H     0.69026   0.14721   0.59652   0.00000  Uiso   1.00
O797   O     0.93172   0.26764   0.96685   0.00000  Uiso   1.00
H798   H     0.93323   0.27345   0.93487   0.00000  Uiso   1.00
I799   I     0.96051   0.23236   0.62930   0.00000  Uiso   1.00
I800   I     0.69063   0.12123   0.88345   0.00000  Uiso   1.00
O801   O     0.67496   0.13533   0.98707   0.00000  Uiso   1.00
H802   H     0.98904   0.15781   0.50739   0.00000  Uiso   1.00
O803   O     0.96953   0.24455   0.52359   0.00000  Uiso   1.00
H804   H     0.99560   0.23442   0.53290   0.00000  Uiso   1.00
I805   I     0.74241   0.20618   0.63052   0.00000  Uiso   1.00
I806   I     0.84001   0.28507   0.93457   0.00000  Uiso   1.00
I807   I     0.94633   0.29745   0.72983   0.00000  Uiso   1.00
I808   I     0.71691   0.04155   0.78393   0.00000  Uiso   1.00
O809   O     0.89782   0.04573   0.78258   0.00000  Uiso   1.00
H810   H     0.91230   0.02680   0.79828   0.00000  Uiso   1.00
O811   O     0.76190   0.28980   0.73077   0.00000  Uiso   1.00
H812   H     0.74485   0.30917   0.71815   0.00000  Uiso   1.00
I813   I     0.96658   0.09726   0.67488   0.00000  Uiso   1.00
I814   I     0.69924   0.23357   0.82801   0.00000  Uiso   1.00
I815   I     0.74992   0.09757   0.67370   0.00000  Uiso   1.00
I816   I     0.91760   0.23330   0.82716   0.00000  Uiso   1.00
C817   C     0.16825   0.58008   0.74729   0.00000  Uiso   1.00
C818   C     0.16417   0.42054   0.75513   0.00000  Uiso   1.00
C819   C     0.10045   0.51511   0.55997   0.00000  Uiso   1.00
C820   C     0.19085   0.56798   0.96837   0.00000  Uiso   1.00
C821   C     0.06774   0.50128   0.53857   0.00000  Uiso   1.00
C822   C     0.22807   0.57347   0.98635   0.00000  Uiso   1.00
C823   C     0.20661   0.64852   0.75356   0.00000  Uiso   1.00
C824   C     0.12209   0.35333   0.75766   0.00000  Uiso   1.00
C825   C     0.19957   0.35674   0.76668   0.00000  Uiso   1.00
C826   C     0.12836   0.64494   0.74499   0.00000  Uiso   1.00
C827   C     0.16055   0.37650   0.76218   0.00000  Uiso   1.00
C828   C     0.16917   0.62504   0.74636   0.00000  Uiso   1.00
C829   C     0.31906   0.47315   0.72097   0.00000  Uiso   1.00
C830   C     0.01412   0.52612   0.77971   0.00000  Uiso   1.00
C831   C     0.03343   0.47303   0.72106   0.00000  Uiso   1.00
C832   C     0.29992   0.52603   0.77957   0.00000  Uiso   1.00
C833   C     0.13641   0.49916   0.83828   0.00000  Uiso   1.00
C834   C     0.19653   0.50251   0.66191   0.00000  Uiso   1.00
C835   C     0.11592   0.49972   0.89011   0.00000  Uiso   1.00
C836   C     0.21360   0.51375   0.61192   0.00000  Uiso   1.00
C837   C     0.05266   0.48540   0.96448   0.00000  Uiso   1.00
C838   C     0.26164   0.55605   0.54652   0.00000  Uiso   1.00
C839   C     0.07006   0.48359   0.91539   0.00000  Uiso   1.00
C840   C     0.25322   0.54008   0.59117   0.00000  Uiso   1.00
C841   C     0.14233   0.51849   0.91496   0.00000  Uiso   1.00
C842   C     0.18310   0.50484   0.58751   0.00000  Uiso   1.00
C843   C     0.12535   0.52148   0.96371   0.00000  Uiso   1.00
C844   C     0.18503   0.52772   0.54913   0.00000  Uiso   1.00
C845   C     0.08120   0.50263   0.98930   0.00000  Uiso   1.00
C846   C     0.22585   0.55199   0.52652   0.00000  Uiso   1.00
C847   C     0.15503   0.53806   0.98711   0.00000  Uiso   1.00
C848   C     0.14718   0.52556   0.53213   0.00000  Uiso   1.00
H849   H     0.15463   0.48256   0.60120   0.00000  Uiso   1.00
H850   H     0.17767   0.52924   0.89626   0.00000  Uiso   1.00
N851   N     0.04759   0.50001   0.75001   0.00000  Uiso   1.00
N852   N     0.28574   0.49999   0.74999   0.00000  Uiso   1.00
O853   O     0.12846   0.56108   0.75001   0.00000  Uiso   1.00
O854   O     0.20488   0.43892   0.75000   0.00000  Uiso   1.00
O855   O     0.20490   0.56107   0.75000   0.00000  Uiso   1.00
O856   O     0.12843   0.43893   0.75000   0.00000  Uiso   1.00
O857   O     0.10661   0.50001   0.81613   0.00000  Uiso   1.00
O858   O     0.22672   0.49999   0.68388   0.00000  Uiso   1.00
O859   O     0.18305   0.50000   0.81612   0.00000  Uiso   1.00
O860   O     0.15028   0.50000   0.68388   0.00000  Uiso   1.00
Zn861  Zn    0.11562   0.50001   0.75000   0.00000  Uiso   1.00
Zn862  Zn    0.21771   0.49999   0.75000   0.00000  Uiso   1.00
O863   O     0.02400   0.48510   0.56473   0.00000  Uiso   1.00
H864   H     0.02360   0.48054   0.59652   0.00000  Uiso   1.00
O865   O     0.26505   0.60097   0.96685   0.00000  Uiso   1.00
H866   H     0.26656   0.60678   0.93487   0.00000  Uiso   1.00
I867   I     0.29385   0.56569   0.62930   0.00000  Uiso   1.00
I868   I     0.02396   0.45457   0.88345   0.00000  Uiso   1.00
O869   O     0.00829   0.46866   0.98707   0.00000  Uiso   1.00
H870   H     0.32237   0.49115   0.50739   0.00000  Uiso   1.00
O871   O     0.30287   0.57788   0.52359   0.00000  Uiso   1.00
H872   H     0.32894   0.56776   0.53290   0.00000  Uiso   1.00
I873   I     0.07575   0.53951   0.63052   0.00000  Uiso   1.00
I874   I     0.17334   0.61840   0.93457   0.00000  Uiso   1.00
I875   I     0.27967   0.63079   0.72983   0.00000  Uiso   1.00
I876   I     0.05024   0.37488   0.78393   0.00000  Uiso   1.00
O877   O     0.23116   0.37907   0.78258   0.00000  Uiso   1.00
H878   H     0.24563   0.36013   0.79828   0.00000  Uiso   1.00
O879   O     0.09523   0.62313   0.73077   0.00000  Uiso   1.00
H880   H     0.07818   0.64250   0.71815   0.00000  Uiso   1.00
I881   I     0.29991   0.43059   0.67488   0.00000  Uiso   1.00
I882   I     0.03257   0.56690   0.82801   0.00000  Uiso   1.00
I883   I     0.08326   0.43091   0.67370   0.00000  Uiso   1.00
I884   I     0.25093   0.56663   0.82716   0.00000  Uiso   1.00
C885   C     0.50159   0.58008   0.74729   0.00000  Uiso   1.00
C886   C     0.49750   0.42054   0.75513   0.00000  Uiso   1.00
C887   C     0.43378   0.51511   0.55997   0.00000  Uiso   1.00
C888   C     0.52418   0.56798   0.96837   0.00000  Uiso   1.00
C889   C     0.40107   0.50128   0.53857   0.00000  Uiso   1.00
C890   C     0.56140   0.57347   0.98635   0.00000  Uiso   1.00
C891   C     0.53994   0.64852   0.75356   0.00000  Uiso   1.00
C892   C     0.45543   0.35333   0.75766   0.00000  Uiso   1.00
C893   C     0.53290   0.35674   0.76668   0.00000  Uiso   1.00
C894   C     0.46169   0.64494   0.74499   0.00000  Uiso   1.00
C895   C     0.49388   0.37650   0.76218   0.00000  Uiso   1.00
C896   C     0.50251   0.62504   0.74636   0.00000  Uiso   1.00
C897   C     0.65240   0.47315   0.72097   0.00000  Uiso   1.00
C898   C     0.34745   0.52612   0.77971   0.00000  Uiso   1.00
C899   C     0.36677   0.47303   0.72106   0.00000  Uiso   1.00
C900   C     0.63325   0.52603   0.77957   0.00000  Uiso   1.00
C901   C     0.46974   0.49916   0.83828   0.00000  Uiso   1.00
C902   C     0.52986   0.50251   0.66191   0.00000  Uiso   1.00
C903   C     0.44926   0.49972   0.89011   0.00000  Uiso   1.00
C904   C     0.54693   0.51375   0.61192   0.00000  Uiso   1.00
C905   C     0.38599   0.48540   0.96448   0.00000  Uiso   1.00
C906   C     0.59498   0.55605   0.54652   0.00000  Uiso   1.00
C907   C     0.40339   0.48359   0.91539   0.00000  Uiso   1.00
C908   C     0.58655   0.54008   0.59117   0.00000  Uiso   1.00
C909   C     0.47566   0.51849   0.91496   0.00000  Uiso   1.00
C910   C     0.51644   0.50484   0.58751   0.00000  Uiso   1.00
C911   C     0.45868   0.52148   0.96371   0.00000  Uiso   1.00
C912   C     0.51836   0.52772   0.54913   0.00000  Uiso   1.00
C913   C     0.41453   0.50263   0.98930   0.00000  Uiso   1.00
C914   C     0.55919   0.55199   0.52652   0.00000  Uiso   1.00
C915   C     0.48837   0.53806   0.98711   0.00000  Uiso   1.00
C916   C     0.48052   0.52556   0.53213   0.00000  Uiso   1.00
H917   H     0.48797   0.48256   0.60120   0.00000  Uiso   1.00
H918   H     0.51101   0.52924   0.89626   0.00000  Uiso   1.00
N919   N     0.38093   0.50001   0.75001   0.00000  Uiso   1.00
N920   N     0.61907   0.49999   0.74999   0.00000  Uiso   1.00
O921   O     0.46179   0.56108   0.75001   0.00000  Uiso   1.00
O922   O     0.53821   0.43892   0.75000   0.00000  Uiso   1.00
O923   O     0.53823   0.56107   0.75000   0.00000  Uiso   1.00
O924   O     0.46177   0.43893   0.75000   0.00000  Uiso   1.00
O925   O     0.43994   0.50001   0.81613   0.00000  Uiso   1.00
O926   O     0.56006   0.49999   0.68388   0.00000  Uiso   1.00
O927   O     0.51639   0.50000   0.81612   0.00000  Uiso   1.00
O928   O     0.48361   0.50000   0.68388   0.00000  Uiso   1.00
Zn929  Zn    0.44896   0.50001   0.75000   0.00000  Uiso   1.00
Zn930  Zn    0.55104   0.49999   0.75000   0.00000  Uiso   1.00
O931   O     0.35734   0.48510   0.56473   0.00000  Uiso   1.00
H932   H     0.35693   0.48054   0.59652   0.00000  Uiso   1.00
O933   O     0.59838   0.60097   0.96685   0.00000  Uiso   1.00
H934   H     0.59990   0.60678   0.93487   0.00000  Uiso   1.00
I935   I     0.62718   0.56569   0.62930   0.00000  Uiso   1.00
I936   I     0.35729   0.45457   0.88345   0.00000  Uiso   1.00
O937   O     0.34162   0.46866   0.98707   0.00000  Uiso   1.00
H938   H     0.65570   0.49115   0.50739   0.00000  Uiso   1.00
O939   O     0.63620   0.57788   0.52359   0.00000  Uiso   1.00
H940   H     0.66227   0.56776   0.53290   0.00000  Uiso   1.00
I941   I     0.40908   0.53951   0.63052   0.00000  Uiso   1.00
I942   I     0.50667   0.61840   0.93457   0.00000  Uiso   1.00
I943   I     0.61300   0.63079   0.72983   0.00000  Uiso   1.00
I944   I     0.38358   0.37488   0.78393   0.00000  Uiso   1.00
O945   O     0.56449   0.37907   0.78258   0.00000  Uiso   1.00
H946   H     0.57896   0.36013   0.79828   0.00000  Uiso   1.00
O947   O     0.42856   0.62313   0.73077   0.00000  Uiso   1.00
H948   H     0.41152   0.64250   0.71815   0.00000  Uiso   1.00
I949   I     0.63325   0.43059   0.67488   0.00000  Uiso   1.00
I950   I     0.36591   0.56690   0.82801   0.00000  Uiso   1.00
I951   I     0.41659   0.43091   0.67370   0.00000  Uiso   1.00
I952   I     0.58426   0.56663   0.82716   0.00000  Uiso   1.00
C953   C     0.83492   0.58008   0.74729   0.00000  Uiso   1.00
C954   C     0.83083   0.42054   0.75513   0.00000  Uiso   1.00
C955   C     0.76711   0.51511   0.55997   0.00000  Uiso   1.00
C956   C     0.85751   0.56798   0.96837   0.00000  Uiso   1.00
C957   C     0.73440   0.50128   0.53857   0.00000  Uiso   1.00
C958   C     0.89473   0.57347   0.98635   0.00000  Uiso   1.00
C959   C     0.87328   0.64852   0.75356   0.00000  Uiso   1.00
C960   C     0.78876   0.35333   0.75766   0.00000  Uiso   1.00
C961   C     0.86623   0.35674   0.76668   0.00000  Uiso   1.00
C962   C     0.79503   0.64494   0.74499   0.00000  Uiso   1.00
C963   C     0.82722   0.37650   0.76218   0.00000  Uiso   1.00
C964   C     0.83584   0.62504   0.74636   0.00000  Uiso   1.00
C965   C     0.98573   0.47315   0.72097   0.00000  Uiso   1.00
C966   C     0.68079   0.52612   0.77971   0.00000  Uiso   1.00
C967   C     0.70010   0.47303   0.72106   0.00000  Uiso   1.00
C968   C     0.96658   0.52603   0.77957   0.00000  Uiso   1.00
C969   C     0.80307   0.49916   0.83828   0.00000  Uiso   1.00
C970   C     0.86319   0.50251   0.66191   0.00000  Uiso   1.00
C971   C     0.78259   0.49972   0.89011   0.00000  Uiso   1.00
C972   C     0.88026   0.51375   0.61192   0.00000  Uiso   1.00
C973   C     0.71932   0.48540   0.96448   0.00000  Uiso   1.00
C974   C     0.92831   0.55605   0.54652   0.00000  Uiso   1.00
C975   C     0.73672   0.48359   0.91539   0.00000  Uiso   1.00
C976   C     0.91989   0.54008   0.59117   0.00000  Uiso   1.00
C977   C     0.80900   0.51849   0.91496   0.00000  Uiso   1.00
C978   C     0.84977   0.50484   0.58751   0.00000  Uiso   1.00
C979   C     0.79201   0.52148   0.96371   0.00000  Uiso   1.00
C980   C     0.85169   0.52772   0.54913   0.00000  Uiso   1.00
C981   C     0.74787   0.50263   0.98930   0.00000  Uiso   1.00
C982   C     0.89252   0.55199   0.52652   0.00000  Uiso   1.00
C983   C     0.82170   0.53806   0.98711   0.00000  Uiso   1.00
C984   C     0.81385   0.52556   0.53213   0.00000  Uiso   1.00
H985   H     0.82130   0.48256   0.60120   0.00000  Uiso   1.00
H986   H     0.84434   0.52924   0.89626   0.00000  Uiso   1.00
N987   N     0.71426   0.50001   0.75001   0.00000  Uiso   1.00
N988   N     0.95241   0.49999   0.74999   0.00000  Uiso   1.00
O989   O     0.79512   0.56108   0.75001   0.00000  Uiso   1.00
O990   O     0.87154   0.43892   0.75000   0.00000  Uiso   1.00
O991   O     0.87157   0.56107   0.75000   0.00000  Uiso   1.00
O992   O     0.79510   0.43893   0.75000   0.00000  Uiso   1.00
O993   O     0.77328   0.50001   0.81613   0.00000  Uiso   1.00
O994   O     0.89339   0.49999   0.68388   0.00000  Uiso   1.00
O995   O     0.84972   0.50000   0.81612   0.00000  Uiso   1.00
O996   O     0.81695   0.50000   0.68388   0.00000  Uiso   1.00
Zn997  Zn    0.78229   0.50001   0.75000   0.00000  Uiso   1.00
Zn998  Zn    0.88438   0.49999   0.75000   0.00000  Uiso   1.00
O999   O     0.69067   0.48510   0.56473   0.00000  Uiso   1.00
H1000  H     0.69026   0.48054   0.59652   0.00000  Uiso   1.00
O1001  O     0.93172   0.60097   0.96685   0.00000  Uiso   1.00
H1002  H     0.93323   0.60678   0.93487   0.00000  Uiso   1.00
I1003  I     0.96051   0.56569   0.62930   0.00000  Uiso   1.00
I1004  I     0.69063   0.45457   0.88345   0.00000  Uiso   1.00
O1005  O     0.67496   0.46866   0.98707   0.00000  Uiso   1.00
H1006  H     0.98904   0.49115   0.50739   0.00000  Uiso   1.00
O1007  O     0.96953   0.57788   0.52359   0.00000  Uiso   1.00
H1008  H     0.99560   0.56776   0.53290   0.00000  Uiso   1.00
I1009  I     0.74241   0.53951   0.63052   0.00000  Uiso   1.00
I1010  I     0.84001   0.61840   0.93457   0.00000  Uiso   1.00
I1011  I     0.94633   0.63079   0.72983   0.00000  Uiso   1.00
I1012  I     0.71691   0.37488   0.78393   0.00000  Uiso   1.00
O1013  O     0.89782   0.37907   0.78258   0.00000  Uiso   1.00
H1014  H     0.91230   0.36013   0.79828   0.00000  Uiso   1.00
O1015  O     0.76190   0.62313   0.73077   0.00000  Uiso   1.00
H1016  H     0.74485   0.64250   0.71815   0.00000  Uiso   1.00
I1017  I     0.96658   0.43059   0.67488   0.00000  Uiso   1.00
I1018  I     0.69924   0.56690   0.82801   0.00000  Uiso   1.00
I1019  I     0.74992   0.43091   0.67370   0.00000  Uiso   1.00
I1020  I     0.91760   0.56663   0.82716   0.00000  Uiso   1.00
C1021  C     0.16825   0.91342   0.74729   0.00000  Uiso   1.00
C1022  C     0.16417   0.75388   0.75513   0.00000  Uiso   1.00
C1023  C     0.10045   0.84844   0.55997   0.00000  Uiso   1.00
C1024  C     0.19085   0.90132   0.96837   0.00000  Uiso   1.00
C1025  C     0.06774   0.83462   0.53857   0.00000  Uiso   1.00
C1026  C     0.22807   0.90681   0.98635   0.00000  Uiso   1.00
C1027  C     0.20661   0.98185   0.75356   0.00000  Uiso   1.00
C1028  C     0.12209   0.68667   0.75766   0.00000  Uiso   1.00
C1029  C     0.19957   0.69007   0.76668   0.00000  Uiso   1.00
C1030  C     0.12836   0.97827   0.74499   0.00000  Uiso   1.00
C1031  C     0.16055   0.70983   0.76218   0.00000  Uiso   1.00
C1032  C     0.16917   0.95837   0.74636   0.00000  Uiso   1.00
C1033  C     0.31906   0.80648   0.72097   0.00000  Uiso   1.00
C1034  C     0.01412   0.85945   0.77971   0.00000  Uiso   1.00
C1035  C     0.03343   0.80637   0.72106   0.00000  Uiso   1.00
C1036  C     0.29992   0.85936   0.77957   0.00000  Uiso   1.00
C1037  C     0.13641   0.83249   0.83828   0.00000  Uiso   1.00
C1038  C     0.19653   0.83584   0.66191   0.00000  Uiso   1.00
C1039  C     0.11592   0.83305   0.89011   0.00000  Uiso   1.00
C1040  C     0.21360   0.84708   0.61192   0.00000  Uiso   1.00
C1041  C     0.05266   0.81873   0.96448   0.00000  Uiso   1.00
C1042  C     0.26164   0.88938   0.54652   0.00000  Uiso   1.00
C1043  C     0.07006   0.81692   0.91539   0.00000  Uiso   1.00
C1044  C     0.25322   0.87341   0.59117   0.00000  Uiso   1.00
C1045  C     0.14233   0.85182   0.91496   0.00000  Uiso   1.00
C1046  C     0.18310   0.83818   0.58751   0.00000  Uiso   1.00
C1047  C     0.12535   0.85481   0.96371   0.00000  Uiso   1.00
C1048  C     0.18503   0.86106   0.54913   0.00000  Uiso   1.00
C1049  C     0.08120   0.83596   0.98930   0.00000  Uiso   1.00
C1050  C     0.22585   0.88532   0.52652   0.00000  Uiso   1.00
C1051  C     0.15503   0.87139   0.98711   0.00000  Uiso   1.00
C1052  C     0.14718   0.85889   0.53213   0.00000  Uiso   1.00
H1053  H     0.15463   0.81590   0.60120   0.00000  Uiso   1.00
H1054  H     0.17767   0.86257   0.89626   0.00000  Uiso   1.00
N1055  N     0.04759   0.83334   0.75001   0.00000  Uiso   1.00
N1056  N     0.28574   0.83332   0.74999   0.00000  Uiso   1.00
O1057  O     0.12846   0.89442   0.75001   0.00000  Uiso   1.00
O1058  O     0.20488   0.77225   0.75000   0.00000  Uiso   1.00
O1059  O     0.20490   0.89441   0.75000   0.00000  Uiso   1.00
O1060  O     0.12843   0.77226   0.75000   0.00000  Uiso   1.00
O1061  O     0.10661   0.83334   0.81613   0.00000  Uiso   1.00
O1062  O     0.22672   0.83333   0.68388   0.00000  Uiso   1.00
O1063  O     0.18305   0.83333   0.81612   0.00000  Uiso   1.00
O1064  O     0.15028   0.83334   0.68388   0.00000  Uiso   1.00
Zn1065 Zn    0.11562   0.83334   0.75000   0.00000  Uiso   1.00
Zn1066 Zn    0.21771   0.83333   0.75000   0.00000  Uiso   1.00
O1067  O     0.02400   0.81843   0.56473   0.00000  Uiso   1.00
H1068  H     0.02360   0.81387   0.59652   0.00000  Uiso   1.00
O1069  O     0.26505   0.93431   0.96685   0.00000  Uiso   1.00
H1070  H     0.26656   0.94011   0.93487   0.00000  Uiso   1.00
I1071  I     0.29385   0.89903   0.62930   0.00000  Uiso   1.00
I1072  I     0.02396   0.78790   0.88345   0.00000  Uiso   1.00
O1073  O     0.00829   0.80199   0.98707   0.00000  Uiso   1.00
H1074  H     0.32237   0.82448   0.50739   0.00000  Uiso   1.00
O1075  O     0.30287   0.91122   0.52359   0.00000  Uiso   1.00
H1076  H     0.32894   0.90109   0.53290   0.00000  Uiso   1.00
I1077  I     0.07575   0.87284   0.63052   0.00000  Uiso   1.00
I1078  I     0.17334   0.95173   0.93457   0.00000  Uiso   1.00
I1079  I     0.27967   0.96412   0.72983   0.00000  Uiso   1.00
I1080  I     0.05024   0.70821   0.78393   0.00000  Uiso   1.00
O1081  O     0.23116   0.71240   0.78258   0.00000  Uiso   1.00
H1082  H     0.24563   0.69347   0.79828   0.00000  Uiso   1.00
O1083  O     0.09523   0.95646   0.73077   0.00000  Uiso   1.00
H1084  H     0.07818   0.97584   0.71815   0.00000  Uiso   1.00
I1085  I     0.29991   0.76392   0.67488   0.00000  Uiso   1.00
I1086  I     0.03257   0.90024   0.82801   0.00000  Uiso   1.00
I1087  I     0.08326   0.76424   0.67370   0.00000  Uiso   1.00
I1088  I     0.25093   0.89996   0.82716   0.00000  Uiso   1.00
C1089  C     0.50159   0.91342   0.74729   0.00000  Uiso   1.00
C1090  C     0.49750   0.75388   0.75513   0.00000  Uiso   1.00
C1091  C     0.43378   0.84844   0.55997   0.00000  Uiso   1.00
C1092  C     0.52418   0.90132   0.96837   0.00000  Uiso   1.00
C1093  C     0.40107   0.83462   0.53857   0.00000  Uiso   1.00
C1094  C     0.56140   0.90681   0.98635   0.00000  Uiso   1.00
C1095  C     0.53994   0.98185   0.75356   0.00000  Uiso   1.00
C1096  C     0.45543   0.68667   0.75766   0.00000  Uiso   1.00
C1097  C     0.53290   0.69007   0.76668   0.00000  Uiso   1.00
C1098  C     0.46169   0.97827   0.74499   0.00000  Uiso   1.00
C1099  C     0.49388   0.70983   0.76218   0.00000  Uiso   1.00
C1100  C     0.50251   0.95837   0.74636   0.00000  Uiso   1.00
C1101  C     0.65240   0.80648   0.72097   0.00000  Uiso   1.00
C1102  C     0.34745   0.85945   0.77971   0.00000  Uiso   1.00
C1103  C     0.36677   0.80637   0.72106   0.00000  Uiso   1.00
C1104  C     0.63325   0.85936   0.77957   0.00000  Uiso   1.00
C1105  C     0.46974   0.83249   0.83828   0.00000  Uiso   1.00
C1106  C     0.52986   0.83584   0.66191   0.00000  Uiso   1.00
C1107  C     0.44926   0.83305   0.89011   0.00000  Uiso   1.00
C1108  C     0.54693   0.84708   0.61192   0.00000  Uiso   1.00
C1109  C     0.38599   0.81873   0.96448   0.00000  Uiso   1.00
C1110  C     0.59498   0.88938   0.54652   0.00000  Uiso   1.00
C1111  C     0.40339   0.81692   0.91539   0.00000  Uiso   1.00
C1112  C     0.58655   0.87341   0.59117   0.00000  Uiso   1.00
C1113  C     0.47566   0.85182   0.91496   0.00000  Uiso   1.00
C1114  C     0.51644   0.83818   0.58751   0.00000  Uiso   1.00
C1115  C     0.45868   0.85481   0.96371   0.00000  Uiso   1.00
C1116  C     0.51836   0.86106   0.54913   0.00000  Uiso   1.00
C1117  C     0.41453   0.83596   0.98930   0.00000  Uiso   1.00
C1118  C     0.55919   0.88532   0.52652   0.00000  Uiso   1.00
C1119  C     0.48837   0.87139   0.98711   0.00000  Uiso   1.00
C1120  C     0.48052   0.85889   0.53213   0.00000  Uiso   1.00
H1121  H     0.48797   0.81590   0.60120   0.00000  Uiso   1.00
H1122  H     0.51101   0.86257   0.89626   0.00000  Uiso   1.00
N1123  N     0.38093   0.83334   0.75001   0.00000  Uiso   1.00
N1124  N     0.61907   0.83332   0.74999   0.00000  Uiso   1.00
O1125  O     0.46179   0.89442   0.75001   0.00000  Uiso   1.00
O1126  O     0.53821   0.77225   0.75000   0.00000  Uiso   1.00
O1127  O     0.53823   0.89441   0.75000   0.00000  Uiso   1.00
O1128  O     0.46177   0.77226   0.75000   0.00000  Uiso   1.00
O1129  O     0.43994   0.83334   0.81613   0.00000  Uiso   1.00
O1130  O     0.56006   0.83333   0.68388   0.00000  Uiso   1.00
O1131  O     0.51639   0.83333   0.81612   0.00000  Uiso   1.00
O1132  O     0.48361   0.83334   0.68388   0.00000  Uiso   1.00
Zn1133 Zn    0.44896   0.83334   0.75000   0.00000  Uiso   1.00
Zn1134 Zn    0.55104   0.83333   0.75000   0.00000  Uiso   1.00
O1135  O     0.35734   0.81843   0.56473   0.00000  Uiso   1.00
H1136  H     0.35693   0.81387   0.59652   0.00000  Uiso   1.00
O1137  O     0.59838   0.93431   0.96685   0.00000  Uiso   1.00
H1138  H     0.59990   0.94011   0.93487   0.00000  Uiso   1.00
I1139  I     0.62718   0.89903   0.62930   0.00000  Uiso   1.00
I1140  I     0.35729   0.78790   0.88345   0.00000  Uiso   1.00
O1141  O     0.34162   0.80199   0.98707   0.00000  Uiso   1.00
H1142  H     0.65570   0.82448   0.50739   0.00000  Uiso   1.00
O1143  O     0.63620   0.91122   0.52359   0.00000  Uiso   1.00
H1144  H     0.66227   0.90109   0.53290   0.00000  Uiso   1.00
I1145  I     0.40908   0.87284   0.63052   0.00000  Uiso   1.00
I1146  I     0.50667   0.95173   0.93457   0.00000  Uiso   1.00
I1147  I     0.61300   0.96412   0.72983   0.00000  Uiso   1.00
I1148  I     0.38358   0.70821   0.78393   0.00000  Uiso   1.00
O1149  O     0.56449   0.71240   0.78258   0.00000  Uiso   1.00
H1150  H     0.57896   0.69347   0.79828   0.00000  Uiso   1.00
O1151  O     0.42856   0.95646   0.73077   0.00000  Uiso   1.00
H1152  H     0.41152   0.97584   0.71815   0.00000  Uiso   1.00
I1153  I     0.63325   0.76392   0.67488   0.00000  Uiso   1.00
I1154  I     0.36591   0.90024   0.82801   0.00000  Uiso   1.00
I1155  I     0.41659   0.76424   0.67370   0.00000  Uiso   1.00
I1156  I     0.58426   0.89996   0.82716   0.00000  Uiso   1.00
C1157  C     0.83492   0.91342   0.74729   0.00000  Uiso   1.00
C1158  C     0.83083   0.75388   0.75513   0.00000  Uiso   1.00
C1159  C     0.76711   0.84844   0.55997   0.00000  Uiso   1.00
C1160  C     0.85751   0.90132   0.96837   0.00000  Uiso   1.00
C1161  C     0.73440   0.83462   0.53857   0.00000  Uiso   1.00
C1162  C     0.89473   0.90681   0.98635   0.00000  Uiso   1.00
C1163  C     0.87328   0.98185   0.75356   0.00000  Uiso   1.00
C1164  C     0.78876   0.68667   0.75766   0.00000  Uiso   1.00
C1165  C     0.86623   0.69007   0.76668   0.00000  Uiso   1.00
C1166  C     0.79503   0.97827   0.74499   0.00000  Uiso   1.00
C1167  C     0.82722   0.70983   0.76218   0.00000  Uiso   1.00
C1168  C     0.83584   0.95837   0.74636   0.00000  Uiso   1.00
C1169  C     0.98573   0.80648   0.72097   0.00000  Uiso   1.00
C1170  C     0.68079   0.85945   0.77971   0.00000  Uiso   1.00
C1171  C     0.70010   0.80637   0.72106   0.00000  Uiso   1.00
C1172  C     0.96658   0.85936   0.77957   0.00000  Uiso   1.00
C1173  C     0.80307   0.83249   0.83828   0.00000  Uiso   1.00
C1174  C     0.86319   0.83584   0.66191   0.00000  Uiso   1.00
C1175  C     0.78259   0.83305   0.89011   0.00000  Uiso   1.00
C1176  C     0.88026   0.84708   0.61192   0.00000  Uiso   1.00
C1177  C     0.71932   0.81873   0.96448   0.00000  Uiso   1.00
C1178  C     0.92831   0.88938   0.54652   0.00000  Uiso   1.00
C1179  C     0.73672   0.81692   0.91539   0.00000  Uiso   1.00
C1180  C     0.91989   0.87341   0.59117   0.00000  Uiso   1.00
C1181  C     0.80900   0.85182   0.91496   0.00000  Uiso   1.00
C1182  C     0.84977   0.83818   0.58751   0.00000  Uiso   1.00
C1183  C     0.79201   0.85481   0.96371   0.00000  Uiso   1.00
C1184  C     0.85169   0.86106   0.54913   0.00000  Uiso   1.00
C1185  C     0.74787   0.83596   0.98930   0.00000  Uiso   1.00
C1186  C     0.89252   0.88532   0.52652   0.00000  Uiso   1.00
C1187  C     0.82170   0.87139   0.98711   0.00000  Uiso   1.00
C1188  C     0.81385   0.85889   0.53213   0.00000  Uiso   1.00
H1189  H     0.82130   0.81590   0.60120   0.00000  Uiso   1.00
H1190  H     0.84434   0.86257   0.89626   0.00000  Uiso   1.00
N1191  N     0.71426   0.83334   0.75001   0.00000  Uiso   1.00
N1192  N     0.95241   0.83332   0.74999   0.00000  Uiso   1.00
O1193  O     0.79512   0.89442   0.75001   0.00000  Uiso   1.00
O1194  O     0.87154   0.77225   0.75000   0.00000  Uiso   1.00
O1195  O     0.87157   0.89441   0.75000   0.00000  Uiso   1.00
O1196  O     0.79510   0.77226   0.75000   0.00000  Uiso   1.00
O1197  O     0.77328   0.83334   0.81613   0.00000  Uiso   1.00
O1198  O     0.89339   0.83333   0.68388   0.00000  Uiso   1.00
O1199  O     0.84972   0.83333   0.81612   0.00000  Uiso   1.00
O1200  O     0.81695   0.83334   0.68388   0.00000  Uiso   1.00
Zn1201 Zn    0.78229   0.83334   0.75000   0.00000  Uiso   1.00
Zn1202 Zn    0.88438   0.83333   0.75000   0.00000  Uiso   1.00
O1203  O     0.69067   0.81843   0.56473   0.00000  Uiso   1.00
H1204  H     0.69026   0.81387   0.59652   0.00000  Uiso   1.00
O1205  O     0.93172   0.93431   0.96685   0.00000  Uiso   1.00
H1206  H     0.93323   0.94011   0.93487   0.00000  Uiso   1.00
I1207  I     0.96051   0.89903   0.62930   0.00000  Uiso   1.00
I1208  I     0.69063   0.78790   0.88345   0.00000  Uiso   1.00
O1209  O     0.67496   0.80199   0.98707   0.00000  Uiso   1.00
H1210  H     0.98904   0.82448   0.50739   0.00000  Uiso   1.00
O1211  O     0.96953   0.91122   0.52359   0.00000  Uiso   1.00
H1212  H     0.99560   0.90109   0.53290   0.00000  Uiso   1.00
I1213  I     0.74241   0.87284   0.63052   0.00000  Uiso   1.00
I1214  I     0.84001   0.95173   0.93457   0.00000  Uiso   1.00
I1215  I     0.94633   0.96412   0.72983   0.00000  Uiso   1.00
I1216  I     0.71691   0.70821   0.78393   0.00000  Uiso   1.00
O1217  O     0.89782   0.71240   0.78258   0.00000  Uiso   1.00
H1218  H     0.91230   0.69347   0.79828   0.00000  Uiso   1.00
O1219  O     0.76190   0.95646   0.73077   0.00000  Uiso   1.00
H1220  H     0.74485   0.97584   0.71815   0.00000  Uiso   1.00
I1221  I     0.96658   0.76392   0.67488   0.00000  Uiso   1.00
I1222  I     0.69924   0.90024   0.82801   0.00000  Uiso   1.00
I1223  I     0.74992   0.76424   0.67370   0.00000  Uiso   1.00
I1224  I     0.91760   0.89996   0.82716   0.00000  Uiso   1.00
loop_
_geom_bond_atom_site_label_1
_geom_bond_atom_site_label_2
_geom_bond_distance
_geom_bond_site_symmetry_2
_ccdc_geom_bond_type
C1     O37     1.306   .     A
C1     C12     1.454   .     S
C1     O39     1.303   .     A
C2     O40     1.299   .     A
C2     O38     1.306   .     A
C2     C11     1.446   .     S
C3     C32     1.403   .     A
C3     I57     2.143   .     S
C3     C5      1.413   .     A
C4     C31     1.408   .     A
C4     I58     2.141   .     S
C4     C6      1.413   .     A
C5     O47     1.378   .     S
C5     C641    1.420   1_554 S
C6     O49     1.381   .     S
C6     C642    1.420   .     S
C7     I59     2.138   .     S
C7     C12     1.415   .     A
C7     C213    1.385   .     S
C8     I60     2.143   .     S
C8     C11     1.403   .     A
C8     C418    1.386   1_545 S
C9     C11     1.400   .     A
C9     O61     1.384   .     S
C9     C415    1.385   1_545 S
C10    O63     1.384   .     S
C10    C12     1.413   .     A
C10    C212    1.386   .     S
C13    I65     2.138   .     S
C13    N36     1.377   .     A
C13    C83     1.433   .     S
C14    I66     2.144   .     S
C14    N35     1.372   .     A
C14    C152    1.428   1_455 S
C15    I67     2.145   .     S
C15    N35     1.380   .     A
C15    C149    1.433   1_455 S
C16    I68     2.105   .     S
C16    N36     1.377   .     A
C16    C82     1.428   .     S
C17    O43     1.324   .     A
C17    C19     1.486   .     S
C17    O41     1.300   .     A
C18    O44     1.314   .     A
C18    C20     1.492   .     S
C18    O42     1.311   .     A
C19    C23     1.419   .     A
C19    C25     1.390   .     A
C20    C24     1.416   .     A
C20    C26     1.388   .     A
C21    O53     1.375   .     S
C21    C29     1.420   .     A
C21    C23     1.406   .     A
C22    O55     1.382   .     S
C22    C24     1.419   .     A
C22    C30     1.412   .     A
C23    I52     2.133   .     S
C24    I51     2.097   .     S
C25    C27     1.397   .     A
C25    H34     1.070   .     S
C26    H33     1.080   .     S
C26    C28     1.400   .     A
C27    C29     1.418   .     A
C27    C31     1.409   .     A
C28    C30     1.413   .     A
C28    C32     1.405   .     A
C29    C617    1.420   .     S
C30    C618    1.420   1_554 S
C31    C644    1.391   .     S
C32    C643    1.391   1_554 S
N35    Zn45    2.041   .     S
N36    Zn46    2.041   .     S
O37    Zn45    2.002   .     S
O38    Zn46    2.002   .     S
O39    Zn46    2.022   .     S
O40    Zn45    2.022   .     S
O41    Zn45    1.946   .     S
O42    Zn46    1.946   .     S
O43    Zn46    1.924   .     S
O44    Zn45    1.924   .     S
O47    H48     0.987   .     S
O49    H50     0.990   .     S
O53    H802    0.989   1_455 S
H54    O733    0.989   1_554 S
O55    H56     0.989   .     S
O61    H62     0.991   .     S
O63    H64     0.990   .     S
C69    O105    1.306   .     A
C69    C80     1.454   .     S
C69    O107    1.303   .     A
C70    O108    1.299   .     A
C70    O106    1.306   .     A
C70    C79     1.446   .     S
C71    C100    1.403   .     A
C71    I125    2.143   .     S
C71    C73     1.413   .     A
C72    C99     1.408   .     A
C72    I126    2.141   .     S
C72    C74     1.413   .     A
C73    O115    1.378   .     S
C73    C709    1.420   1_554 S
C74    O117    1.381   .     S
C74    C710    1.420   .     S
C75    I127    2.138   .     S
C75    C80     1.415   .     A
C75    C281    1.385   .     S
C76    I128    2.143   .     S
C76    C79     1.403   .     A
C76    C486    1.386   1_545 S
C77    C79     1.400   .     A
C77    O129    1.384   .     S
C77    C483    1.385   1_545 S
C78    O131    1.384   .     S
C78    C80     1.413   .     A
C78    C280    1.386   .     S
C81    I133    2.138   .     S
C81    N104    1.377   .     A
C81    C151    1.433   .     S
C82    I134    2.144   .     S
C82    N103    1.372   .     A
C83    I135    2.145   .     S
C83    N103    1.380   .     A
C84    I136    2.105   .     S
C84    N104    1.377   .     A
C84    C150    1.428   .     S
C85    O111    1.324   .     A
C85    C87     1.486   .     S
C85    O109    1.300   .     A
C86    O112    1.314   .     A
C86    C88     1.492   .     S
C86    O110    1.311   .     A
C87    C91     1.419   .     A
C87    C93     1.390   .     A
C88    C92     1.416   .     A
C88    C94     1.388   .     A
C89    O121    1.375   .     S
C89    C97     1.420   .     A
C89    C91     1.406   .     A
C90    O123    1.382   .     S
C90    C92     1.419   .     A
C90    C98     1.412   .     A
C91    I120    2.133   .     S
C92    I119    2.097   .     S
C93    C95     1.397   .     A
C93    H102    1.070   .     S
C94    H101    1.080   .     S
C94    C96     1.400   .     A
C95    C97     1.418   .     A
C95    C99     1.409   .     A
C96    C98     1.413   .     A
C96    C100    1.405   .     A
C97    C685    1.420   .     S
C98    C686    1.420   1_554 S
C99    C712    1.391   .     S
C100   C711    1.391   1_554 S
N103   Zn113   2.041   .     S
N104   Zn114   2.041   .     S
O105   Zn113   2.002   .     S
O106   Zn114   2.002   .     S
O107   Zn114   2.022   .     S
O108   Zn113   2.022   .     S
O109   Zn113   1.946   .     S
O110   Zn114   1.946   .     S
O111   Zn114   1.924   .     S
O112   Zn113   1.924   .     S
O115   H116    0.987   .     S
O117   H118    0.990   .     S
O121   H666    0.989   .     S
H122   O801    0.989   1_554 S
O123   H124    0.989   .     S
O129   H130    0.991   .     S
O131   H132    0.990   .     S
C137   O173    1.306   .     A
C137   C148    1.454   .     S
C137   O175    1.303   .     A
C138   O176    1.299   .     A
C138   O174    1.306   .     A
C138   C147    1.446   .     S
C139   C168    1.403   .     A
C139   I193    2.143   .     S
C139   C141    1.413   .     A
C140   C167    1.408   .     A
C140   I194    2.141   .     S
C140   C142    1.413   .     A
C141   O183    1.378   .     S
C141   C777    1.420   1_554 S
C142   O185    1.381   .     S
C142   C778    1.420   .     S
C143   I195    2.138   .     S
C143   C148    1.415   .     A
C143   C349    1.385   .     S
C144   I196    2.143   .     S
C144   C147    1.403   .     A
C144   C554    1.386   1_545 S
C145   C147    1.400   .     A
C145   O197    1.384   .     S
C145   C551    1.385   1_545 S
C146   O199    1.384   .     S
C146   C148    1.413   .     A
C146   C348    1.386   .     S
C149   I201    2.138   .     S
C149   N172    1.377   .     A
C149   C15     1.433   1_655 S
C150   I202    2.144   .     S
C150   N171    1.372   .     A
C151   I203    2.145   .     S
C151   N171    1.380   .     A
C152   I204    2.105   .     S
C152   N172    1.377   .     A
C152   C14     1.428   1_655 S
C153   O179    1.324   .     A
C153   C155    1.486   .     S
C153   O177    1.300   .     A
C154   O180    1.314   .     A
C154   C156    1.492   .     S
C154   O178    1.311   .     A
C155   C159    1.419   .     A
C155   C161    1.390   .     A
C156   C160    1.416   .     A
C156   C162    1.388   .     A
C157   O189    1.375   .     S
C157   C165    1.420   .     A
C157   C159    1.406   .     A
C158   O191    1.382   .     S
C158   C160    1.419   .     A
C158   C166    1.412   .     A
C159   I188    2.133   .     S
C160   I187    2.097   .     S
C161   C163    1.397   .     A
C161   H170    1.070   .     S
C162   H169    1.080   .     S
C162   C164    1.400   .     A
C163   C165    1.418   .     A
C163   C167    1.409   .     A
C164   C166    1.413   .     A
C164   C168    1.405   .     A
C165   C753    1.420   .     S
C166   C754    1.420   1_554 S
C167   C780    1.391   .     S
C168   C779    1.391   1_554 S
N171   Zn181   2.041   .     S
N172   Zn182   2.041   .     S
O173   Zn181   2.002   .     S
O174   Zn182   2.002   .     S
O175   Zn182   2.022   .     S
O176   Zn181   2.022   .     S
O177   Zn181   1.946   .     S
O178   Zn182   1.946   .     S
O179   Zn182   1.924   .     S
O180   Zn181   1.924   .     S
O183   H184    0.987   .     S
O185   H186    0.990   .     S
O189   H734    0.989   .     S
H190   O665    0.989   1_654 S
O191   H192    0.989   .     S
O197   H198    0.991   .     S
O199   H200    0.990   .     S
C205   O241    1.306   .     A
C205   C216    1.454   .     S
C205   O243    1.303   .     A
C206   O244    1.299   .     A
C206   O242    1.306   .     A
C206   C215    1.446   .     S
C207   C236    1.403   .     A
C207   I261    2.143   .     S
C207   C209    1.413   .     A
C208   C235    1.408   .     A
C208   I262    2.141   .     S
C208   C210    1.413   .     A
C209   O251    1.378   .     S
C209   C845    1.420   1_554 S
C210   O253    1.381   .     S
C210   C846    1.420   .     S
C211   I263    2.138   .     S
C211   C216    1.415   .     A
C211   C417    1.385   .     S
C212   I264    2.143   .     S
C212   C215    1.403   .     A
C213   C215    1.400   .     A
C213   O265    1.384   .     S
C214   O267    1.384   .     S
C214   C216    1.413   .     A
C214   C416    1.386   .     S
C217   I269    2.138   .     S
C217   N240    1.377   .     A
C217   C287    1.433   .     S
C218   I270    2.144   .     S
C218   N239    1.372   .     A
C218   C356    1.428   1_455 S
C219   I271    2.145   .     S
C219   N239    1.380   .     A
C219   C353    1.433   1_455 S
C220   I272    2.105   .     S
C220   N240    1.377   .     A
C220   C286    1.428   .     S
C221   O247    1.324   .     A
C221   C223    1.486   .     S
C221   O245    1.300   .     A
C222   O248    1.314   .     A
C222   C224    1.492   .     S
C222   O246    1.311   .     A
C223   C227    1.419   .     A
C223   C229    1.390   .     A
C224   C228    1.416   .     A
C224   C230    1.388   .     A
C225   O257    1.375   .     S
C225   C233    1.420   .     A
C225   C227    1.406   .     A
C226   O259    1.382   .     S
C226   C228    1.419   .     A
C226   C234    1.412   .     A
C227   I256    2.133   .     S
C228   I255    2.097   .     S
C229   C231    1.397   .     A
C229   H238    1.070   .     S
C230   H237    1.080   .     S
C230   C232    1.400   .     A
C231   C233    1.418   .     A
C231   C235    1.409   .     A
C232   C234    1.413   .     A
C232   C236    1.405   .     A
C233   C821    1.420   .     S
C234   C822    1.420   1_554 S
C235   C848    1.391   .     S
C236   C847    1.391   1_554 S
N239   Zn249   2.041   .     S
N240   Zn250   2.041   .     S
O241   Zn249   2.002   .     S
O242   Zn250   2.002   .     S
O243   Zn250   2.022   .     S
O244   Zn249   2.022   .     S
O245   Zn249   1.946   .     S
O246   Zn250   1.946   .     S
O247   Zn250   1.924   .     S
O248   Zn249   1.924   .     S
O251   H252    0.987   .     S
O253   H254    0.990   .     S
O257   H1006   0.989   1_455 S
H258   O937    0.989   1_554 S
O259   H260    0.989   .     S
O265   H266    0.991   .     S
O267   H268    0.990   .     S
C273   O309    1.306   .     A
C273   C284    1.454   .     S
C273   O311    1.303   .     A
C274   O312    1.299   .     A
C274   O310    1.306   .     A
C274   C283    1.446   .     S
C275   C304    1.403   .     A
C275   I329    2.143   .     S
C275   C277    1.413   .     A
C276   C303    1.408   .     A
C276   I330    2.141   .     S
C276   C278    1.413   .     A
C277   O319    1.378   .     S
C277   C913    1.420   1_554 S
C278   O321    1.381   .     S
C278   C914    1.420   .     S
C279   I331    2.138   .     S
C279   C284    1.415   .     A
C279   C485    1.385   .     S
C280   I332    2.143   .     S
C280   C283    1.403   .     A
C281   C283    1.400   .     A
C281   O333    1.384   .     S
C282   O335    1.384   .     S
C282   C284    1.413   .     A
C282   C484    1.386   .     S
C285   I337    2.138   .     S
C285   N308    1.377   .     A
C285   C355    1.433   .     S
C286   I338    2.144   .     S
C286   N307    1.372   .     A
C287   I339    2.145   .     S
C287   N307    1.380   .     A
C288   I340    2.105   .     S
C288   N308    1.377   .     A
C288   C354    1.428   .     S
C289   O315    1.324   .     A
C289   C291    1.486   .     S
C289   O313    1.300   .     A
C290   O316    1.314   .     A
C290   C292    1.492   .     S
C290   O314    1.311   .     A
C291   C295    1.419   .     A
C291   C297    1.390   .     A
C292   C296    1.416   .     A
C292   C298    1.388   .     A
C293   O325    1.375   .     S
C293   C301    1.420   .     A
C293   C295    1.406   .     A
C294   O327    1.382   .     S
C294   C296    1.419   .     A
C294   C302    1.412   .     A
C295   I324    2.133   .     S
C296   I323    2.097   .     S
C297   C299    1.397   .     A
C297   H306    1.070   .     S
C298   H305    1.080   .     S
C298   C300    1.400   .     A
C299   C301    1.418   .     A
C299   C303    1.409   .     A
C300   C302    1.413   .     A
C300   C304    1.405   .     A
C301   C889    1.420   .     S
C302   C890    1.420   1_554 S
C303   C916    1.391   .     S
C304   C915    1.391   1_554 S
N307   Zn317   2.041   .     S
N308   Zn318   2.041   .     S
O309   Zn317   2.002   .     S
O310   Zn318   2.002   .     S
O311   Zn318   2.022   .     S
O312   Zn317   2.022   .     S
O313   Zn317   1.946   .     S
O314   Zn318   1.946   .     S
O315   Zn318   1.924   .     S
O316   Zn317   1.924   .     S
O319   H320    0.987   .     S
O321   H322    0.990   .     S
O325   H870    0.989   .     S
H326   O1005   0.989   1_554 S
O327   H328    0.989   .     S
O333   H334    0.991   .     S
O335   H336    0.990   .     S
C341   O377    1.306   .     A
C341   C352    1.454   .     S
C341   O379    1.303   .     A
C342   O380    1.299   .     A
C342   O378    1.306   .     A
C342   C351    1.446   .     S
C343   C372    1.403   .     A
C343   I397    2.143   .     S
C343   C345    1.413   .     A
C344   C371    1.408   .     A
C344   I398    2.141   .     S
C344   C346    1.413   .     A
C345   O387    1.378   .     S
C345   C981    1.420   1_554 S
C346   O389    1.381   .     S
C346   C982    1.420   .     S
C347   I399    2.138   .     S
C347   C352    1.415   .     A
C347   C553    1.385   .     S
C348   I400    2.143   .     S
C348   C351    1.403   .     A
C349   C351    1.400   .     A
C349   O401    1.384   .     S
C350   O403    1.384   .     S
C350   C352    1.413   .     A
C350   C552    1.386   .     S
C353   I405    2.138   .     S
C353   N376    1.377   .     A
C353   C219    1.433   1_655 S
C354   I406    2.144   .     S
C354   N375    1.372   .     A
C355   I407    2.145   .     S
C355   N375    1.380   .     A
C356   I408    2.105   .     S
C356   N376    1.377   .     A
C356   C218    1.428   1_655 S
C357   O383    1.324   .     A
C357   C359    1.486   .     S
C357   O381    1.300   .     A
C358   O384    1.314   .     A
C358   C360    1.492   .     S
C358   O382    1.311   .     A
C359   C363    1.419   .     A
C359   C365    1.390   .     A
C360   C364    1.416   .     A
C360   C366    1.388   .     A
C361   O393    1.375   .     S
C361   C369    1.420   .     A
C361   C363    1.406   .     A
C362   O395    1.382   .     S
C362   C364    1.419   .     A
C362   C370    1.412   .     A
C363   I392    2.133   .     S
C364   I391    2.097   .     S
C365   C367    1.397   .     A
C365   H374    1.070   .     S
C366   H373    1.080   .     S
C366   C368    1.400   .     A
C367   C369    1.418   .     A
C367   C371    1.409   .     A
C368   C370    1.413   .     A
C368   C372    1.405   .     A
C369   C957    1.420   .     S
C370   C958    1.420   1_554 S
C371   C984    1.391   .     S
C372   C983    1.391   1_554 S
N375   Zn385   2.041   .     S
N376   Zn386   2.041   .     S
O377   Zn385   2.002   .     S
O378   Zn386   2.002   .     S
O379   Zn386   2.022   .     S
O380   Zn385   2.022   .     S
O381   Zn385   1.946   .     S
O382   Zn386   1.946   .     S
O383   Zn386   1.924   .     S
O384   Zn385   1.924   .     S
O387   H388    0.987   .     S
O389   H390    0.990   .     S
O393   H938    0.989   .     S
H394   O869    0.989   1_654 S
O395   H396    0.989   .     S
O401   H402    0.991   .     S
O403   H404    0.990   .     S
C409   O445    1.306   .     A
C409   C420    1.454   .     S
C409   O447    1.303   .     A
C410   O448    1.299   .     A
C410   O446    1.306   .     A
C410   C419    1.446   .     S
C411   C440    1.403   .     A
C411   I465    2.143   .     S
C411   C413    1.413   .     A
C412   C439    1.408   .     A
C412   I466    2.141   .     S
C412   C414    1.413   .     A
C413   O455    1.378   .     S
C413   C1049   1.420   1_554 S
C414   O457    1.381   .     S
C414   C1050   1.420   .     S
C415   I467    2.138   .     S
C415   C420    1.415   .     A
C415   C9      1.385   1_565 S
C416   I468    2.143   .     S
C416   C419    1.403   .     A
C417   C419    1.400   .     A
C417   O469    1.384   .     S
C418   O471    1.384   .     S
C418   C420    1.413   .     A
C418   C8      1.386   1_565 S
C421   I473    2.138   .     S
C421   N444    1.377   .     A
C421   C491    1.433   .     S
C422   I474    2.144   .     S
C422   N443    1.372   .     A
C422   C560    1.428   1_455 S
C423   I475    2.145   .     S
C423   N443    1.380   .     A
C423   C557    1.433   1_455 S
C424   I476    2.105   .     S
C424   N444    1.377   .     A
C424   C490    1.428   .     S
C425   O451    1.324   .     A
C425   C427    1.486   .     S
C425   O449    1.300   .     A
C426   O452    1.314   .     A
C426   C428    1.492   .     S
C426   O450    1.311   .     A
C427   C431    1.419   .     A
C427   C433    1.390   .     A
C428   C432    1.416   .     A
C428   C434    1.388   .     A
C429   O461    1.375   .     S
C429   C437    1.420   .     A
C429   C431    1.406   .     A
C430   O463    1.382   .     S
C430   C432    1.419   .     A
C430   C438    1.412   .     A
C431   I460    2.133   .     S
C432   I459    2.097   .     S
C433   C435    1.397   .     A
C433   H442    1.070   .     S
C434   H441    1.080   .     S
C434   C436    1.400   .     A
C435   C437    1.418   .     A
C435   C439    1.409   .     A
C436   C438    1.413   .     A
C436   C440    1.405   .     A
C437   C1025   1.420   .     S
C438   C1026   1.420   1_554 S
C439   C1052   1.391   .     S
C440   C1051   1.391   1_554 S
N443   Zn453   2.041   .     S
N444   Zn454   2.041   .     S
O445   Zn453   2.002   .     S
O446   Zn454   2.002   .     S
O447   Zn454   2.022   .     S
O448   Zn453   2.022   .     S
O449   Zn453   1.946   .     S
O450   Zn454   1.946   .     S
O451   Zn454   1.924   .     S
O452   Zn453   1.924   .     S
O455   H456    0.987   .     S
O457   H458    0.990   .     S
O461   H1210   0.989   1_455 S
H462   O1141   0.989   1_554 S
O463   H464    0.989   .     S
O469   H470    0.991   .     S
O471   H472    0.990   .     S
C477   O513    1.306   .     A
C477   C488    1.454   .     S
C477   O515    1.303   .     A
C478   O516    1.299   .     A
C478   O514    1.306   .     A
C478   C487    1.446   .     S
C479   C508    1.403   .     A
C479   I533    2.143   .     S
C479   C481    1.413   .     A
C480   C507    1.408   .     A
C480   I534    2.141   .     S
C480   C482    1.413   .     A
C481   O523    1.378   .     S
C481   C1117   1.420   1_554 S
C482   O525    1.381   .     S
C482   C1118   1.420   .     S
C483   I535    2.138   .     S
C483   C488    1.415   .     A
C483   C77     1.385   1_565 S
C484   I536    2.143   .     S
C484   C487    1.403   .     A
C485   C487    1.400   .     A
C485   O537    1.384   .     S
C486   O539    1.384   .     S
C486   C488    1.413   .     A
C486   C76     1.386   1_565 S
C489   I541    2.138   .     S
C489   N512    1.377   .     A
C489   C559    1.433   .     S
C490   I542    2.144   .     S
C490   N511    1.372   .     A
C491   I543    2.145   .     S
C491   N511    1.380   .     A
C492   I544    2.105   .     S
C492   N512    1.377   .     A
C492   C558    1.428   .     S
C493   O519    1.324   .     A
C493   C495    1.486   .     S
C493   O517    1.300   .     A
C494   O520    1.314   .     A
C494   C496    1.492   .     S
C494   O518    1.311   .     A
C495   C499    1.419   .     A
C495   C501    1.390   .     A
C496   C500    1.416   .     A
C496   C502    1.388   .     A
C497   O529    1.375   .     S
C497   C505    1.420   .     A
C497   C499    1.406   .     A
C498   O531    1.382   .     S
C498   C500    1.419   .     A
C498   C506    1.412   .     A
C499   I528    2.133   .     S
C500   I527    2.097   .     S
C501   C503    1.397   .     A
C501   H510    1.070   .     S
C502   H509    1.080   .     S
C502   C504    1.400   .     A
C503   C505    1.418   .     A
C503   C507    1.409   .     A
C504   C506    1.413   .     A
C504   C508    1.405   .     A
C505   C1093   1.420   .     S
C506   C1094   1.420   1_554 S
C507   C1120   1.391   .     S
C508   C1119   1.391   1_554 S
N511   Zn521   2.041   .     S
N512   Zn522   2.041   .     S
O513   Zn521   2.002   .     S
O514   Zn522   2.002   .     S
O515   Zn522   2.022   .     S
O516   Zn521   2.022   .     S
O517   Zn521   1.946   .     S
O518   Zn522   1.946   .     S
O519   Zn522   1.924   .     S
O520   Zn521   1.924   .     S
O523   H524    0.987   .     S
O525   H526    0.990   .     S
O529   H1074   0.989   .     S
H530   O1209   0.989   1_554 S
O531   H532    0.989   .     S
O537   H538    0.991   .     S
O539   H540    0.990   .     S
C545   O581    1.306   .     A
C545   C556    1.454   .     S
C545   O583    1.303   .     A
C546   O584    1.299   .     A
C546   O582    1.306   .     A
C546   C555    1.446   .     S
C547   C576    1.403   .     A
C547   I601    2.143   .     S
C547   C549    1.413   .     A
C548   C575    1.408   .     A
C548   I602    2.141   .     S
C548   C550    1.413   .     A
C549   O591    1.378   .     S
C549   C1185   1.420   1_554 S
C550   O593    1.381   .     S
C550   C1186   1.420   .     S
C551   I603    2.138   .     S
C551   C556    1.415   .     A
C551   C145    1.385   1_565 S
C552   I604    2.143   .     S
C552   C555    1.403   .     A
C553   C555    1.400   .     A
C553   O605    1.384   .     S
C554   O607    1.384   .     S
C554   C556    1.413   .     A
C554   C144    1.386   1_565 S
C557   I609    2.138   .     S
C557   N580    1.377   .     A
C557   C423    1.433   1_655 S
C558   I610    2.144   .     S
C558   N579    1.372   .     A
C559   I611    2.145   .     S
C559   N579    1.380   .     A
C560   I612    2.105   .     S
C560   N580    1.377   .     A
C560   C422    1.428   1_655 S
C561   O587    1.324   .     A
C561   C563    1.486   .     S
C561   O585    1.300   .     A
C562   O588    1.314   .     A
C562   C564    1.492   .     S
C562   O586    1.311   .     A
C563   C567    1.419   .     A
C563   C569    1.390   .     A
C564   C568    1.416   .     A
C564   C570    1.388   .     A
C565   O597    1.375   .     S
C565   C573    1.420   .     A
C565   C567    1.406   .     A
C566   O599    1.382   .     S
C566   C568    1.419   .     A
C566   C574    1.412   .     A
C567   I596    2.133   .     S
C568   I595    2.097   .     S
C569   C571    1.397   .     A
C569   H578    1.070   .     S
C570   H577    1.080   .     S
C570   C572    1.400   .     A
C571   C573    1.418   .     A
C571   C575    1.409   .     A
C572   C574    1.413   .     A
C572   C576    1.405   .     A
C573   C1161   1.420   .     S
C574   C1162   1.420   1_554 S
C575   C1188   1.391   .     S
C576   C1187   1.391   1_554 S
N579   Zn589   2.041   .     S
N580   Zn590   2.041   .     S
O581   Zn589   2.002   .     S
O582   Zn590   2.002   .     S
O583   Zn590   2.022   .     S
O584   Zn589   2.022   .     S
O585   Zn589   1.946   .     S
O586   Zn590   1.946   .     S
O587   Zn590   1.924   .     S
O588   Zn589   1.924   .     S
O591   H592    0.987   .     S
O593   H594    0.990   .     S
O597   H1142   0.989   .     S
H598   O1073   0.989   1_654 S
O599   H600    0.989   .     S
O605   H606    0.991   .     S
O607   H608    0.990   .     S
C613   O649    1.306   .     A
C613   C624    1.454   .     S
C613   O651    1.303   .     A
C614   O652    1.299   .     A
C614   O650    1.306   .     A
C614   C623    1.446   .     S
C615   C644    1.403   .     A
C615   I669    2.143   .     S
C615   C617    1.413   .     A
C616   C643    1.408   .     A
C616   I670    2.141   .     S
C616   C618    1.413   .     A
C617   O659    1.378   .     S
C618   O661    1.381   .     S
C618   C30     1.420   1_556 S
C619   I671    2.138   .     S
C619   C624    1.415   .     A
C619   C825    1.385   .     S
C620   I672    2.143   .     S
C620   C623    1.403   .     A
C620   C1030   1.386   1_545 S
C621   C623    1.400   .     A
C621   O673    1.384   .     S
C621   C1027   1.385   1_545 S
C622   O675    1.384   .     S
C622   C624    1.413   .     A
C622   C824    1.386   .     S
C625   I677    2.138   .     S
C625   N648    1.377   .     A
C625   C695    1.433   .     S
C626   I678    2.144   .     S
C626   N647    1.372   .     A
C626   C764    1.428   1_455 S
C627   I679    2.145   .     S
C627   N647    1.380   .     A
C627   C761    1.433   1_455 S
C628   I680    2.105   .     S
C628   N648    1.377   .     A
C628   C694    1.428   .     S
C629   O655    1.324   .     A
C629   C631    1.486   .     S
C629   O653    1.300   .     A
C630   O656    1.314   .     A
C630   C632    1.492   .     S
C630   O654    1.311   .     A
C631   C635    1.419   .     A
C631   C637    1.390   .     A
C632   C636    1.416   .     A
C632   C638    1.388   .     A
C633   O665    1.375   .     S
C633   C641    1.420   .     A
C633   C635    1.406   .     A
C634   O667    1.382   .     S
C634   C636    1.419   .     A
C634   C642    1.412   .     A
C635   I664    2.133   .     S
C636   I663    2.097   .     S
C637   C639    1.397   .     A
C637   H646    1.070   .     S
C638   H645    1.080   .     S
C638   C640    1.400   .     A
C639   C641    1.418   .     A
C639   C643    1.409   .     A
C640   C642    1.413   .     A
C640   C644    1.405   .     A
C641   C5      1.420   1_556 S
C643   C32     1.391   1_556 S
N647   Zn657   2.041   .     S
N648   Zn658   2.041   .     S
O649   Zn657   2.002   .     S
O650   Zn658   2.002   .     S
O651   Zn658   2.022   .     S
O652   Zn657   2.022   .     S
O653   Zn657   1.946   .     S
O654   Zn658   1.946   .     S
O655   Zn658   1.924   .     S
O656   Zn657   1.924   .     S
O659   H660    0.987   .     S
O661   H662    0.990   .     S
O665   H190    0.989   1_456 S
O667   H668    0.989   .     S
O673   H674    0.991   .     S
O675   H676    0.990   .     S
C681   O717    1.306   .     A
C681   C692    1.454   .     S
C681   O719    1.303   .     A
C682   O720    1.299   .     A
C682   O718    1.306   .     A
C682   C691    1.446   .     S
C683   C712    1.403   .     A
C683   I737    2.143   .     S
C683   C685    1.413   .     A
C684   C711    1.408   .     A
C684   I738    2.141   .     S
C684   C686    1.413   .     A
C685   O727    1.378   .     S
C686   O729    1.381   .     S
C686   C98     1.420   1_556 S
C687   I739    2.138   .     S
C687   C692    1.415   .     A
C687   C893    1.385   .     S
C688   I740    2.143   .     S
C688   C691    1.403   .     A
C688   C1098   1.386   1_545 S
C689   C691    1.400   .     A
C689   O741    1.384   .     S
C689   C1095   1.385   1_545 S
C690   O743    1.384   .     S
C690   C692    1.413   .     A
C690   C892    1.386   .     S
C693   I745    2.138   .     S
C693   N716    1.377   .     A
C693   C763    1.433   .     S
C694   I746    2.144   .     S
C694   N715    1.372   .     A
C695   I747    2.145   .     S
C695   N715    1.380   .     A
C696   I748    2.105   .     S
C696   N716    1.377   .     A
C696   C762    1.428   .     S
C697   O723    1.324   .     A
C697   C699    1.486   .     S
C697   O721    1.300   .     A
C698   O724    1.314   .     A
C698   C700    1.492   .     S
C698   O722    1.311   .     A
C699   C703    1.419   .     A
C699   C705    1.390   .     A
C700   C704    1.416   .     A
C700   C706    1.388   .     A
C701   O733    1.375   .     S
C701   C709    1.420   .     A
C701   C703    1.406   .     A
C702   O735    1.382   .     S
C702   C704    1.419   .     A
C702   C710    1.412   .     A
C703   I732    2.133   .     S
C704   I731    2.097   .     S
C705   C707    1.397   .     A
C705   H714    1.070   .     S
C706   H713    1.080   .     S
C706   C708    1.400   .     A
C707   C709    1.418   .     A
C707   C711    1.409   .     A
C708   C710    1.413   .     A
C708   C712    1.405   .     A
C709   C73     1.420   1_556 S
C711   C100    1.391   1_556 S
N715   Zn725   2.041   .     S
N716   Zn726   2.041   .     S
O717   Zn725   2.002   .     S
O718   Zn726   2.002   .     S
O719   Zn726   2.022   .     S
O720   Zn725   2.022   .     S
O721   Zn725   1.946   .     S
O722   Zn726   1.946   .     S
O723   Zn726   1.924   .     S
O724   Zn725   1.924   .     S
O727   H728    0.987   .     S
O729   H730    0.990   .     S
O733   H54     0.989   1_556 S
O735   H736    0.989   .     S
O741   H742    0.991   .     S
O743   H744    0.990   .     S
C749   O785    1.306   .     A
C749   C760    1.454   .     S
C749   O787    1.303   .     A
C750   O788    1.299   .     A
C750   O786    1.306   .     A
C750   C759    1.446   .     S
C751   C780    1.403   .     A
C751   I805    2.143   .     S
C751   C753    1.413   .     A
C752   C779    1.408   .     A
C752   I806    2.141   .     S
C752   C754    1.413   .     A
C753   O795    1.378   .     S
C754   O797    1.381   .     S
C754   C166    1.420   1_556 S
C755   I807    2.138   .     S
C755   C760    1.415   .     A
C755   C961    1.385   .     S
C756   I808    2.143   .     S
C756   C759    1.403   .     A
C756   C1166   1.386   1_545 S
C757   C759    1.400   .     A
C757   O809    1.384   .     S
C757   C1163   1.385   1_545 S
C758   O811    1.384   .     S
C758   C760    1.413   .     A
C758   C960    1.386   .     S
C761   I813    2.138   .     S
C761   N784    1.377   .     A
C761   C627    1.433   1_655 S
C762   I814    2.144   .     S
C762   N783    1.372   .     A
C763   I815    2.145   .     S
C763   N783    1.380   .     A
C764   I816    2.105   .     S
C764   N784    1.377   .     A
C764   C626    1.428   1_655 S
C765   O791    1.324   .     A
C765   C767    1.486   .     S
C765   O789    1.300   .     A
C766   O792    1.314   .     A
C766   C768    1.492   .     S
C766   O790    1.311   .     A
C767   C771    1.419   .     A
C767   C773    1.390   .     A
C768   C772    1.416   .     A
C768   C774    1.388   .     A
C769   O801    1.375   .     S
C769   C777    1.420   .     A
C769   C771    1.406   .     A
C770   O803    1.382   .     S
C770   C772    1.419   .     A
C770   C778    1.412   .     A
C771   I800    2.133   .     S
C772   I799    2.097   .     S
C773   C775    1.397   .     A
C773   H782    1.070   .     S
C774   H781    1.080   .     S
C774   C776    1.400   .     A
C775   C777    1.418   .     A
C775   C779    1.409   .     A
C776   C778    1.413   .     A
C776   C780    1.405   .     A
C777   C141    1.420   1_556 S
C779   C168    1.391   1_556 S
N783   Zn793   2.041   .     S
N784   Zn794   2.041   .     S
O785   Zn793   2.002   .     S
O786   Zn794   2.002   .     S
O787   Zn794   2.022   .     S
O788   Zn793   2.022   .     S
O789   Zn793   1.946   .     S
O790   Zn794   1.946   .     S
O791   Zn794   1.924   .     S
O792   Zn793   1.924   .     S
O795   H796    0.987   .     S
O797   H798    0.990   .     S
O801   H122    0.989   1_556 S
H802   O53     0.989   1_655 S
O803   H804    0.989   .     S
O809   H810    0.991   .     S
O811   H812    0.990   .     S
C817   O853    1.306   .     A
C817   C828    1.454   .     S
C817   O855    1.303   .     A
C818   O856    1.299   .     A
C818   O854    1.306   .     A
C818   C827    1.446   .     S
C819   C848    1.403   .     A
C819   I873    2.143   .     S
C819   C821    1.413   .     A
C820   C847    1.408   .     A
C820   I874    2.141   .     S
C820   C822    1.413   .     A
C821   O863    1.378   .     S
C822   O865    1.381   .     S
C822   C234    1.420   1_556 S
C823   I875    2.138   .     S
C823   C828    1.415   .     A
C823   C1029   1.385   .     S
C824   I876    2.143   .     S
C824   C827    1.403   .     A
C825   C827    1.400   .     A
C825   O877    1.384   .     S
C826   O879    1.384   .     S
C826   C828    1.413   .     A
C826   C1028   1.386   .     S
C829   I881    2.138   .     S
C829   N852    1.377   .     A
C829   C899    1.433   .     S
C830   I882    2.144   .     S
C830   N851    1.372   .     A
C830   C968    1.428   1_455 S
C831   I883    2.145   .     S
C831   N851    1.380   .     A
C831   C965    1.433   1_455 S
C832   I884    2.105   .     S
C832   N852    1.377   .     A
C832   C898    1.428   .     S
C833   O859    1.324   .     A
C833   C835    1.486   .     S
C833   O857    1.300   .     A
C834   O860    1.314   .     A
C834   C836    1.492   .     S
C834   O858    1.311   .     A
C835   C839    1.419   .     A
C835   C841    1.390   .     A
C836   C840    1.416   .     A
C836   C842    1.388   .     A
C837   O869    1.375   .     S
C837   C845    1.420   .     A
C837   C839    1.406   .     A
C838   O871    1.382   .     S
C838   C840    1.419   .     A
C838   C846    1.412   .     A
C839   I868    2.133   .     S
C840   I867    2.097   .     S
C841   C843    1.397   .     A
C841   H850    1.070   .     S
C842   H849    1.080   .     S
C842   C844    1.400   .     A
C843   C845    1.418   .     A
C843   C847    1.409   .     A
C844   C846    1.413   .     A
C844   C848    1.405   .     A
C845   C209    1.420   1_556 S
C847   C236    1.391   1_556 S
N851   Zn861   2.041   .     S
N852   Zn862   2.041   .     S
O853   Zn861   2.002   .     S
O854   Zn862   2.002   .     S
O855   Zn862   2.022   .     S
O856   Zn861   2.022   .     S
O857   Zn861   1.946   .     S
O858   Zn862   1.946   .     S
O859   Zn862   1.924   .     S
O860   Zn861   1.924   .     S
O863   H864    0.987   .     S
O865   H866    0.990   .     S
O869   H394    0.989   1_456 S
O871   H872    0.989   .     S
O877   H878    0.991   .     S
O879   H880    0.990   .     S
C885   O921    1.306   .     A
C885   C896    1.454   .     S
C885   O923    1.303   .     A
C886   O924    1.299   .     A
C886   O922    1.306   .     A
C886   C895    1.446   .     S
C887   C916    1.403   .     A
C887   I941    2.143   .     S
C887   C889    1.413   .     A
C888   C915    1.408   .     A
C888   I942    2.141   .     S
C888   C890    1.413   .     A
C889   O931    1.378   .     S
C890   O933    1.381   .     S
C890   C302    1.420   1_556 S
C891   I943    2.138   .     S
C891   C896    1.415   .     A
C891   C1097   1.385   .     S
C892   I944    2.143   .     S
C892   C895    1.403   .     A
C893   C895    1.400   .     A
C893   O945    1.384   .     S
C894   O947    1.384   .     S
C894   C896    1.413   .     A
C894   C1096   1.386   .     S
C897   I949    2.138   .     S
C897   N920    1.377   .     A
C897   C967    1.433   .     S
C898   I950    2.144   .     S
C898   N919    1.372   .     A
C899   I951    2.145   .     S
C899   N919    1.380   .     A
C900   I952    2.105   .     S
C900   N920    1.377   .     A
C900   C966    1.428   .     S
C901   O927    1.324   .     A
C901   C903    1.486   .     S
C901   O925    1.300   .     A
C902   O928    1.314   .     A
C902   C904    1.492   .     S
C902   O926    1.311   .     A
C903   C907    1.419   .     A
C903   C909    1.390   .     A
C904   C908    1.416   .     A
C904   C910    1.388   .     A
C905   O937    1.375   .     S
C905   C913    1.420   .     A
C905   C907    1.406   .     A
C906   O939    1.382   .     S
C906   C908    1.419   .     A
C906   C914    1.412   .     A
C907   I936    2.133   .     S
C908   I935    2.097   .     S
C909   C911    1.397   .     A
C909   H918    1.070   .     S
C910   H917    1.080   .     S
C910   C912    1.400   .     A
C911   C913    1.418   .     A
C911   C915    1.409   .     A
C912   C914    1.413   .     A
C912   C916    1.405   .     A
C913   C277    1.420   1_556 S
C915   C304    1.391   1_556 S
N919   Zn929   2.041   .     S
N920   Zn930   2.041   .     S
O921   Zn929   2.002   .     S
O922   Zn930   2.002   .     S
O923   Zn930   2.022   .     S
O924   Zn929   2.022   .     S
O925   Zn929   1.946   .     S
O926   Zn930   1.946   .     S
O927   Zn930   1.924   .     S
O928   Zn929   1.924   .     S
O931   H932    0.987   .     S
O933   H934    0.990   .     S
O937   H258    0.989   1_556 S
O939   H940    0.989   .     S
O945   H946    0.991   .     S
O947   H948    0.990   .     S
C953   O989    1.306   .     A
C953   C964    1.454   .     S
C953   O991    1.303   .     A
C954   O992    1.299   .     A
C954   O990    1.306   .     A
C954   C963    1.446   .     S
C955   C984    1.403   .     A
C955   I1009   2.143   .     S
C955   C957    1.413   .     A
C956   C983    1.408   .     A
C956   I1010   2.141   .     S
C956   C958    1.413   .     A
C957   O999    1.378   .     S
C958   O1001   1.381   .     S
C958   C370    1.420   1_556 S
C959   I1011   2.138   .     S
C959   C964    1.415   .     A
C959   C1165   1.385   .     S
C960   I1012   2.143   .     S
C960   C963    1.403   .     A
C961   C963    1.400   .     A
C961   O1013   1.384   .     S
C962   O1015   1.384   .     S
C962   C964    1.413   .     A
C962   C1164   1.386   .     S
C965   I1017   2.138   .     S
C965   N988    1.377   .     A
C965   C831    1.433   1_655 S
C966   I1018   2.144   .     S
C966   N987    1.372   .     A
C967   I1019   2.145   .     S
C967   N987    1.380   .     A
C968   I1020   2.105   .     S
C968   N988    1.377   .     A
C968   C830    1.428   1_655 S
C969   O995    1.324   .     A
C969   C971    1.486   .     S
C969   O993    1.300   .     A
C970   O996    1.314   .     A
C970   C972    1.492   .     S
C970   O994    1.311   .     A
C971   C975    1.419   .     A
C971   C977    1.390   .     A
C972   C976    1.416   .     A
C972   C978    1.388   .     A
C973   O1005   1.375   .     S
C973   C981    1.420   .     A
C973   C975    1.406   .     A
C974   O1007   1.382   .     S
C974   C976    1.419   .     A
C974   C982    1.412   .     A
C975   I1004   2.133   .     S
C976   I1003   2.097   .     S
C977   C979    1.397   .     A
C977   H986    1.070   .     S
C978   H985    1.080   .     S
C978   C980    1.400   .     A
C979   C981    1.418   .     A
C979   C983    1.409   .     A
C980   C982    1.413   .     A
C980   C984    1.405   .     A
C981   C345    1.420   1_556 S
C983   C372    1.391   1_556 S
N987   Zn997   2.041   .     S
N988   Zn998   2.041   .     S
O989   Zn997   2.002   .     S
O990   Zn998   2.002   .     S
O991   Zn998   2.022   .     S
O992   Zn997   2.022   .     S
O993   Zn997   1.946   .     S
O994   Zn998   1.946   .     S
O995   Zn998   1.924   .     S
O996   Zn997   1.924   .     S
O999   H1000   0.987   .     S
O1001  H1002   0.990   .     S
O1005  H326    0.989   1_556 S
H1006  O257    0.989   1_655 S
O1007  H1008   0.989   .     S
O1013  H1014   0.991   .     S
O1015  H1016   0.990   .     S
C1021  O1057   1.306   .     A
C1021  C1032   1.454   .     S
C1021  O1059   1.303   .     A
C1022  O1060   1.299   .     A
C1022  O1058   1.306   .     A
C1022  C1031   1.446   .     S
C1023  C1052   1.403   .     A
C1023  I1077   2.143   .     S
C1023  C1025   1.413   .     A
C1024  C1051   1.408   .     A
C1024  I1078   2.141   .     S
C1024  C1026   1.413   .     A
C1025  O1067   1.378   .     S
C1026  O1069   1.381   .     S
C1026  C438    1.420   1_556 S
C1027  I1079   2.138   .     S
C1027  C1032   1.415   .     A
C1027  C621    1.385   1_565 S
C1028  I1080   2.143   .     S
C1028  C1031   1.403   .     A
C1029  C1031   1.400   .     A
C1029  O1081   1.384   .     S
C1030  O1083   1.384   .     S
C1030  C1032   1.413   .     A
C1030  C620    1.386   1_565 S
C1033  I1085   2.138   .     S
C1033  N1056   1.377   .     A
C1033  C1103   1.433   .     S
C1034  I1086   2.144   .     S
C1034  N1055   1.372   .     A
C1034  C1172   1.428   1_455 S
C1035  I1087   2.145   .     S
C1035  N1055   1.380   .     A
C1035  C1169   1.433   1_455 S
C1036  I1088   2.105   .     S
C1036  N1056   1.377   .     A
C1036  C1102   1.428   .     S
C1037  O1063   1.324   .     A
C1037  C1039   1.486   .     S
C1037  O1061   1.300   .     A
C1038  O1064   1.314   .     A
C1038  C1040   1.492   .     S
C1038  O1062   1.311   .     A
C1039  C1043   1.419   .     A
C1039  C1045   1.390   .     A
C1040  C1044   1.416   .     A
C1040  C1046   1.388   .     A
C1041  O1073   1.375   .     S
C1041  C1049   1.420   .     A
C1041  C1043   1.406   .     A
C1042  O1075   1.382   .     S
C1042  C1044   1.419   .     A
C1042  C1050   1.412   .     A
C1043  I1072   2.133   .     S
C1044  I1071   2.097   .     S
C1045  C1047   1.397   .     A
C1045  H1054   1.070   .     S
C1046  H1053   1.080   .     S
C1046  C1048   1.400   .     A
C1047  C1049   1.418   .     A
C1047  C1051   1.409   .     A
C1048  C1050   1.413   .     A
C1048  C1052   1.405   .     A
C1049  C413    1.420   1_556 S
C1051  C440    1.391   1_556 S
N1055  Zn1065  2.041   .     S
N1056  Zn1066  2.041   .     S
O1057  Zn1065  2.002   .     S
O1058  Zn1066  2.002   .     S
O1059  Zn1066  2.022   .     S
O1060  Zn1065  2.022   .     S
O1061  Zn1065  1.946   .     S
O1062  Zn1066  1.946   .     S
O1063  Zn1066  1.924   .     S
O1064  Zn1065  1.924   .     S
O1067  H1068   0.987   .     S
O1069  H1070   0.990   .     S
O1073  H598    0.989   1_456 S
O1075  H1076   0.989   .     S
O1081  H1082   0.991   .     S
O1083  H1084   0.990   .     S
C1089  O1125   1.306   .     A
C1089  C1100   1.454   .     S
C1089  O1127   1.303   .     A
C1090  O1128   1.299   .     A
C1090  O1126   1.306   .     A
C1090  C1099   1.446   .     S
C1091  C1120   1.403   .     A
C1091  I1145   2.143   .     S
C1091  C1093   1.413   .     A
C1092  C1119   1.408   .     A
C1092  I1146   2.141   .     S
C1092  C1094   1.413   .     A
C1093  O1135   1.378   .     S
C1094  O1137   1.381   .     S
C1094  C506    1.420   1_556 S
C1095  I1147   2.138   .     S
C1095  C1100   1.415   .     A
C1095  C689    1.385   1_565 S
C1096  I1148   2.143   .     S
C1096  C1099   1.403   .     A
C1097  C1099   1.400   .     A
C1097  O1149   1.384   .     S
C1098  O1151   1.384   .     S
C1098  C1100   1.413   .     A
C1098  C688    1.386   1_565 S
C1101  I1153   2.138   .     S
C1101  N1124   1.377   .     A
C1101  C1171   1.433   .     S
C1102  I1154   2.144   .     S
C1102  N1123   1.372   .     A
C1103  I1155   2.145   .     S
C1103  N1123   1.380   .     A
C1104  I1156   2.105   .     S
C1104  N1124   1.377   .     A
C1104  C1170   1.428   .     S
C1105  O1131   1.324   .     A
C1105  C1107   1.486   .     S
C1105  O1129   1.300   .     A
C1106  O1132   1.314   .     A
C1106  C1108   1.492   .     S
C1106  O1130   1.311   .     A
C1107  C1111   1.419   .     A
C1107  C1113   1.390   .     A
C1108  C1112   1.416   .     A
C1108  C1114   1.388   .     A
C1109  O1141   1.375   .     S
C1109  C1117   1.420   .     A
C1109  C1111   1.406   .     A
C1110  O1143   1.382   .     S
C1110  C1112   1.419   .     A
C1110  C1118   1.412   .     A
C1111  I1140   2.133   .     S
C1112  I1139   2.097   .     S
C1113  C1115   1.397   .     A
C1113  H1122   1.070   .     S
C1114  H1121   1.080   .     S
C1114  C1116   1.400   .     A
C1115  C1117   1.418   .     A
C1115  C1119   1.409   .     A
C1116  C1118   1.413   .     A
C1116  C1120   1.405   .     A
C1117  C481    1.420   1_556 S
C1119  C508    1.391   1_556 S
N1123  Zn1133  2.041   .     S
N1124  Zn1134  2.041   .     S
O1125  Zn1133  2.002   .     S
O1126  Zn1134  2.002   .     S
O1127  Zn1134  2.022   .     S
O1128  Zn1133  2.022   .     S
O1129  Zn1133  1.946   .     S
O1130  Zn1134  1.946   .     S
O1131  Zn1134  1.924   .     S
O1132  Zn1133  1.924   .     S
O1135  H1136   0.987   .     S
O1137  H1138   0.990   .     S
O1141  H462    0.989   1_556 S
O1143  H1144   0.989   .     S
O1149  H1150   0.991   .     S
O1151  H1152   0.990   .     S
C1157  O1193   1.306   .     A
C1157  C1168   1.454   .     S
C1157  O1195   1.303   .     A
C1158  O1196   1.299   .     A
C1158  O1194   1.306   .     A
C1158  C1167   1.446   .     S
C1159  C1188   1.403   .     A
C1159  I1213   2.143   .     S
C1159  C1161   1.413   .     A
C1160  C1187   1.408   .     A
C1160  I1214   2.141   .     S
C1160  C1162   1.413   .     A
C1161  O1203   1.378   .     S
C1162  O1205   1.381   .     S
C1162  C574    1.420   1_556 S
C1163  I1215   2.138   .     S
C1163  C1168   1.415   .     A
C1163  C757    1.385   1_565 S
C1164  I1216   2.143   .     S
C1164  C1167   1.403   .     A
C1165  C1167   1.400   .     A
C1165  O1217   1.384   .     S
C1166  O1219   1.384   .     S
C1166  C1168   1.413   .     A
C1166  C756    1.386   1_565 S
C1169  I1221   2.138   .     S
C1169  N1192   1.377   .     A
C1169  C1035   1.433   1_655 S
C1170  I1222   2.144   .     S
C1170  N1191   1.372   .     A
C1171  I1223   2.145   .     S
C1171  N1191   1.380   .     A
C1172  I1224   2.105   .     S
C1172  N1192   1.377   .     A
C1172  C1034   1.428   1_655 S
C1173  O1199   1.324   .     A
C1173  C1175   1.486   .     S
C1173  O1197   1.300   .     A
C1174  O1200   1.314   .     A
C1174  C1176   1.492   .     S
C1174  O1198   1.311   .     A
C1175  C1179   1.419   .     A
C1175  C1181   1.390   .     A
C1176  C1180   1.416   .     A
C1176  C1182   1.388   .     A
C1177  O1209   1.375   .     S
C1177  C1185   1.420   .     A
C1177  C1179   1.406   .     A
C1178  O1211   1.382   .     S
C1178  C1180   1.419   .     A
C1178  C1186   1.412   .     A
C1179  I1208   2.133   .     S
C1180  I1207   2.097   .     S
C1181  C1183   1.397   .     A
C1181  H1190   1.070   .     S
C1182  H1189   1.080   .     S
C1182  C1184   1.400   .     A
C1183  C1185   1.418   .     A
C1183  C1187   1.409   .     A
C1184  C1186   1.413   .     A
C1184  C1188   1.405   .     A
C1185  C549    1.420   1_556 S
C1187  C576    1.391   1_556 S
N1191  Zn1201  2.041   .     S
N1192  Zn1202  2.041   .     S
O1193  Zn1201  2.002   .     S
O1194  Zn1202  2.002   .     S
O1195  Zn1202  2.022   .     S
O1196  Zn1201  2.022   .     S
O1197  Zn1201  1.946   .     S
O1198  Zn1202  1.946   .     S
O1199  Zn1202  1.924   .     S
O1200  Zn1201  1.924   .     S
O1203  H1204   0.987   .     S
O1205  H1206   0.990   .     S
O1209  H530    0.989   1_556 S
H1210  O461    0.989   1_655 S
O1211  H1212   0.989   .     S
O1217  H1218   0.991   .     S
O1219  H1220   0.990   .     S
