data_str_m3_o10_o16_pcu_sym.120
_audit_creation_date              2020-01-03
_audit_creation_method            'Materials Studio'
_symmetry_space_group_name_H-M    'P1'
_symmetry_Int_Tables_number       1
_symmetry_cell_setting            triclinic
loop_
_symmetry_equiv_pos_as_xyz
  x,y,z
_cell_length_a                    23.3851
_cell_length_b                    25.7761
_cell_length_c                    24.7712
_cell_angle_alpha                 92.2285
_cell_angle_beta                  102.6999
_cell_angle_gamma                 93.7218
loop_
_atom_site_label
_atom_site_type_symbol
_atom_site_fract_x
_atom_site_fract_y
_atom_site_fract_z
_atom_site_U_iso_or_equiv
_atom_site_adp_type
_atom_site_occupancy
O1     O     0.29769   0.24629   0.25357   0.00000  Uiso   1.00
O2     O     0.05742   0.23704   0.24423   0.00000  Uiso   1.00
C3     C     0.01536   0.26480   0.25041   0.00000  Uiso   1.00
O4     O     0.31490   0.17358   0.33380   0.00000  Uiso   1.00
O5     O     0.07463   0.16433   0.32446   0.00000  Uiso   1.00
C6     C     0.03639   0.16748   0.35466   0.00000  Uiso   1.00
Zn7    Zn    0.27119   0.17284   0.25623   0.00000  Uiso   1.00
Zn8    Zn    0.06214   0.16049   0.24376   0.00000  Uiso   1.00
O9     O     0.27592   0.09629   0.25576   0.00000  Uiso   1.00
O10    O     0.03565   0.08704   0.24643   0.00000  Uiso   1.00
O11    O     0.25870   0.16901   0.17554   0.00000  Uiso   1.00
O12    O     0.01843   0.15976   0.16620   0.00000  Uiso   1.00
C13    C     0.31943   0.06860   0.25319   0.00000  Uiso   1.00
C14    C     0.29573   0.15667   0.14616   0.00000  Uiso   1.00
C15    C     0.28294   0.10631   0.49858   0.00000  Uiso   1.00
H16    H     0.02234   0.12330   0.06846   0.00000  Uiso   1.00
H17    H     0.21792   0.07868   0.39589   0.00000  Uiso   1.00
H18    H     0.31018   0.09271   0.47159   0.00000  Uiso   1.00
C19    C     0.27219   0.13636   0.08940   0.00000  Uiso   1.00
C20    C     0.03083   0.19721   0.44839   0.00000  Uiso   1.00
C21    C     0.05723   0.20677   0.00406   0.00000  Uiso   1.00
C22    C     0.10949   0.18501   0.02627   0.00000  Uiso   1.00
C23    C     0.13501   0.15139   0.49334   0.00000  Uiso   1.00
C24    C     0.10882   0.14161   0.43686   0.00000  Uiso   1.00
C25    C     0.18922   0.13106   0.01428   0.00000  Uiso   1.00
C26    C     0.22289   0.11200   0.47816   0.00000  Uiso   1.00
C27    C     0.19511   0.09826   0.42347   0.00000  Uiso   1.00
C28    C     0.13679   0.10918   0.40441   0.00000  Uiso   1.00
C29    C     0.21118   0.12825   0.07067   0.00000  Uiso   1.00
C30    C     0.30852   0.12271   0.05362   0.00000  Uiso   1.00
C31    C     0.05727   0.16640   0.41427   0.00000  Uiso   1.00
H32    H     0.32491   0.21650   0.43130   0.00000  Uiso   1.00
H33    H     0.13110   0.19687   0.06854   0.00000  Uiso   1.00
H34    H     0.03808   0.23240   0.02971   0.00000  Uiso   1.00
H35    H     0.11539   0.09376   0.36339   0.00000  Uiso   1.00
C36    C     0.02621   0.31902   0.25859   0.00000  Uiso   1.00
C37    C     0.31240   0.01406   0.25246   0.00000  Uiso   1.00
H38    H     0.26739   0.33013   0.24139   0.00000  Uiso   1.00
N39    N     0.14493   0.15223   0.23542   0.00000  Uiso   1.00
H40    H     0.15722   0.12220   0.21312   0.00000  Uiso   1.00
N41    N     0.18840   0.18110   0.26457   0.00000  Uiso   1.00
H42    H     0.17630   0.20979   0.28897   0.00000  Uiso   1.00
C43    C     0.17315   0.10120   0.10582   0.00000  Uiso   1.00
C44    C     0.13601   0.05288   0.07526   0.00000  Uiso   1.00
C45    C     0.10514   0.02252   0.11369   0.00000  Uiso   1.00
H46    H     0.13819   0.00618   0.14665   0.00000  Uiso   1.00
H47    H     0.07778   0.04822   0.13281   0.00000  Uiso   1.00
H48    H     0.07618   0.32313   0.08968   0.00000  Uiso   1.00
H49    H     0.10185   0.06469   0.04018   0.00000  Uiso   1.00
H50    H     0.16473   0.02676   0.05846   0.00000  Uiso   1.00
H51    H     0.20178   0.08721   0.14355   0.00000  Uiso   1.00
H52    H     0.14379   0.12863   0.11914   0.00000  Uiso   1.00
N53    N     0.08582   0.00623   0.28073   0.00000  Uiso   1.00
O54    O     0.11058   0.33017   0.33141   0.00000  Uiso   1.00
O55    O     0.11918   0.01875   0.24689   0.00000  Uiso   1.00
O56    O     0.63102   0.24629   0.25357   0.00000  Uiso   1.00
O57    O     0.39075   0.23704   0.24423   0.00000  Uiso   1.00
C58    C     0.34869   0.26480   0.25041   0.00000  Uiso   1.00
O59    O     0.64823   0.17358   0.33380   0.00000  Uiso   1.00
O60    O     0.40796   0.16433   0.32446   0.00000  Uiso   1.00
C61    C     0.36972   0.16748   0.35466   0.00000  Uiso   1.00
Zn62   Zn    0.60453   0.17284   0.25623   0.00000  Uiso   1.00
Zn63   Zn    0.39547   0.16049   0.24376   0.00000  Uiso   1.00
O64    O     0.60925   0.09629   0.25576   0.00000  Uiso   1.00
O65    O     0.36898   0.08704   0.24643   0.00000  Uiso   1.00
O66    O     0.59204   0.16901   0.17554   0.00000  Uiso   1.00
O67    O     0.35177   0.15976   0.16620   0.00000  Uiso   1.00
C68    C     0.65277   0.06860   0.25319   0.00000  Uiso   1.00
C69    C     0.62906   0.15667   0.14616   0.00000  Uiso   1.00
C70    C     0.61627   0.10631   0.49858   0.00000  Uiso   1.00
H71    H     0.35568   0.12330   0.06846   0.00000  Uiso   1.00
H72    H     0.55125   0.07868   0.39589   0.00000  Uiso   1.00
H73    H     0.64352   0.09271   0.47159   0.00000  Uiso   1.00
C74    C     0.60552   0.13636   0.08940   0.00000  Uiso   1.00
C75    C     0.36417   0.19721   0.44839   0.00000  Uiso   1.00
C76    C     0.39056   0.20677   0.00406   0.00000  Uiso   1.00
C77    C     0.44283   0.18501   0.02627   0.00000  Uiso   1.00
C78    C     0.46834   0.15139   0.49334   0.00000  Uiso   1.00
C79    C     0.44215   0.14161   0.43686   0.00000  Uiso   1.00
C80    C     0.52256   0.13106   0.01428   0.00000  Uiso   1.00
C81    C     0.55622   0.11200   0.47816   0.00000  Uiso   1.00
C82    C     0.52844   0.09826   0.42347   0.00000  Uiso   1.00
C83    C     0.47013   0.10918   0.40441   0.00000  Uiso   1.00
C84    C     0.54451   0.12825   0.07067   0.00000  Uiso   1.00
C85    C     0.64186   0.12271   0.05362   0.00000  Uiso   1.00
C86    C     0.39061   0.16640   0.41427   0.00000  Uiso   1.00
H87    H     0.65824   0.21650   0.43130   0.00000  Uiso   1.00
H88    H     0.46443   0.19687   0.06854   0.00000  Uiso   1.00
H89    H     0.37141   0.23240   0.02971   0.00000  Uiso   1.00
H90    H     0.44873   0.09376   0.36339   0.00000  Uiso   1.00
C91    C     0.35955   0.31902   0.25859   0.00000  Uiso   1.00
C92    C     0.64573   0.01406   0.25246   0.00000  Uiso   1.00
H93    H     0.60072   0.33013   0.24139   0.00000  Uiso   1.00
N94    N     0.47827   0.15223   0.23542   0.00000  Uiso   1.00
H95    H     0.49055   0.12220   0.21312   0.00000  Uiso   1.00
N96    N     0.52173   0.18110   0.26457   0.00000  Uiso   1.00
H97    H     0.50963   0.20979   0.28897   0.00000  Uiso   1.00
C98    C     0.50648   0.10120   0.10582   0.00000  Uiso   1.00
C99    C     0.46934   0.05288   0.07526   0.00000  Uiso   1.00
C100   C     0.43847   0.02252   0.11369   0.00000  Uiso   1.00
H101   H     0.47153   0.00618   0.14665   0.00000  Uiso   1.00
H102   H     0.41112   0.04822   0.13281   0.00000  Uiso   1.00
H103   H     0.40951   0.32313   0.08968   0.00000  Uiso   1.00
H104   H     0.43518   0.06469   0.04018   0.00000  Uiso   1.00
H105   H     0.49806   0.02676   0.05846   0.00000  Uiso   1.00
H106   H     0.53511   0.08721   0.14355   0.00000  Uiso   1.00
H107   H     0.47713   0.12863   0.11914   0.00000  Uiso   1.00
N108   N     0.41916   0.00623   0.28073   0.00000  Uiso   1.00
O109   O     0.44392   0.33017   0.33141   0.00000  Uiso   1.00
O110   O     0.45251   0.01875   0.24689   0.00000  Uiso   1.00
O111   O     0.96435   0.24629   0.25357   0.00000  Uiso   1.00
O112   O     0.72408   0.23704   0.24423   0.00000  Uiso   1.00
C113   C     0.68202   0.26480   0.25041   0.00000  Uiso   1.00
O114   O     0.98157   0.17358   0.33380   0.00000  Uiso   1.00
O115   O     0.74130   0.16433   0.32446   0.00000  Uiso   1.00
C116   C     0.70305   0.16748   0.35466   0.00000  Uiso   1.00
Zn117  Zn    0.93786   0.17284   0.25623   0.00000  Uiso   1.00
Zn118  Zn    0.72881   0.16049   0.24376   0.00000  Uiso   1.00
O119   O     0.94258   0.09629   0.25576   0.00000  Uiso   1.00
O120   O     0.70231   0.08704   0.24643   0.00000  Uiso   1.00
O121   O     0.92537   0.16901   0.17554   0.00000  Uiso   1.00
O122   O     0.68510   0.15976   0.16620   0.00000  Uiso   1.00
C123   C     0.98610   0.06860   0.25319   0.00000  Uiso   1.00
C124   C     0.96240   0.15667   0.14616   0.00000  Uiso   1.00
C125   C     0.94961   0.10631   0.49858   0.00000  Uiso   1.00
H126   H     0.68901   0.12330   0.06846   0.00000  Uiso   1.00
H127   H     0.88459   0.07868   0.39589   0.00000  Uiso   1.00
H128   H     0.97685   0.09271   0.47159   0.00000  Uiso   1.00
C129   C     0.93885   0.13636   0.08940   0.00000  Uiso   1.00
C130   C     0.69750   0.19721   0.44839   0.00000  Uiso   1.00
C131   C     0.72390   0.20677   0.00406   0.00000  Uiso   1.00
C132   C     0.77616   0.18501   0.02627   0.00000  Uiso   1.00
C133   C     0.80167   0.15139   0.49334   0.00000  Uiso   1.00
C134   C     0.77549   0.14161   0.43686   0.00000  Uiso   1.00
C135   C     0.85589   0.13106   0.01428   0.00000  Uiso   1.00
C136   C     0.88956   0.11200   0.47816   0.00000  Uiso   1.00
C137   C     0.86177   0.09826   0.42347   0.00000  Uiso   1.00
C138   C     0.80346   0.10918   0.40441   0.00000  Uiso   1.00
C139   C     0.87785   0.12825   0.07067   0.00000  Uiso   1.00
C140   C     0.97519   0.12271   0.05362   0.00000  Uiso   1.00
C141   C     0.72394   0.16640   0.41427   0.00000  Uiso   1.00
H142   H     0.99158   0.21650   0.43130   0.00000  Uiso   1.00
H143   H     0.79777   0.19687   0.06854   0.00000  Uiso   1.00
H144   H     0.70474   0.23240   0.02971   0.00000  Uiso   1.00
H145   H     0.78206   0.09376   0.36339   0.00000  Uiso   1.00
C146   C     0.69288   0.31902   0.25859   0.00000  Uiso   1.00
C147   C     0.97907   0.01406   0.25246   0.00000  Uiso   1.00
H148   H     0.93405   0.33013   0.24139   0.00000  Uiso   1.00
N149   N     0.81160   0.15223   0.23542   0.00000  Uiso   1.00
H150   H     0.82389   0.12220   0.21312   0.00000  Uiso   1.00
N151   N     0.85507   0.18110   0.26457   0.00000  Uiso   1.00
H152   H     0.84297   0.20979   0.28897   0.00000  Uiso   1.00
C153   C     0.83981   0.10120   0.10582   0.00000  Uiso   1.00
C154   C     0.80268   0.05288   0.07526   0.00000  Uiso   1.00
C155   C     0.77181   0.02252   0.11369   0.00000  Uiso   1.00
H156   H     0.80486   0.00618   0.14665   0.00000  Uiso   1.00
H157   H     0.74445   0.04822   0.13281   0.00000  Uiso   1.00
H158   H     0.74284   0.32313   0.08968   0.00000  Uiso   1.00
H159   H     0.76851   0.06469   0.04018   0.00000  Uiso   1.00
H160   H     0.83140   0.02676   0.05846   0.00000  Uiso   1.00
H161   H     0.86844   0.08721   0.14355   0.00000  Uiso   1.00
H162   H     0.81046   0.12863   0.11914   0.00000  Uiso   1.00
N163   N     0.75249   0.00623   0.28073   0.00000  Uiso   1.00
O164   O     0.77725   0.33017   0.33141   0.00000  Uiso   1.00
O165   O     0.78584   0.01875   0.24689   0.00000  Uiso   1.00
O166   O     0.29769   0.57963   0.25357   0.00000  Uiso   1.00
O167   O     0.05742   0.57038   0.24423   0.00000  Uiso   1.00
C168   C     0.01536   0.59813   0.25041   0.00000  Uiso   1.00
O169   O     0.31490   0.50691   0.33380   0.00000  Uiso   1.00
O170   O     0.07463   0.49766   0.32446   0.00000  Uiso   1.00
C171   C     0.03639   0.50081   0.35466   0.00000  Uiso   1.00
Zn172  Zn    0.27119   0.50618   0.25623   0.00000  Uiso   1.00
Zn173  Zn    0.06214   0.49382   0.24376   0.00000  Uiso   1.00
O174   O     0.27592   0.42962   0.25576   0.00000  Uiso   1.00
O175   O     0.03565   0.42037   0.24643   0.00000  Uiso   1.00
O176   O     0.25870   0.50234   0.17554   0.00000  Uiso   1.00
O177   O     0.01843   0.49309   0.16620   0.00000  Uiso   1.00
C178   C     0.31943   0.40193   0.25319   0.00000  Uiso   1.00
C179   C     0.29573   0.49000   0.14616   0.00000  Uiso   1.00
C180   C     0.28294   0.43964   0.49858   0.00000  Uiso   1.00
H181   H     0.02234   0.45663   0.06846   0.00000  Uiso   1.00
H182   H     0.21792   0.41201   0.39589   0.00000  Uiso   1.00
H183   H     0.31018   0.42604   0.47159   0.00000  Uiso   1.00
C184   C     0.27219   0.46970   0.08940   0.00000  Uiso   1.00
C185   C     0.03083   0.53054   0.44839   0.00000  Uiso   1.00
C186   C     0.05723   0.54010   0.00406   0.00000  Uiso   1.00
C187   C     0.10949   0.51834   0.02627   0.00000  Uiso   1.00
C188   C     0.13501   0.48472   0.49334   0.00000  Uiso   1.00
C189   C     0.10882   0.47494   0.43686   0.00000  Uiso   1.00
C190   C     0.18922   0.46440   0.01428   0.00000  Uiso   1.00
C191   C     0.22289   0.44533   0.47816   0.00000  Uiso   1.00
C192   C     0.19511   0.43159   0.42347   0.00000  Uiso   1.00
C193   C     0.13679   0.44251   0.40441   0.00000  Uiso   1.00
C194   C     0.21118   0.46158   0.07067   0.00000  Uiso   1.00
C195   C     0.30852   0.45604   0.05362   0.00000  Uiso   1.00
C196   C     0.05727   0.49973   0.41427   0.00000  Uiso   1.00
H197   H     0.32491   0.54983   0.43130   0.00000  Uiso   1.00
H198   H     0.13110   0.53021   0.06854   0.00000  Uiso   1.00
H199   H     0.03808   0.56574   0.02971   0.00000  Uiso   1.00
H200   H     0.11539   0.42710   0.36339   0.00000  Uiso   1.00
C201   C     0.02621   0.65235   0.25859   0.00000  Uiso   1.00
C202   C     0.31240   0.34739   0.25246   0.00000  Uiso   1.00
H203   H     0.26739   0.66346   0.24139   0.00000  Uiso   1.00
N204   N     0.14493   0.48556   0.23542   0.00000  Uiso   1.00
H205   H     0.15722   0.45553   0.21312   0.00000  Uiso   1.00
N206   N     0.18840   0.51444   0.26457   0.00000  Uiso   1.00
H207   H     0.17630   0.54312   0.28897   0.00000  Uiso   1.00
C208   C     0.17315   0.43454   0.10582   0.00000  Uiso   1.00
C209   C     0.13601   0.38621   0.07526   0.00000  Uiso   1.00
C210   C     0.10514   0.35586   0.11369   0.00000  Uiso   1.00
H211   H     0.13819   0.33951   0.14665   0.00000  Uiso   1.00
H212   H     0.07778   0.38155   0.13281   0.00000  Uiso   1.00
H213   H     0.07618   0.65646   0.08968   0.00000  Uiso   1.00
H214   H     0.10185   0.39802   0.04018   0.00000  Uiso   1.00
H215   H     0.16473   0.36009   0.05846   0.00000  Uiso   1.00
H216   H     0.20178   0.42055   0.14355   0.00000  Uiso   1.00
H217   H     0.14379   0.46197   0.11914   0.00000  Uiso   1.00
N218   N     0.08582   0.33957   0.28073   0.00000  Uiso   1.00
O219   O     0.11058   0.66351   0.33141   0.00000  Uiso   1.00
O220   O     0.11918   0.35208   0.24689   0.00000  Uiso   1.00
O221   O     0.63102   0.57963   0.25357   0.00000  Uiso   1.00
O222   O     0.39075   0.57038   0.24423   0.00000  Uiso   1.00
C223   C     0.34869   0.59813   0.25041   0.00000  Uiso   1.00
O224   O     0.64823   0.50691   0.33380   0.00000  Uiso   1.00
O225   O     0.40796   0.49766   0.32446   0.00000  Uiso   1.00
C226   C     0.36972   0.50081   0.35466   0.00000  Uiso   1.00
Zn227  Zn    0.60453   0.50618   0.25623   0.00000  Uiso   1.00
Zn228  Zn    0.39547   0.49382   0.24376   0.00000  Uiso   1.00
O229   O     0.60925   0.42962   0.25576   0.00000  Uiso   1.00
O230   O     0.36898   0.42037   0.24643   0.00000  Uiso   1.00
O231   O     0.59204   0.50234   0.17554   0.00000  Uiso   1.00
O232   O     0.35177   0.49309   0.16620   0.00000  Uiso   1.00
C233   C     0.65277   0.40193   0.25319   0.00000  Uiso   1.00
C234   C     0.62906   0.49000   0.14616   0.00000  Uiso   1.00
C235   C     0.61627   0.43964   0.49858   0.00000  Uiso   1.00
H236   H     0.35568   0.45663   0.06846   0.00000  Uiso   1.00
H237   H     0.55125   0.41201   0.39589   0.00000  Uiso   1.00
H238   H     0.64352   0.42604   0.47159   0.00000  Uiso   1.00
C239   C     0.60552   0.46970   0.08940   0.00000  Uiso   1.00
C240   C     0.36417   0.53054   0.44839   0.00000  Uiso   1.00
C241   C     0.39056   0.54010   0.00406   0.00000  Uiso   1.00
C242   C     0.44283   0.51834   0.02627   0.00000  Uiso   1.00
C243   C     0.46834   0.48472   0.49334   0.00000  Uiso   1.00
C244   C     0.44215   0.47494   0.43686   0.00000  Uiso   1.00
C245   C     0.52256   0.46440   0.01428   0.00000  Uiso   1.00
C246   C     0.55622   0.44533   0.47816   0.00000  Uiso   1.00
C247   C     0.52844   0.43159   0.42347   0.00000  Uiso   1.00
C248   C     0.47013   0.44251   0.40441   0.00000  Uiso   1.00
C249   C     0.54451   0.46158   0.07067   0.00000  Uiso   1.00
C250   C     0.64186   0.45604   0.05362   0.00000  Uiso   1.00
C251   C     0.39061   0.49973   0.41427   0.00000  Uiso   1.00
H252   H     0.65824   0.54983   0.43130   0.00000  Uiso   1.00
H253   H     0.46443   0.53021   0.06854   0.00000  Uiso   1.00
H254   H     0.37141   0.56574   0.02971   0.00000  Uiso   1.00
H255   H     0.44873   0.42710   0.36339   0.00000  Uiso   1.00
C256   C     0.35955   0.65235   0.25859   0.00000  Uiso   1.00
C257   C     0.64573   0.34739   0.25246   0.00000  Uiso   1.00
H258   H     0.60072   0.66346   0.24139   0.00000  Uiso   1.00
N259   N     0.47827   0.48556   0.23542   0.00000  Uiso   1.00
H260   H     0.49055   0.45553   0.21312   0.00000  Uiso   1.00
N261   N     0.52173   0.51444   0.26457   0.00000  Uiso   1.00
H262   H     0.50963   0.54312   0.28897   0.00000  Uiso   1.00
C263   C     0.50648   0.43454   0.10582   0.00000  Uiso   1.00
C264   C     0.46934   0.38621   0.07526   0.00000  Uiso   1.00
C265   C     0.43847   0.35586   0.11369   0.00000  Uiso   1.00
H266   H     0.47153   0.33951   0.14665   0.00000  Uiso   1.00
H267   H     0.41112   0.38155   0.13281   0.00000  Uiso   1.00
H268   H     0.40951   0.65646   0.08968   0.00000  Uiso   1.00
H269   H     0.43518   0.39802   0.04018   0.00000  Uiso   1.00
H270   H     0.49806   0.36009   0.05846   0.00000  Uiso   1.00
H271   H     0.53511   0.42055   0.14355   0.00000  Uiso   1.00
H272   H     0.47713   0.46197   0.11914   0.00000  Uiso   1.00
N273   N     0.41916   0.33957   0.28073   0.00000  Uiso   1.00
O274   O     0.44392   0.66351   0.33141   0.00000  Uiso   1.00
O275   O     0.45251   0.35208   0.24689   0.00000  Uiso   1.00
O276   O     0.96435   0.57963   0.25357   0.00000  Uiso   1.00
O277   O     0.72408   0.57038   0.24423   0.00000  Uiso   1.00
C278   C     0.68202   0.59813   0.25041   0.00000  Uiso   1.00
O279   O     0.98157   0.50691   0.33380   0.00000  Uiso   1.00
O280   O     0.74130   0.49766   0.32446   0.00000  Uiso   1.00
C281   C     0.70305   0.50081   0.35466   0.00000  Uiso   1.00
Zn282  Zn    0.93786   0.50618   0.25623   0.00000  Uiso   1.00
Zn283  Zn    0.72881   0.49382   0.24376   0.00000  Uiso   1.00
O284   O     0.94258   0.42962   0.25576   0.00000  Uiso   1.00
O285   O     0.70231   0.42037   0.24643   0.00000  Uiso   1.00
O286   O     0.92537   0.50234   0.17554   0.00000  Uiso   1.00
O287   O     0.68510   0.49309   0.16620   0.00000  Uiso   1.00
C288   C     0.98610   0.40193   0.25319   0.00000  Uiso   1.00
C289   C     0.96240   0.49000   0.14616   0.00000  Uiso   1.00
C290   C     0.94961   0.43964   0.49858   0.00000  Uiso   1.00
H291   H     0.68901   0.45663   0.06846   0.00000  Uiso   1.00
H292   H     0.88459   0.41201   0.39589   0.00000  Uiso   1.00
H293   H     0.97685   0.42604   0.47159   0.00000  Uiso   1.00
C294   C     0.93885   0.46970   0.08940   0.00000  Uiso   1.00
C295   C     0.69750   0.53054   0.44839   0.00000  Uiso   1.00
C296   C     0.72390   0.54010   0.00406   0.00000  Uiso   1.00
C297   C     0.77616   0.51834   0.02627   0.00000  Uiso   1.00
C298   C     0.80167   0.48472   0.49334   0.00000  Uiso   1.00
C299   C     0.77549   0.47494   0.43686   0.00000  Uiso   1.00
C300   C     0.85589   0.46440   0.01428   0.00000  Uiso   1.00
C301   C     0.88956   0.44533   0.47816   0.00000  Uiso   1.00
C302   C     0.86177   0.43159   0.42347   0.00000  Uiso   1.00
C303   C     0.80346   0.44251   0.40441   0.00000  Uiso   1.00
C304   C     0.87785   0.46158   0.07067   0.00000  Uiso   1.00
C305   C     0.97519   0.45604   0.05362   0.00000  Uiso   1.00
C306   C     0.72394   0.49973   0.41427   0.00000  Uiso   1.00
H307   H     0.99158   0.54983   0.43130   0.00000  Uiso   1.00
H308   H     0.79777   0.53021   0.06854   0.00000  Uiso   1.00
H309   H     0.70474   0.56574   0.02971   0.00000  Uiso   1.00
H310   H     0.78206   0.42710   0.36339   0.00000  Uiso   1.00
C311   C     0.69288   0.65235   0.25859   0.00000  Uiso   1.00
C312   C     0.97907   0.34739   0.25246   0.00000  Uiso   1.00
H313   H     0.93405   0.66346   0.24139   0.00000  Uiso   1.00
N314   N     0.81160   0.48556   0.23542   0.00000  Uiso   1.00
H315   H     0.82389   0.45553   0.21312   0.00000  Uiso   1.00
N316   N     0.85507   0.51444   0.26457   0.00000  Uiso   1.00
H317   H     0.84297   0.54312   0.28897   0.00000  Uiso   1.00
C318   C     0.83981   0.43454   0.10582   0.00000  Uiso   1.00
C319   C     0.80268   0.38621   0.07526   0.00000  Uiso   1.00
C320   C     0.77181   0.35586   0.11369   0.00000  Uiso   1.00
H321   H     0.80486   0.33951   0.14665   0.00000  Uiso   1.00
H322   H     0.74445   0.38155   0.13281   0.00000  Uiso   1.00
H323   H     0.74284   0.65646   0.08968   0.00000  Uiso   1.00
H324   H     0.76851   0.39802   0.04018   0.00000  Uiso   1.00
H325   H     0.83140   0.36009   0.05846   0.00000  Uiso   1.00
H326   H     0.86844   0.42055   0.14355   0.00000  Uiso   1.00
H327   H     0.81046   0.46197   0.11914   0.00000  Uiso   1.00
N328   N     0.75249   0.33957   0.28073   0.00000  Uiso   1.00
O329   O     0.77725   0.66351   0.33141   0.00000  Uiso   1.00
O330   O     0.78584   0.35208   0.24689   0.00000  Uiso   1.00
O331   O     0.29769   0.91296   0.25357   0.00000  Uiso   1.00
O332   O     0.05742   0.90371   0.24423   0.00000  Uiso   1.00
C333   C     0.01536   0.93146   0.25041   0.00000  Uiso   1.00
O334   O     0.31490   0.84024   0.33380   0.00000  Uiso   1.00
O335   O     0.07463   0.83099   0.32446   0.00000  Uiso   1.00
C336   C     0.03639   0.83415   0.35466   0.00000  Uiso   1.00
Zn337  Zn    0.27119   0.83951   0.25623   0.00000  Uiso   1.00
Zn338  Zn    0.06214   0.82716   0.24376   0.00000  Uiso   1.00
O339   O     0.27592   0.76296   0.25576   0.00000  Uiso   1.00
O340   O     0.03565   0.75371   0.24643   0.00000  Uiso   1.00
O341   O     0.25870   0.83567   0.17554   0.00000  Uiso   1.00
O342   O     0.01843   0.82642   0.16620   0.00000  Uiso   1.00
C343   C     0.31943   0.73527   0.25319   0.00000  Uiso   1.00
C344   C     0.29573   0.82334   0.14616   0.00000  Uiso   1.00
C345   C     0.28294   0.77298   0.49858   0.00000  Uiso   1.00
H346   H     0.02234   0.78996   0.06846   0.00000  Uiso   1.00
H347   H     0.21792   0.74535   0.39589   0.00000  Uiso   1.00
H348   H     0.31018   0.75937   0.47159   0.00000  Uiso   1.00
C349   C     0.27219   0.80303   0.08940   0.00000  Uiso   1.00
C350   C     0.03083   0.86388   0.44839   0.00000  Uiso   1.00
C351   C     0.05723   0.87343   0.00406   0.00000  Uiso   1.00
C352   C     0.10949   0.85168   0.02627   0.00000  Uiso   1.00
C353   C     0.13501   0.81806   0.49334   0.00000  Uiso   1.00
C354   C     0.10882   0.80828   0.43686   0.00000  Uiso   1.00
C355   C     0.18922   0.79773   0.01428   0.00000  Uiso   1.00
C356   C     0.22289   0.77866   0.47816   0.00000  Uiso   1.00
C357   C     0.19511   0.76493   0.42347   0.00000  Uiso   1.00
C358   C     0.13679   0.77584   0.40441   0.00000  Uiso   1.00
C359   C     0.21118   0.79491   0.07067   0.00000  Uiso   1.00
C360   C     0.30852   0.78937   0.05362   0.00000  Uiso   1.00
C361   C     0.05727   0.83307   0.41427   0.00000  Uiso   1.00
H362   H     0.32491   0.88317   0.43130   0.00000  Uiso   1.00
H363   H     0.13110   0.86354   0.06854   0.00000  Uiso   1.00
H364   H     0.03808   0.89907   0.02971   0.00000  Uiso   1.00
H365   H     0.11539   0.76043   0.36339   0.00000  Uiso   1.00
C366   C     0.02621   0.98569   0.25859   0.00000  Uiso   1.00
C367   C     0.31240   0.68073   0.25246   0.00000  Uiso   1.00
H368   H     0.26739   0.99679   0.24139   0.00000  Uiso   1.00
N369   N     0.14493   0.81890   0.23542   0.00000  Uiso   1.00
H370   H     0.15722   0.78886   0.21312   0.00000  Uiso   1.00
N371   N     0.18840   0.84777   0.26457   0.00000  Uiso   1.00
H372   H     0.17630   0.87646   0.28897   0.00000  Uiso   1.00
C373   C     0.17315   0.76787   0.10582   0.00000  Uiso   1.00
C374   C     0.13601   0.71954   0.07526   0.00000  Uiso   1.00
C375   C     0.10514   0.68919   0.11369   0.00000  Uiso   1.00
H376   H     0.13819   0.67284   0.14665   0.00000  Uiso   1.00
H377   H     0.07778   0.71488   0.13281   0.00000  Uiso   1.00
H378   H     0.07618   0.98979   0.08968   0.00000  Uiso   1.00
H379   H     0.10185   0.73136   0.04018   0.00000  Uiso   1.00
H380   H     0.16473   0.69342   0.05846   0.00000  Uiso   1.00
H381   H     0.20178   0.75388   0.14355   0.00000  Uiso   1.00
H382   H     0.14379   0.79530   0.11914   0.00000  Uiso   1.00
N383   N     0.08582   0.67290   0.28073   0.00000  Uiso   1.00
O384   O     0.11058   0.99684   0.33141   0.00000  Uiso   1.00
O385   O     0.11918   0.68541   0.24689   0.00000  Uiso   1.00
O386   O     0.63102   0.91296   0.25357   0.00000  Uiso   1.00
O387   O     0.39075   0.90371   0.24423   0.00000  Uiso   1.00
C388   C     0.34869   0.93146   0.25041   0.00000  Uiso   1.00
O389   O     0.64823   0.84024   0.33380   0.00000  Uiso   1.00
O390   O     0.40796   0.83099   0.32446   0.00000  Uiso   1.00
C391   C     0.36972   0.83415   0.35466   0.00000  Uiso   1.00
Zn392  Zn    0.60453   0.83951   0.25623   0.00000  Uiso   1.00
Zn393  Zn    0.39547   0.82716   0.24376   0.00000  Uiso   1.00
O394   O     0.60925   0.76296   0.25576   0.00000  Uiso   1.00
O395   O     0.36898   0.75371   0.24643   0.00000  Uiso   1.00
O396   O     0.59204   0.83567   0.17554   0.00000  Uiso   1.00
O397   O     0.35177   0.82642   0.16620   0.00000  Uiso   1.00
C398   C     0.65277   0.73527   0.25319   0.00000  Uiso   1.00
C399   C     0.62906   0.82334   0.14616   0.00000  Uiso   1.00
C400   C     0.61627   0.77298   0.49858   0.00000  Uiso   1.00
H401   H     0.35568   0.78996   0.06846   0.00000  Uiso   1.00
H402   H     0.55125   0.74535   0.39589   0.00000  Uiso   1.00
H403   H     0.64352   0.75937   0.47159   0.00000  Uiso   1.00
C404   C     0.60552   0.80303   0.08940   0.00000  Uiso   1.00
C405   C     0.36417   0.86388   0.44839   0.00000  Uiso   1.00
C406   C     0.39056   0.87343   0.00406   0.00000  Uiso   1.00
C407   C     0.44283   0.85168   0.02627   0.00000  Uiso   1.00
C408   C     0.46834   0.81806   0.49334   0.00000  Uiso   1.00
C409   C     0.44215   0.80828   0.43686   0.00000  Uiso   1.00
C410   C     0.52256   0.79773   0.01428   0.00000  Uiso   1.00
C411   C     0.55622   0.77866   0.47816   0.00000  Uiso   1.00
C412   C     0.52844   0.76493   0.42347   0.00000  Uiso   1.00
C413   C     0.47013   0.77584   0.40441   0.00000  Uiso   1.00
C414   C     0.54451   0.79491   0.07067   0.00000  Uiso   1.00
C415   C     0.64186   0.78937   0.05362   0.00000  Uiso   1.00
C416   C     0.39061   0.83307   0.41427   0.00000  Uiso   1.00
H417   H     0.65824   0.88317   0.43130   0.00000  Uiso   1.00
H418   H     0.46443   0.86354   0.06854   0.00000  Uiso   1.00
H419   H     0.37141   0.89907   0.02971   0.00000  Uiso   1.00
H420   H     0.44873   0.76043   0.36339   0.00000  Uiso   1.00
C421   C     0.35955   0.98569   0.25859   0.00000  Uiso   1.00
C422   C     0.64573   0.68073   0.25246   0.00000  Uiso   1.00
H423   H     0.60072   0.99679   0.24139   0.00000  Uiso   1.00
N424   N     0.47827   0.81890   0.23542   0.00000  Uiso   1.00
H425   H     0.49055   0.78886   0.21312   0.00000  Uiso   1.00
N426   N     0.52173   0.84777   0.26457   0.00000  Uiso   1.00
H427   H     0.50963   0.87646   0.28897   0.00000  Uiso   1.00
C428   C     0.50648   0.76787   0.10582   0.00000  Uiso   1.00
C429   C     0.46934   0.71954   0.07526   0.00000  Uiso   1.00
C430   C     0.43847   0.68919   0.11369   0.00000  Uiso   1.00
H431   H     0.47153   0.67284   0.14665   0.00000  Uiso   1.00
H432   H     0.41112   0.71488   0.13281   0.00000  Uiso   1.00
H433   H     0.40951   0.98979   0.08968   0.00000  Uiso   1.00
H434   H     0.43518   0.73136   0.04018   0.00000  Uiso   1.00
H435   H     0.49806   0.69342   0.05846   0.00000  Uiso   1.00
H436   H     0.53511   0.75388   0.14355   0.00000  Uiso   1.00
H437   H     0.47713   0.79530   0.11914   0.00000  Uiso   1.00
N438   N     0.41916   0.67290   0.28073   0.00000  Uiso   1.00
O439   O     0.44392   0.99684   0.33141   0.00000  Uiso   1.00
O440   O     0.45251   0.68541   0.24689   0.00000  Uiso   1.00
O441   O     0.96435   0.91296   0.25357   0.00000  Uiso   1.00
O442   O     0.72408   0.90371   0.24423   0.00000  Uiso   1.00
C443   C     0.68202   0.93146   0.25041   0.00000  Uiso   1.00
O444   O     0.98157   0.84024   0.33380   0.00000  Uiso   1.00
O445   O     0.74130   0.83099   0.32446   0.00000  Uiso   1.00
C446   C     0.70305   0.83415   0.35466   0.00000  Uiso   1.00
Zn447  Zn    0.93786   0.83951   0.25623   0.00000  Uiso   1.00
Zn448  Zn    0.72881   0.82716   0.24376   0.00000  Uiso   1.00
O449   O     0.94258   0.76296   0.25576   0.00000  Uiso   1.00
O450   O     0.70231   0.75371   0.24643   0.00000  Uiso   1.00
O451   O     0.92537   0.83567   0.17554   0.00000  Uiso   1.00
O452   O     0.68510   0.82642   0.16620   0.00000  Uiso   1.00
C453   C     0.98610   0.73527   0.25319   0.00000  Uiso   1.00
C454   C     0.96240   0.82334   0.14616   0.00000  Uiso   1.00
C455   C     0.94961   0.77298   0.49858   0.00000  Uiso   1.00
H456   H     0.68901   0.78996   0.06846   0.00000  Uiso   1.00
H457   H     0.88459   0.74535   0.39589   0.00000  Uiso   1.00
H458   H     0.97685   0.75937   0.47159   0.00000  Uiso   1.00
C459   C     0.93885   0.80303   0.08940   0.00000  Uiso   1.00
C460   C     0.69750   0.86388   0.44839   0.00000  Uiso   1.00
C461   C     0.72390   0.87343   0.00406   0.00000  Uiso   1.00
C462   C     0.77616   0.85168   0.02627   0.00000  Uiso   1.00
C463   C     0.80167   0.81806   0.49334   0.00000  Uiso   1.00
C464   C     0.77549   0.80828   0.43686   0.00000  Uiso   1.00
C465   C     0.85589   0.79773   0.01428   0.00000  Uiso   1.00
C466   C     0.88956   0.77866   0.47816   0.00000  Uiso   1.00
C467   C     0.86177   0.76493   0.42347   0.00000  Uiso   1.00
C468   C     0.80346   0.77584   0.40441   0.00000  Uiso   1.00
C469   C     0.87785   0.79491   0.07067   0.00000  Uiso   1.00
C470   C     0.97519   0.78937   0.05362   0.00000  Uiso   1.00
C471   C     0.72394   0.83307   0.41427   0.00000  Uiso   1.00
H472   H     0.99158   0.88317   0.43130   0.00000  Uiso   1.00
H473   H     0.79777   0.86354   0.06854   0.00000  Uiso   1.00
H474   H     0.70474   0.89907   0.02971   0.00000  Uiso   1.00
H475   H     0.78206   0.76043   0.36339   0.00000  Uiso   1.00
C476   C     0.69288   0.98569   0.25859   0.00000  Uiso   1.00
C477   C     0.97907   0.68073   0.25246   0.00000  Uiso   1.00
H478   H     0.93405   0.99679   0.24139   0.00000  Uiso   1.00
N479   N     0.81160   0.81890   0.23542   0.00000  Uiso   1.00
H480   H     0.82389   0.78886   0.21312   0.00000  Uiso   1.00
N481   N     0.85507   0.84777   0.26457   0.00000  Uiso   1.00
H482   H     0.84297   0.87646   0.28897   0.00000  Uiso   1.00
C483   C     0.83981   0.76787   0.10582   0.00000  Uiso   1.00
C484   C     0.80268   0.71954   0.07526   0.00000  Uiso   1.00
C485   C     0.77181   0.68919   0.11369   0.00000  Uiso   1.00
H486   H     0.80486   0.67284   0.14665   0.00000  Uiso   1.00
H487   H     0.74445   0.71488   0.13281   0.00000  Uiso   1.00
H488   H     0.74284   0.98979   0.08968   0.00000  Uiso   1.00
H489   H     0.76851   0.73136   0.04018   0.00000  Uiso   1.00
H490   H     0.83140   0.69342   0.05846   0.00000  Uiso   1.00
H491   H     0.86844   0.75388   0.14355   0.00000  Uiso   1.00
H492   H     0.81046   0.79530   0.11914   0.00000  Uiso   1.00
N493   N     0.75249   0.67290   0.28073   0.00000  Uiso   1.00
O494   O     0.77725   0.99684   0.33141   0.00000  Uiso   1.00
O495   O     0.78584   0.68541   0.24689   0.00000  Uiso   1.00
O496   O     0.29769   0.24629   0.75357   0.00000  Uiso   1.00
O497   O     0.05742   0.23704   0.74423   0.00000  Uiso   1.00
C498   C     0.01536   0.26480   0.75041   0.00000  Uiso   1.00
O499   O     0.31490   0.17358   0.83380   0.00000  Uiso   1.00
O500   O     0.07463   0.16433   0.82446   0.00000  Uiso   1.00
C501   C     0.03639   0.16748   0.85466   0.00000  Uiso   1.00
Zn502  Zn    0.27119   0.17284   0.75623   0.00000  Uiso   1.00
Zn503  Zn    0.06214   0.16049   0.74376   0.00000  Uiso   1.00
O504   O     0.27592   0.09629   0.75576   0.00000  Uiso   1.00
O505   O     0.03565   0.08704   0.74643   0.00000  Uiso   1.00
O506   O     0.25870   0.16901   0.67554   0.00000  Uiso   1.00
O507   O     0.01843   0.15976   0.66620   0.00000  Uiso   1.00
C508   C     0.31943   0.06860   0.75319   0.00000  Uiso   1.00
C509   C     0.29573   0.15667   0.64616   0.00000  Uiso   1.00
C510   C     0.28294   0.10631   0.99858   0.00000  Uiso   1.00
H511   H     0.02234   0.12330   0.56846   0.00000  Uiso   1.00
H512   H     0.21792   0.07868   0.89589   0.00000  Uiso   1.00
H513   H     0.31018   0.09271   0.97159   0.00000  Uiso   1.00
C514   C     0.27219   0.13636   0.58940   0.00000  Uiso   1.00
C515   C     0.03083   0.19721   0.94839   0.00000  Uiso   1.00
C516   C     0.05723   0.20677   0.50406   0.00000  Uiso   1.00
C517   C     0.10949   0.18501   0.52627   0.00000  Uiso   1.00
C518   C     0.13501   0.15139   0.99334   0.00000  Uiso   1.00
C519   C     0.10882   0.14161   0.93686   0.00000  Uiso   1.00
C520   C     0.18922   0.13106   0.51428   0.00000  Uiso   1.00
C521   C     0.22289   0.11200   0.97816   0.00000  Uiso   1.00
C522   C     0.19511   0.09826   0.92347   0.00000  Uiso   1.00
C523   C     0.13679   0.10918   0.90441   0.00000  Uiso   1.00
C524   C     0.21118   0.12825   0.57067   0.00000  Uiso   1.00
C525   C     0.30852   0.12271   0.55362   0.00000  Uiso   1.00
C526   C     0.05727   0.16640   0.91427   0.00000  Uiso   1.00
H527   H     0.32491   0.21650   0.93130   0.00000  Uiso   1.00
H528   H     0.13110   0.19687   0.56854   0.00000  Uiso   1.00
H529   H     0.03808   0.23240   0.52971   0.00000  Uiso   1.00
H530   H     0.11539   0.09376   0.86339   0.00000  Uiso   1.00
C531   C     0.02621   0.31902   0.75859   0.00000  Uiso   1.00
C532   C     0.31240   0.01406   0.75246   0.00000  Uiso   1.00
H533   H     0.26739   0.33013   0.74139   0.00000  Uiso   1.00
N534   N     0.14493   0.15223   0.73542   0.00000  Uiso   1.00
H535   H     0.15722   0.12220   0.71312   0.00000  Uiso   1.00
N536   N     0.18840   0.18110   0.76457   0.00000  Uiso   1.00
H537   H     0.17630   0.20979   0.78897   0.00000  Uiso   1.00
C538   C     0.17315   0.10120   0.60582   0.00000  Uiso   1.00
C539   C     0.13601   0.05288   0.57526   0.00000  Uiso   1.00
C540   C     0.10514   0.02252   0.61369   0.00000  Uiso   1.00
H541   H     0.13819   0.00618   0.64665   0.00000  Uiso   1.00
H542   H     0.07778   0.04822   0.63281   0.00000  Uiso   1.00
H543   H     0.07618   0.32313   0.58968   0.00000  Uiso   1.00
H544   H     0.10185   0.06469   0.54018   0.00000  Uiso   1.00
H545   H     0.16473   0.02676   0.55846   0.00000  Uiso   1.00
H546   H     0.20178   0.08721   0.64355   0.00000  Uiso   1.00
H547   H     0.14379   0.12863   0.61914   0.00000  Uiso   1.00
N548   N     0.08582   0.00623   0.78073   0.00000  Uiso   1.00
O549   O     0.11058   0.33017   0.83141   0.00000  Uiso   1.00
O550   O     0.11918   0.01875   0.74689   0.00000  Uiso   1.00
O551   O     0.63102   0.24629   0.75357   0.00000  Uiso   1.00
O552   O     0.39075   0.23704   0.74423   0.00000  Uiso   1.00
C553   C     0.34869   0.26480   0.75041   0.00000  Uiso   1.00
O554   O     0.64823   0.17358   0.83380   0.00000  Uiso   1.00
O555   O     0.40796   0.16433   0.82446   0.00000  Uiso   1.00
C556   C     0.36972   0.16748   0.85466   0.00000  Uiso   1.00
Zn557  Zn    0.60453   0.17284   0.75623   0.00000  Uiso   1.00
Zn558  Zn    0.39547   0.16049   0.74376   0.00000  Uiso   1.00
O559   O     0.60925   0.09629   0.75576   0.00000  Uiso   1.00
O560   O     0.36898   0.08704   0.74643   0.00000  Uiso   1.00
O561   O     0.59204   0.16901   0.67554   0.00000  Uiso   1.00
O562   O     0.35177   0.15976   0.66620   0.00000  Uiso   1.00
C563   C     0.65277   0.06860   0.75319   0.00000  Uiso   1.00
C564   C     0.62906   0.15667   0.64616   0.00000  Uiso   1.00
C565   C     0.61627   0.10631   0.99858   0.00000  Uiso   1.00
H566   H     0.35568   0.12330   0.56846   0.00000  Uiso   1.00
H567   H     0.55125   0.07868   0.89589   0.00000  Uiso   1.00
H568   H     0.64352   0.09271   0.97159   0.00000  Uiso   1.00
C569   C     0.60552   0.13636   0.58940   0.00000  Uiso   1.00
C570   C     0.36417   0.19721   0.94839   0.00000  Uiso   1.00
C571   C     0.39056   0.20677   0.50406   0.00000  Uiso   1.00
C572   C     0.44283   0.18501   0.52627   0.00000  Uiso   1.00
C573   C     0.46834   0.15139   0.99334   0.00000  Uiso   1.00
C574   C     0.44215   0.14161   0.93686   0.00000  Uiso   1.00
C575   C     0.52256   0.13106   0.51428   0.00000  Uiso   1.00
C576   C     0.55622   0.11200   0.97816   0.00000  Uiso   1.00
C577   C     0.52844   0.09826   0.92347   0.00000  Uiso   1.00
C578   C     0.47013   0.10918   0.90441   0.00000  Uiso   1.00
C579   C     0.54451   0.12825   0.57067   0.00000  Uiso   1.00
C580   C     0.64186   0.12271   0.55362   0.00000  Uiso   1.00
C581   C     0.39061   0.16640   0.91427   0.00000  Uiso   1.00
H582   H     0.65824   0.21650   0.93130   0.00000  Uiso   1.00
H583   H     0.46443   0.19687   0.56854   0.00000  Uiso   1.00
H584   H     0.37141   0.23240   0.52971   0.00000  Uiso   1.00
H585   H     0.44873   0.09376   0.86339   0.00000  Uiso   1.00
C586   C     0.35955   0.31902   0.75859   0.00000  Uiso   1.00
C587   C     0.64573   0.01406   0.75246   0.00000  Uiso   1.00
H588   H     0.60072   0.33013   0.74139   0.00000  Uiso   1.00
N589   N     0.47827   0.15223   0.73542   0.00000  Uiso   1.00
H590   H     0.49055   0.12220   0.71312   0.00000  Uiso   1.00
N591   N     0.52173   0.18110   0.76457   0.00000  Uiso   1.00
H592   H     0.50963   0.20979   0.78897   0.00000  Uiso   1.00
C593   C     0.50648   0.10120   0.60582   0.00000  Uiso   1.00
C594   C     0.46934   0.05288   0.57526   0.00000  Uiso   1.00
C595   C     0.43847   0.02252   0.61369   0.00000  Uiso   1.00
H596   H     0.47153   0.00618   0.64665   0.00000  Uiso   1.00
H597   H     0.41112   0.04822   0.63281   0.00000  Uiso   1.00
H598   H     0.40951   0.32313   0.58968   0.00000  Uiso   1.00
H599   H     0.43518   0.06469   0.54018   0.00000  Uiso   1.00
H600   H     0.49806   0.02676   0.55846   0.00000  Uiso   1.00
H601   H     0.53511   0.08721   0.64355   0.00000  Uiso   1.00
H602   H     0.47713   0.12863   0.61914   0.00000  Uiso   1.00
N603   N     0.41916   0.00623   0.78073   0.00000  Uiso   1.00
O604   O     0.44392   0.33017   0.83141   0.00000  Uiso   1.00
O605   O     0.45251   0.01875   0.74689   0.00000  Uiso   1.00
O606   O     0.96435   0.24629   0.75357   0.00000  Uiso   1.00
O607   O     0.72408   0.23704   0.74423   0.00000  Uiso   1.00
C608   C     0.68202   0.26480   0.75041   0.00000  Uiso   1.00
O609   O     0.98157   0.17358   0.83380   0.00000  Uiso   1.00
O610   O     0.74130   0.16433   0.82446   0.00000  Uiso   1.00
C611   C     0.70305   0.16748   0.85466   0.00000  Uiso   1.00
Zn612  Zn    0.93786   0.17284   0.75623   0.00000  Uiso   1.00
Zn613  Zn    0.72881   0.16049   0.74376   0.00000  Uiso   1.00
O614   O     0.94258   0.09629   0.75576   0.00000  Uiso   1.00
O615   O     0.70231   0.08704   0.74643   0.00000  Uiso   1.00
O616   O     0.92537   0.16901   0.67554   0.00000  Uiso   1.00
O617   O     0.68510   0.15976   0.66620   0.00000  Uiso   1.00
C618   C     0.98610   0.06860   0.75319   0.00000  Uiso   1.00
C619   C     0.96240   0.15667   0.64616   0.00000  Uiso   1.00
C620   C     0.94961   0.10631   0.99858   0.00000  Uiso   1.00
H621   H     0.68901   0.12330   0.56846   0.00000  Uiso   1.00
H622   H     0.88459   0.07868   0.89589   0.00000  Uiso   1.00
H623   H     0.97685   0.09271   0.97159   0.00000  Uiso   1.00
C624   C     0.93885   0.13636   0.58940   0.00000  Uiso   1.00
C625   C     0.69750   0.19721   0.94839   0.00000  Uiso   1.00
C626   C     0.72390   0.20677   0.50406   0.00000  Uiso   1.00
C627   C     0.77616   0.18501   0.52627   0.00000  Uiso   1.00
C628   C     0.80167   0.15139   0.99334   0.00000  Uiso   1.00
C629   C     0.77549   0.14161   0.93686   0.00000  Uiso   1.00
C630   C     0.85589   0.13106   0.51428   0.00000  Uiso   1.00
C631   C     0.88956   0.11200   0.97816   0.00000  Uiso   1.00
C632   C     0.86177   0.09826   0.92347   0.00000  Uiso   1.00
C633   C     0.80346   0.10918   0.90441   0.00000  Uiso   1.00
C634   C     0.87785   0.12825   0.57067   0.00000  Uiso   1.00
C635   C     0.97519   0.12271   0.55362   0.00000  Uiso   1.00
C636   C     0.72394   0.16640   0.91427   0.00000  Uiso   1.00
H637   H     0.99158   0.21650   0.93130   0.00000  Uiso   1.00
H638   H     0.79777   0.19687   0.56854   0.00000  Uiso   1.00
H639   H     0.70474   0.23240   0.52971   0.00000  Uiso   1.00
H640   H     0.78206   0.09376   0.86339   0.00000  Uiso   1.00
C641   C     0.69288   0.31902   0.75859   0.00000  Uiso   1.00
C642   C     0.97907   0.01406   0.75246   0.00000  Uiso   1.00
H643   H     0.93405   0.33013   0.74139   0.00000  Uiso   1.00
N644   N     0.81160   0.15223   0.73542   0.00000  Uiso   1.00
H645   H     0.82389   0.12220   0.71312   0.00000  Uiso   1.00
N646   N     0.85507   0.18110   0.76457   0.00000  Uiso   1.00
H647   H     0.84297   0.20979   0.78897   0.00000  Uiso   1.00
C648   C     0.83981   0.10120   0.60582   0.00000  Uiso   1.00
C649   C     0.80268   0.05288   0.57526   0.00000  Uiso   1.00
C650   C     0.77181   0.02252   0.61369   0.00000  Uiso   1.00
H651   H     0.80486   0.00618   0.64665   0.00000  Uiso   1.00
H652   H     0.74445   0.04822   0.63281   0.00000  Uiso   1.00
H653   H     0.74284   0.32313   0.58968   0.00000  Uiso   1.00
H654   H     0.76851   0.06469   0.54018   0.00000  Uiso   1.00
H655   H     0.83140   0.02676   0.55846   0.00000  Uiso   1.00
H656   H     0.86844   0.08721   0.64355   0.00000  Uiso   1.00
H657   H     0.81046   0.12863   0.61914   0.00000  Uiso   1.00
N658   N     0.75249   0.00623   0.78073   0.00000  Uiso   1.00
O659   O     0.77725   0.33017   0.83141   0.00000  Uiso   1.00
O660   O     0.78584   0.01875   0.74689   0.00000  Uiso   1.00
O661   O     0.29769   0.57963   0.75357   0.00000  Uiso   1.00
O662   O     0.05742   0.57038   0.74423   0.00000  Uiso   1.00
C663   C     0.01536   0.59813   0.75041   0.00000  Uiso   1.00
O664   O     0.31490   0.50691   0.83380   0.00000  Uiso   1.00
O665   O     0.07463   0.49766   0.82446   0.00000  Uiso   1.00
C666   C     0.03639   0.50081   0.85466   0.00000  Uiso   1.00
Zn667  Zn    0.27119   0.50618   0.75623   0.00000  Uiso   1.00
Zn668  Zn    0.06214   0.49382   0.74376   0.00000  Uiso   1.00
O669   O     0.27592   0.42962   0.75576   0.00000  Uiso   1.00
O670   O     0.03565   0.42037   0.74643   0.00000  Uiso   1.00
O671   O     0.25870   0.50234   0.67554   0.00000  Uiso   1.00
O672   O     0.01843   0.49309   0.66620   0.00000  Uiso   1.00
C673   C     0.31943   0.40193   0.75319   0.00000  Uiso   1.00
C674   C     0.29573   0.49000   0.64616   0.00000  Uiso   1.00
C675   C     0.28294   0.43964   0.99858   0.00000  Uiso   1.00
H676   H     0.02234   0.45663   0.56846   0.00000  Uiso   1.00
H677   H     0.21792   0.41201   0.89589   0.00000  Uiso   1.00
H678   H     0.31018   0.42604   0.97159   0.00000  Uiso   1.00
C679   C     0.27219   0.46970   0.58940   0.00000  Uiso   1.00
C680   C     0.03083   0.53054   0.94839   0.00000  Uiso   1.00
C681   C     0.05723   0.54010   0.50406   0.00000  Uiso   1.00
C682   C     0.10949   0.51834   0.52627   0.00000  Uiso   1.00
C683   C     0.13501   0.48472   0.99334   0.00000  Uiso   1.00
C684   C     0.10882   0.47494   0.93686   0.00000  Uiso   1.00
C685   C     0.18922   0.46440   0.51428   0.00000  Uiso   1.00
C686   C     0.22289   0.44533   0.97816   0.00000  Uiso   1.00
C687   C     0.19511   0.43159   0.92347   0.00000  Uiso   1.00
C688   C     0.13679   0.44251   0.90441   0.00000  Uiso   1.00
C689   C     0.21118   0.46158   0.57067   0.00000  Uiso   1.00
C690   C     0.30852   0.45604   0.55362   0.00000  Uiso   1.00
C691   C     0.05727   0.49973   0.91427   0.00000  Uiso   1.00
H692   H     0.32491   0.54983   0.93130   0.00000  Uiso   1.00
H693   H     0.13110   0.53021   0.56854   0.00000  Uiso   1.00
H694   H     0.03808   0.56574   0.52971   0.00000  Uiso   1.00
H695   H     0.11539   0.42710   0.86339   0.00000  Uiso   1.00
C696   C     0.02621   0.65235   0.75859   0.00000  Uiso   1.00
C697   C     0.31240   0.34739   0.75246   0.00000  Uiso   1.00
H698   H     0.26739   0.66346   0.74139   0.00000  Uiso   1.00
N699   N     0.14493   0.48556   0.73542   0.00000  Uiso   1.00
H700   H     0.15722   0.45553   0.71312   0.00000  Uiso   1.00
N701   N     0.18840   0.51444   0.76457   0.00000  Uiso   1.00
H702   H     0.17630   0.54312   0.78897   0.00000  Uiso   1.00
C703   C     0.17315   0.43454   0.60582   0.00000  Uiso   1.00
C704   C     0.13601   0.38621   0.57526   0.00000  Uiso   1.00
C705   C     0.10514   0.35586   0.61369   0.00000  Uiso   1.00
H706   H     0.13819   0.33951   0.64665   0.00000  Uiso   1.00
H707   H     0.07778   0.38155   0.63281   0.00000  Uiso   1.00
H708   H     0.07618   0.65646   0.58968   0.00000  Uiso   1.00
H709   H     0.10185   0.39802   0.54018   0.00000  Uiso   1.00
H710   H     0.16473   0.36009   0.55846   0.00000  Uiso   1.00
H711   H     0.20178   0.42055   0.64355   0.00000  Uiso   1.00
H712   H     0.14379   0.46197   0.61914   0.00000  Uiso   1.00
N713   N     0.08582   0.33957   0.78073   0.00000  Uiso   1.00
O714   O     0.11058   0.66351   0.83141   0.00000  Uiso   1.00
O715   O     0.11918   0.35208   0.74689   0.00000  Uiso   1.00
O716   O     0.63102   0.57963   0.75357   0.00000  Uiso   1.00
O717   O     0.39075   0.57038   0.74423   0.00000  Uiso   1.00
C718   C     0.34869   0.59813   0.75041   0.00000  Uiso   1.00
O719   O     0.64823   0.50691   0.83380   0.00000  Uiso   1.00
O720   O     0.40796   0.49766   0.82446   0.00000  Uiso   1.00
C721   C     0.36972   0.50081   0.85466   0.00000  Uiso   1.00
Zn722  Zn    0.60453   0.50618   0.75623   0.00000  Uiso   1.00
Zn723  Zn    0.39547   0.49382   0.74376   0.00000  Uiso   1.00
O724   O     0.60925   0.42962   0.75576   0.00000  Uiso   1.00
O725   O     0.36898   0.42037   0.74643   0.00000  Uiso   1.00
O726   O     0.59204   0.50234   0.67554   0.00000  Uiso   1.00
O727   O     0.35177   0.49309   0.66620   0.00000  Uiso   1.00
C728   C     0.65277   0.40193   0.75319   0.00000  Uiso   1.00
C729   C     0.62906   0.49000   0.64616   0.00000  Uiso   1.00
C730   C     0.61627   0.43964   0.99858   0.00000  Uiso   1.00
H731   H     0.35568   0.45663   0.56846   0.00000  Uiso   1.00
H732   H     0.55125   0.41201   0.89589   0.00000  Uiso   1.00
H733   H     0.64352   0.42604   0.97159   0.00000  Uiso   1.00
C734   C     0.60552   0.46970   0.58940   0.00000  Uiso   1.00
C735   C     0.36417   0.53054   0.94839   0.00000  Uiso   1.00
C736   C     0.39056   0.54010   0.50406   0.00000  Uiso   1.00
C737   C     0.44283   0.51834   0.52627   0.00000  Uiso   1.00
C738   C     0.46834   0.48472   0.99334   0.00000  Uiso   1.00
C739   C     0.44215   0.47494   0.93686   0.00000  Uiso   1.00
C740   C     0.52256   0.46440   0.51428   0.00000  Uiso   1.00
C741   C     0.55622   0.44533   0.97816   0.00000  Uiso   1.00
C742   C     0.52844   0.43159   0.92347   0.00000  Uiso   1.00
C743   C     0.47013   0.44251   0.90441   0.00000  Uiso   1.00
C744   C     0.54451   0.46158   0.57067   0.00000  Uiso   1.00
C745   C     0.64186   0.45604   0.55362   0.00000  Uiso   1.00
C746   C     0.39061   0.49973   0.91427   0.00000  Uiso   1.00
H747   H     0.65824   0.54983   0.93130   0.00000  Uiso   1.00
H748   H     0.46443   0.53021   0.56854   0.00000  Uiso   1.00
H749   H     0.37141   0.56574   0.52971   0.00000  Uiso   1.00
H750   H     0.44873   0.42710   0.86339   0.00000  Uiso   1.00
C751   C     0.35955   0.65235   0.75859   0.00000  Uiso   1.00
C752   C     0.64573   0.34739   0.75246   0.00000  Uiso   1.00
H753   H     0.60072   0.66346   0.74139   0.00000  Uiso   1.00
N754   N     0.47827   0.48556   0.73542   0.00000  Uiso   1.00
H755   H     0.49055   0.45553   0.71312   0.00000  Uiso   1.00
N756   N     0.52173   0.51444   0.76457   0.00000  Uiso   1.00
H757   H     0.50963   0.54312   0.78897   0.00000  Uiso   1.00
C758   C     0.50648   0.43454   0.60582   0.00000  Uiso   1.00
C759   C     0.46934   0.38621   0.57526   0.00000  Uiso   1.00
C760   C     0.43847   0.35586   0.61369   0.00000  Uiso   1.00
H761   H     0.47153   0.33951   0.64665   0.00000  Uiso   1.00
H762   H     0.41112   0.38155   0.63281   0.00000  Uiso   1.00
H763   H     0.40951   0.65646   0.58968   0.00000  Uiso   1.00
H764   H     0.43518   0.39802   0.54018   0.00000  Uiso   1.00
H765   H     0.49806   0.36009   0.55846   0.00000  Uiso   1.00
H766   H     0.53511   0.42055   0.64355   0.00000  Uiso   1.00
H767   H     0.47713   0.46197   0.61914   0.00000  Uiso   1.00
N768   N     0.41916   0.33957   0.78073   0.00000  Uiso   1.00
O769   O     0.44392   0.66351   0.83141   0.00000  Uiso   1.00
O770   O     0.45251   0.35208   0.74689   0.00000  Uiso   1.00
O771   O     0.96435   0.57963   0.75357   0.00000  Uiso   1.00
O772   O     0.72408   0.57038   0.74423   0.00000  Uiso   1.00
C773   C     0.68202   0.59813   0.75041   0.00000  Uiso   1.00
O774   O     0.98157   0.50691   0.83380   0.00000  Uiso   1.00
O775   O     0.74130   0.49766   0.82446   0.00000  Uiso   1.00
C776   C     0.70305   0.50081   0.85466   0.00000  Uiso   1.00
Zn777  Zn    0.93786   0.50618   0.75623   0.00000  Uiso   1.00
Zn778  Zn    0.72881   0.49382   0.74376   0.00000  Uiso   1.00
O779   O     0.94258   0.42962   0.75576   0.00000  Uiso   1.00
O780   O     0.70231   0.42037   0.74643   0.00000  Uiso   1.00
O781   O     0.92537   0.50234   0.67554   0.00000  Uiso   1.00
O782   O     0.68510   0.49309   0.66620   0.00000  Uiso   1.00
C783   C     0.98610   0.40193   0.75319   0.00000  Uiso   1.00
C784   C     0.96240   0.49000   0.64616   0.00000  Uiso   1.00
C785   C     0.94961   0.43964   0.99858   0.00000  Uiso   1.00
H786   H     0.68901   0.45663   0.56846   0.00000  Uiso   1.00
H787   H     0.88459   0.41201   0.89589   0.00000  Uiso   1.00
H788   H     0.97685   0.42604   0.97159   0.00000  Uiso   1.00
C789   C     0.93885   0.46970   0.58940   0.00000  Uiso   1.00
C790   C     0.69750   0.53054   0.94839   0.00000  Uiso   1.00
C791   C     0.72390   0.54010   0.50406   0.00000  Uiso   1.00
C792   C     0.77616   0.51834   0.52627   0.00000  Uiso   1.00
C793   C     0.80167   0.48472   0.99334   0.00000  Uiso   1.00
C794   C     0.77549   0.47494   0.93686   0.00000  Uiso   1.00
C795   C     0.85589   0.46440   0.51428   0.00000  Uiso   1.00
C796   C     0.88956   0.44533   0.97816   0.00000  Uiso   1.00
C797   C     0.86177   0.43159   0.92347   0.00000  Uiso   1.00
C798   C     0.80346   0.44251   0.90441   0.00000  Uiso   1.00
C799   C     0.87785   0.46158   0.57067   0.00000  Uiso   1.00
C800   C     0.97519   0.45604   0.55362   0.00000  Uiso   1.00
C801   C     0.72394   0.49973   0.91427   0.00000  Uiso   1.00
H802   H     0.99158   0.54983   0.93130   0.00000  Uiso   1.00
H803   H     0.79777   0.53021   0.56854   0.00000  Uiso   1.00
H804   H     0.70474   0.56574   0.52971   0.00000  Uiso   1.00
H805   H     0.78206   0.42710   0.86339   0.00000  Uiso   1.00
C806   C     0.69288   0.65235   0.75859   0.00000  Uiso   1.00
C807   C     0.97907   0.34739   0.75246   0.00000  Uiso   1.00
H808   H     0.93405   0.66346   0.74139   0.00000  Uiso   1.00
N809   N     0.81160   0.48556   0.73542   0.00000  Uiso   1.00
H810   H     0.82389   0.45553   0.71312   0.00000  Uiso   1.00
N811   N     0.85507   0.51444   0.76457   0.00000  Uiso   1.00
H812   H     0.84297   0.54312   0.78897   0.00000  Uiso   1.00
C813   C     0.83981   0.43454   0.60582   0.00000  Uiso   1.00
C814   C     0.80268   0.38621   0.57526   0.00000  Uiso   1.00
C815   C     0.77181   0.35586   0.61369   0.00000  Uiso   1.00
H816   H     0.80486   0.33951   0.64665   0.00000  Uiso   1.00
H817   H     0.74445   0.38155   0.63281   0.00000  Uiso   1.00
H818   H     0.74284   0.65646   0.58968   0.00000  Uiso   1.00
H819   H     0.76851   0.39802   0.54018   0.00000  Uiso   1.00
H820   H     0.83140   0.36009   0.55846   0.00000  Uiso   1.00
H821   H     0.86844   0.42055   0.64355   0.00000  Uiso   1.00
H822   H     0.81046   0.46197   0.61914   0.00000  Uiso   1.00
N823   N     0.75249   0.33957   0.78073   0.00000  Uiso   1.00
O824   O     0.77725   0.66351   0.83141   0.00000  Uiso   1.00
O825   O     0.78584   0.35208   0.74689   0.00000  Uiso   1.00
O826   O     0.29769   0.91296   0.75357   0.00000  Uiso   1.00
O827   O     0.05742   0.90371   0.74423   0.00000  Uiso   1.00
C828   C     0.01536   0.93146   0.75041   0.00000  Uiso   1.00
O829   O     0.31490   0.84024   0.83380   0.00000  Uiso   1.00
O830   O     0.07463   0.83099   0.82446   0.00000  Uiso   1.00
C831   C     0.03639   0.83415   0.85466   0.00000  Uiso   1.00
Zn832  Zn    0.27119   0.83951   0.75623   0.00000  Uiso   1.00
Zn833  Zn    0.06214   0.82716   0.74376   0.00000  Uiso   1.00
O834   O     0.27592   0.76296   0.75576   0.00000  Uiso   1.00
O835   O     0.03565   0.75371   0.74643   0.00000  Uiso   1.00
O836   O     0.25870   0.83567   0.67554   0.00000  Uiso   1.00
O837   O     0.01843   0.82642   0.66620   0.00000  Uiso   1.00
C838   C     0.31943   0.73527   0.75319   0.00000  Uiso   1.00
C839   C     0.29573   0.82334   0.64616   0.00000  Uiso   1.00
C840   C     0.28294   0.77298   0.99858   0.00000  Uiso   1.00
H841   H     0.02234   0.78996   0.56846   0.00000  Uiso   1.00
H842   H     0.21792   0.74535   0.89589   0.00000  Uiso   1.00
H843   H     0.31018   0.75937   0.97159   0.00000  Uiso   1.00
C844   C     0.27219   0.80303   0.58940   0.00000  Uiso   1.00
C845   C     0.03083   0.86388   0.94839   0.00000  Uiso   1.00
C846   C     0.05723   0.87343   0.50406   0.00000  Uiso   1.00
C847   C     0.10949   0.85168   0.52627   0.00000  Uiso   1.00
C848   C     0.13501   0.81806   0.99334   0.00000  Uiso   1.00
C849   C     0.10882   0.80828   0.93686   0.00000  Uiso   1.00
C850   C     0.18922   0.79773   0.51428   0.00000  Uiso   1.00
C851   C     0.22289   0.77866   0.97816   0.00000  Uiso   1.00
C852   C     0.19511   0.76493   0.92347   0.00000  Uiso   1.00
C853   C     0.13679   0.77584   0.90441   0.00000  Uiso   1.00
C854   C     0.21118   0.79491   0.57067   0.00000  Uiso   1.00
C855   C     0.30852   0.78937   0.55362   0.00000  Uiso   1.00
C856   C     0.05727   0.83307   0.91427   0.00000  Uiso   1.00
H857   H     0.32491   0.88317   0.93130   0.00000  Uiso   1.00
H858   H     0.13110   0.86354   0.56854   0.00000  Uiso   1.00
H859   H     0.03808   0.89907   0.52971   0.00000  Uiso   1.00
H860   H     0.11539   0.76043   0.86339   0.00000  Uiso   1.00
C861   C     0.02621   0.98569   0.75859   0.00000  Uiso   1.00
C862   C     0.31240   0.68073   0.75246   0.00000  Uiso   1.00
H863   H     0.26739   0.99679   0.74139   0.00000  Uiso   1.00
N864   N     0.14493   0.81890   0.73542   0.00000  Uiso   1.00
H865   H     0.15722   0.78886   0.71312   0.00000  Uiso   1.00
N866   N     0.18840   0.84777   0.76457   0.00000  Uiso   1.00
H867   H     0.17630   0.87646   0.78897   0.00000  Uiso   1.00
C868   C     0.17315   0.76787   0.60582   0.00000  Uiso   1.00
C869   C     0.13601   0.71954   0.57526   0.00000  Uiso   1.00
C870   C     0.10514   0.68919   0.61369   0.00000  Uiso   1.00
H871   H     0.13819   0.67284   0.64665   0.00000  Uiso   1.00
H872   H     0.07778   0.71488   0.63281   0.00000  Uiso   1.00
H873   H     0.07618   0.98979   0.58968   0.00000  Uiso   1.00
H874   H     0.10185   0.73136   0.54018   0.00000  Uiso   1.00
H875   H     0.16473   0.69342   0.55846   0.00000  Uiso   1.00
H876   H     0.20178   0.75388   0.64355   0.00000  Uiso   1.00
H877   H     0.14379   0.79530   0.61914   0.00000  Uiso   1.00
N878   N     0.08582   0.67290   0.78073   0.00000  Uiso   1.00
O879   O     0.11058   0.99684   0.83141   0.00000  Uiso   1.00
O880   O     0.11918   0.68541   0.74689   0.00000  Uiso   1.00
O881   O     0.63102   0.91296   0.75357   0.00000  Uiso   1.00
O882   O     0.39075   0.90371   0.74423   0.00000  Uiso   1.00
C883   C     0.34869   0.93146   0.75041   0.00000  Uiso   1.00
O884   O     0.64823   0.84024   0.83380   0.00000  Uiso   1.00
O885   O     0.40796   0.83099   0.82446   0.00000  Uiso   1.00
C886   C     0.36972   0.83415   0.85466   0.00000  Uiso   1.00
Zn887  Zn    0.60453   0.83951   0.75623   0.00000  Uiso   1.00
Zn888  Zn    0.39547   0.82716   0.74376   0.00000  Uiso   1.00
O889   O     0.60925   0.76296   0.75576   0.00000  Uiso   1.00
O890   O     0.36898   0.75371   0.74643   0.00000  Uiso   1.00
O891   O     0.59204   0.83567   0.67554   0.00000  Uiso   1.00
O892   O     0.35177   0.82642   0.66620   0.00000  Uiso   1.00
C893   C     0.65277   0.73527   0.75319   0.00000  Uiso   1.00
C894   C     0.62906   0.82334   0.64616   0.00000  Uiso   1.00
C895   C     0.61627   0.77298   0.99858   0.00000  Uiso   1.00
H896   H     0.35568   0.78996   0.56846   0.00000  Uiso   1.00
H897   H     0.55125   0.74535   0.89589   0.00000  Uiso   1.00
H898   H     0.64352   0.75937   0.97159   0.00000  Uiso   1.00
C899   C     0.60552   0.80303   0.58940   0.00000  Uiso   1.00
C900   C     0.36417   0.86388   0.94839   0.00000  Uiso   1.00
C901   C     0.39056   0.87343   0.50406   0.00000  Uiso   1.00
C902   C     0.44283   0.85168   0.52627   0.00000  Uiso   1.00
C903   C     0.46834   0.81806   0.99334   0.00000  Uiso   1.00
C904   C     0.44215   0.80828   0.93686   0.00000  Uiso   1.00
C905   C     0.52256   0.79773   0.51428   0.00000  Uiso   1.00
C906   C     0.55622   0.77866   0.97816   0.00000  Uiso   1.00
C907   C     0.52844   0.76493   0.92347   0.00000  Uiso   1.00
C908   C     0.47013   0.77584   0.90441   0.00000  Uiso   1.00
C909   C     0.54451   0.79491   0.57067   0.00000  Uiso   1.00
C910   C     0.64186   0.78937   0.55362   0.00000  Uiso   1.00
C911   C     0.39061   0.83307   0.91427   0.00000  Uiso   1.00
H912   H     0.65824   0.88317   0.93130   0.00000  Uiso   1.00
H913   H     0.46443   0.86354   0.56854   0.00000  Uiso   1.00
H914   H     0.37141   0.89907   0.52971   0.00000  Uiso   1.00
H915   H     0.44873   0.76043   0.86339   0.00000  Uiso   1.00
C916   C     0.35955   0.98569   0.75859   0.00000  Uiso   1.00
C917   C     0.64573   0.68073   0.75246   0.00000  Uiso   1.00
H918   H     0.60072   0.99679   0.74139   0.00000  Uiso   1.00
N919   N     0.47827   0.81890   0.73542   0.00000  Uiso   1.00
H920   H     0.49055   0.78886   0.71312   0.00000  Uiso   1.00
N921   N     0.52173   0.84777   0.76457   0.00000  Uiso   1.00
H922   H     0.50963   0.87646   0.78897   0.00000  Uiso   1.00
C923   C     0.50648   0.76787   0.60582   0.00000  Uiso   1.00
C924   C     0.46934   0.71954   0.57526   0.00000  Uiso   1.00
C925   C     0.43847   0.68919   0.61369   0.00000  Uiso   1.00
H926   H     0.47153   0.67284   0.64665   0.00000  Uiso   1.00
H927   H     0.41112   0.71488   0.63281   0.00000  Uiso   1.00
H928   H     0.40951   0.98979   0.58968   0.00000  Uiso   1.00
H929   H     0.43518   0.73136   0.54018   0.00000  Uiso   1.00
H930   H     0.49806   0.69342   0.55846   0.00000  Uiso   1.00
H931   H     0.53511   0.75388   0.64355   0.00000  Uiso   1.00
H932   H     0.47713   0.79530   0.61914   0.00000  Uiso   1.00
N933   N     0.41916   0.67290   0.78073   0.00000  Uiso   1.00
O934   O     0.44392   0.99684   0.83141   0.00000  Uiso   1.00
O935   O     0.45251   0.68541   0.74689   0.00000  Uiso   1.00
O936   O     0.96435   0.91296   0.75357   0.00000  Uiso   1.00
O937   O     0.72408   0.90371   0.74423   0.00000  Uiso   1.00
C938   C     0.68202   0.93146   0.75041   0.00000  Uiso   1.00
O939   O     0.98157   0.84024   0.83380   0.00000  Uiso   1.00
O940   O     0.74130   0.83099   0.82446   0.00000  Uiso   1.00
C941   C     0.70305   0.83415   0.85466   0.00000  Uiso   1.00
Zn942  Zn    0.93786   0.83951   0.75623   0.00000  Uiso   1.00
Zn943  Zn    0.72881   0.82716   0.74376   0.00000  Uiso   1.00
O944   O     0.94258   0.76296   0.75576   0.00000  Uiso   1.00
O945   O     0.70231   0.75371   0.74643   0.00000  Uiso   1.00
O946   O     0.92537   0.83567   0.67554   0.00000  Uiso   1.00
O947   O     0.68510   0.82642   0.66620   0.00000  Uiso   1.00
C948   C     0.98610   0.73527   0.75319   0.00000  Uiso   1.00
C949   C     0.96240   0.82334   0.64616   0.00000  Uiso   1.00
C950   C     0.94961   0.77298   0.99858   0.00000  Uiso   1.00
H951   H     0.68901   0.78996   0.56846   0.00000  Uiso   1.00
H952   H     0.88459   0.74535   0.89589   0.00000  Uiso   1.00
H953   H     0.97685   0.75937   0.97159   0.00000  Uiso   1.00
C954   C     0.93885   0.80303   0.58940   0.00000  Uiso   1.00
C955   C     0.69750   0.86388   0.94839   0.00000  Uiso   1.00
C956   C     0.72390   0.87343   0.50406   0.00000  Uiso   1.00
C957   C     0.77616   0.85168   0.52627   0.00000  Uiso   1.00
C958   C     0.80167   0.81806   0.99334   0.00000  Uiso   1.00
C959   C     0.77549   0.80828   0.93686   0.00000  Uiso   1.00
C960   C     0.85589   0.79773   0.51428   0.00000  Uiso   1.00
C961   C     0.88956   0.77866   0.97816   0.00000  Uiso   1.00
C962   C     0.86177   0.76493   0.92347   0.00000  Uiso   1.00
C963   C     0.80346   0.77584   0.90441   0.00000  Uiso   1.00
C964   C     0.87785   0.79491   0.57067   0.00000  Uiso   1.00
C965   C     0.97519   0.78937   0.55362   0.00000  Uiso   1.00
C966   C     0.72394   0.83307   0.91427   0.00000  Uiso   1.00
H967   H     0.99158   0.88317   0.93130   0.00000  Uiso   1.00
H968   H     0.79777   0.86354   0.56854   0.00000  Uiso   1.00
H969   H     0.70474   0.89907   0.52971   0.00000  Uiso   1.00
H970   H     0.78206   0.76043   0.86339   0.00000  Uiso   1.00
C971   C     0.69288   0.98569   0.75859   0.00000  Uiso   1.00
C972   C     0.97907   0.68073   0.75246   0.00000  Uiso   1.00
H973   H     0.93405   0.99679   0.74139   0.00000  Uiso   1.00
N974   N     0.81160   0.81890   0.73542   0.00000  Uiso   1.00
H975   H     0.82389   0.78886   0.71312   0.00000  Uiso   1.00
N976   N     0.85507   0.84777   0.76457   0.00000  Uiso   1.00
H977   H     0.84297   0.87646   0.78897   0.00000  Uiso   1.00
C978   C     0.83981   0.76787   0.60582   0.00000  Uiso   1.00
C979   C     0.80268   0.71954   0.57526   0.00000  Uiso   1.00
C980   C     0.77181   0.68919   0.61369   0.00000  Uiso   1.00
H981   H     0.80486   0.67284   0.64665   0.00000  Uiso   1.00
H982   H     0.74445   0.71488   0.63281   0.00000  Uiso   1.00
H983   H     0.74284   0.98979   0.58968   0.00000  Uiso   1.00
H984   H     0.76851   0.73136   0.54018   0.00000  Uiso   1.00
H985   H     0.83140   0.69342   0.55846   0.00000  Uiso   1.00
H986   H     0.86844   0.75388   0.64355   0.00000  Uiso   1.00
H987   H     0.81046   0.79530   0.61914   0.00000  Uiso   1.00
N988   N     0.75249   0.67290   0.78073   0.00000  Uiso   1.00
O989   O     0.77725   0.99684   0.83141   0.00000  Uiso   1.00
O990   O     0.78584   0.68541   0.74689   0.00000  Uiso   1.00
loop_
_geom_bond_atom_site_label_1
_geom_bond_atom_site_label_2
_geom_bond_distance
_geom_bond_site_symmetry_2
_ccdc_geom_bond_type
O1     Zn7     1.962   .     S
O1     C58     1.275   .     S
O2     C3      1.285   .     A
O2     Zn8     1.983   .     S
C3     C36     1.403   .     S
C3     O111    1.275   1_455 S
O4     Zn7     1.967   .     S
O4     C61     1.295   .     S
O5     Zn8     1.953   .     S
O5     C6      1.290   .     A
C6     C31     1.452   .     S
C6     O114    1.295   1_455 S
Zn7    O11     1.953   .     S
Zn7    O9      1.983   .     S
Zn7    N41     2.016   .     S
Zn8    N39     2.016   .     S
Zn8    O12     1.967   .     S
Zn8    O10     1.962   .     S
O9     C13     1.292   .     A
O10    C123    1.271   1_455 S
O11    C14     1.294   .     A
O12    C124    1.291   1_455 S
C13    C37     1.404   .     S
C13    O65     1.271   .     S
C14    C19     1.456   .     S
C14    O67     1.291   .     S
C15    H18     1.083   .     S
C15    C26     1.403   .     A
C15    C525    1.400   .     S
H16    C140    1.082   1_455 S
H17    C27     1.084   .     S
C19    C30     1.406   .     A
C19    C29     1.399   .     A
C20    C31     1.403   .     A
C20    C516    1.387   .     S
C20    H142    1.083   1_455 S
C21    H34     1.083   .     S
C21    C22     1.389   .     A
C21    C515    1.387   1_554 S
C22    H33     1.080   .     S
C22    C518    1.414   1_554 S
C23    C24     1.404   .     A
C23    C517    1.414   .     S
C23    C520    1.403   .     S
C24    C31     1.416   .     A
C24    C28     1.422   .     A
C25    C29     1.385   .     A
C25    C518    1.403   1_554 S
C25    C521    1.410   1_554 S
C26    C27     1.389   .     A
C26    C520    1.410   .     S
C27    C28     1.392   .     A
C28    H35     1.077   .     S
C29    C43     1.531   .     S
C30    C510    1.400   1_554 S
C30    H71     1.082   .     S
H32    C75     1.083   .     S
C36    C312    1.347   1_455 S
C36    N218    1.439   .     S
C37    C421    1.347   1_545 S
C37    H368    1.088   1_545 S
H38    C202    1.088   .     S
N39    N41     1.283   .     D
N39    H40     1.026   .     S
N41    H42     1.029   .     S
C43    H51     1.111   .     S
C43    C44     1.541   .     S
C43    H52     1.107   .     S
C44    H49     1.110   .     S
C44    C45     1.525   .     S
C44    H50     1.112   .     S
C45    H46     1.110   .     S
C45    H47     1.112   .     S
C45    H378    1.111   1_545 S
H48    C210    1.111   .     S
N53    O55     1.300   .     A
N53    C366    1.439   1_545 S
N53    O384    1.301   1_545 S
O54    N218    1.301   .     S
O56    Zn62    1.962   .     S
O56    C113    1.275   .     S
O57    C58     1.285   .     A
O57    Zn63    1.983   .     S
C58    C91     1.403   .     S
O59    Zn62    1.967   .     S
O59    C116    1.295   .     S
O60    Zn63    1.953   .     S
O60    C61     1.290   .     A
C61    C86     1.452   .     S
Zn62   O66     1.953   .     S
Zn62   O64     1.983   .     S
Zn62   N96     2.016   .     S
Zn63   N94     2.016   .     S
Zn63   O67     1.967   .     S
Zn63   O65     1.962   .     S
O64    C68     1.292   .     A
O66    C69     1.294   .     A
C68    C92     1.404   .     S
C68    O120    1.271   .     S
C69    C74     1.456   .     S
C69    O122    1.291   .     S
C70    H73     1.083   .     S
C70    C81     1.403   .     A
C70    C580    1.400   .     S
H72    C82     1.084   .     S
C74    C85     1.406   .     A
C74    C84     1.399   .     A
C75    C86     1.403   .     A
C75    C571    1.387   .     S
C76    H89     1.083   .     S
C76    C77     1.389   .     A
C76    C570    1.387   1_554 S
C77    H88     1.080   .     S
C77    C573    1.414   1_554 S
C78    C79     1.404   .     A
C78    C572    1.414   .     S
C78    C575    1.403   .     S
C79    C86     1.416   .     A
C79    C83     1.422   .     A
C80    C84     1.385   .     A
C80    C573    1.403   1_554 S
C80    C576    1.410   1_554 S
C81    C82     1.389   .     A
C81    C575    1.410   .     S
C82    C83     1.392   .     A
C83    H90     1.077   .     S
C84    C98     1.531   .     S
C85    C565    1.400   1_554 S
C85    H126    1.082   .     S
H87    C130    1.083   .     S
C91    C202    1.347   .     S
C91    N273    1.439   .     S
C92    C476    1.347   1_545 S
C92    H423    1.088   1_545 S
H93    C257    1.088   .     S
N94    N96     1.283   .     D
N94    H95     1.026   .     S
N96    H97     1.029   .     S
C98    H106    1.111   .     S
C98    C99     1.541   .     S
C98    H107    1.107   .     S
C99    H104    1.110   .     S
C99    C100    1.525   .     S
C99    H105    1.112   .     S
C100   H101    1.110   .     S
C100   H102    1.112   .     S
C100   H433    1.111   1_545 S
H103   C265    1.111   .     S
N108   O110    1.300   .     A
N108   C421    1.439   1_545 S
N108   O439    1.301   1_545 S
O109   N273    1.301   .     S
O111   Zn117   1.962   .     S
O111   C3      1.275   1_655 S
O112   C113    1.285   .     A
O112   Zn118   1.983   .     S
C113   C146    1.403   .     S
O114   Zn117   1.967   .     S
O114   C6      1.295   1_655 S
O115   Zn118   1.953   .     S
O115   C116    1.290   .     A
C116   C141    1.452   .     S
Zn117  O121    1.953   .     S
Zn117  O119    1.983   .     S
Zn117  N151    2.016   .     S
Zn118  N149    2.016   .     S
Zn118  O122    1.967   .     S
Zn118  O120    1.962   .     S
O119   C123    1.292   .     A
O121   C124    1.294   .     A
C123   C147    1.404   .     S
C123   O10     1.271   1_655 S
C124   C129    1.456   .     S
C124   O12     1.291   1_655 S
C125   H128    1.083   .     S
C125   C136    1.403   .     A
C125   C635    1.400   .     S
H127   C137    1.084   .     S
C129   C140    1.406   .     A
C129   C139    1.399   .     A
C130   C141    1.403   .     A
C130   C626    1.387   .     S
C131   H144    1.083   .     S
C131   C132    1.389   .     A
C131   C625    1.387   1_554 S
C132   H143    1.080   .     S
C132   C628    1.414   1_554 S
C133   C134    1.404   .     A
C133   C627    1.414   .     S
C133   C630    1.403   .     S
C134   C141    1.416   .     A
C134   C138    1.422   .     A
C135   C139    1.385   .     A
C135   C628    1.403   1_554 S
C135   C631    1.410   1_554 S
C136   C137    1.389   .     A
C136   C630    1.410   .     S
C137   C138    1.392   .     A
C138   H145    1.077   .     S
C139   C153    1.531   .     S
C140   C620    1.400   1_554 S
C140   H16     1.082   1_655 S
H142   C20     1.083   1_655 S
C146   C257    1.347   .     S
C146   N328    1.439   .     S
C147   C366    1.347   1_645 S
C147   H478    1.088   1_545 S
H148   C312    1.088   .     S
N149   N151    1.283   .     D
N149   H150    1.026   .     S
N151   H152    1.029   .     S
C153   H161    1.111   .     S
C153   C154    1.541   .     S
C153   H162    1.107   .     S
C154   H159    1.110   .     S
C154   C155    1.525   .     S
C154   H160    1.112   .     S
C155   H156    1.110   .     S
C155   H157    1.112   .     S
C155   H488    1.111   1_545 S
H158   C320    1.111   .     S
N163   O165    1.300   .     A
N163   C476    1.439   1_545 S
N163   O494    1.301   1_545 S
O164   N328    1.301   .     S
O166   Zn172   1.962   .     S
O166   C223    1.275   .     S
O167   C168    1.285   .     A
O167   Zn173   1.983   .     S
C168   C201    1.403   .     S
C168   O276    1.275   1_455 S
O169   Zn172   1.967   .     S
O169   C226    1.295   .     S
O170   Zn173   1.953   .     S
O170   C171    1.290   .     A
C171   C196    1.452   .     S
C171   O279    1.295   1_455 S
Zn172  O176    1.953   .     S
Zn172  O174    1.983   .     S
Zn172  N206    2.016   .     S
Zn173  N204    2.016   .     S
Zn173  O177    1.967   .     S
Zn173  O175    1.962   .     S
O174   C178    1.292   .     A
O175   C288    1.271   1_455 S
O176   C179    1.294   .     A
O177   C289    1.291   1_455 S
C178   C202    1.404   .     S
C178   O230    1.271   .     S
C179   C184    1.456   .     S
C179   O232    1.291   .     S
C180   H183    1.083   .     S
C180   C191    1.403   .     A
C180   C690    1.400   .     S
H181   C305    1.082   1_455 S
H182   C192    1.084   .     S
C184   C195    1.406   .     A
C184   C194    1.399   .     A
C185   C196    1.403   .     A
C185   C681    1.387   .     S
C185   H307    1.083   1_455 S
C186   H199    1.083   .     S
C186   C187    1.389   .     A
C186   C680    1.387   1_554 S
C187   H198    1.080   .     S
C187   C683    1.414   1_554 S
C188   C189    1.404   .     A
C188   C682    1.414   .     S
C188   C685    1.403   .     S
C189   C196    1.416   .     A
C189   C193    1.422   .     A
C190   C194    1.385   .     A
C190   C683    1.403   1_554 S
C190   C686    1.410   1_554 S
C191   C192    1.389   .     A
C191   C685    1.410   .     S
C192   C193    1.392   .     A
C193   H200    1.077   .     S
C194   C208    1.531   .     S
C195   C675    1.400   1_554 S
C195   H236    1.082   .     S
H197   C240    1.083   .     S
C201   C477    1.347   1_455 S
C201   N383    1.439   .     S
H203   C367    1.088   .     S
N204   N206    1.283   .     D
N204   H205    1.026   .     S
N206   H207    1.029   .     S
C208   H216    1.111   .     S
C208   C209    1.541   .     S
C208   H217    1.107   .     S
C209   H214    1.110   .     S
C209   C210    1.525   .     S
C209   H215    1.112   .     S
C210   H211    1.110   .     S
C210   H212    1.112   .     S
H213   C375    1.111   .     S
N218   O220    1.300   .     A
O219   N383    1.301   .     S
O221   Zn227   1.962   .     S
O221   C278    1.275   .     S
O222   C223    1.285   .     A
O222   Zn228   1.983   .     S
C223   C256    1.403   .     S
O224   Zn227   1.967   .     S
O224   C281    1.295   .     S
O225   Zn228   1.953   .     S
O225   C226    1.290   .     A
C226   C251    1.452   .     S
Zn227  O231    1.953   .     S
Zn227  O229    1.983   .     S
Zn227  N261    2.016   .     S
Zn228  N259    2.016   .     S
Zn228  O232    1.967   .     S
Zn228  O230    1.962   .     S
O229   C233    1.292   .     A
O231   C234    1.294   .     A
C233   C257    1.404   .     S
C233   O285    1.271   .     S
C234   C239    1.456   .     S
C234   O287    1.291   .     S
C235   H238    1.083   .     S
C235   C246    1.403   .     A
C235   C745    1.400   .     S
H237   C247    1.084   .     S
C239   C250    1.406   .     A
C239   C249    1.399   .     A
C240   C251    1.403   .     A
C240   C736    1.387   .     S
C241   H254    1.083   .     S
C241   C242    1.389   .     A
C241   C735    1.387   1_554 S
C242   H253    1.080   .     S
C242   C738    1.414   1_554 S
C243   C244    1.404   .     A
C243   C737    1.414   .     S
C243   C740    1.403   .     S
C244   C251    1.416   .     A
C244   C248    1.422   .     A
C245   C249    1.385   .     A
C245   C738    1.403   1_554 S
C245   C741    1.410   1_554 S
C246   C247    1.389   .     A
C246   C740    1.410   .     S
C247   C248    1.392   .     A
C248   H255    1.077   .     S
C249   C263    1.531   .     S
C250   C730    1.400   1_554 S
C250   H291    1.082   .     S
H252   C295    1.083   .     S
C256   C367    1.347   .     S
C256   N438    1.439   .     S
H258   C422    1.088   .     S
N259   N261    1.283   .     D
N259   H260    1.026   .     S
N261   H262    1.029   .     S
C263   H271    1.111   .     S
C263   C264    1.541   .     S
C263   H272    1.107   .     S
C264   H269    1.110   .     S
C264   C265    1.525   .     S
C264   H270    1.112   .     S
C265   H266    1.110   .     S
C265   H267    1.112   .     S
H268   C430    1.111   .     S
N273   O275    1.300   .     A
O274   N438    1.301   .     S
O276   Zn282   1.962   .     S
O276   C168    1.275   1_655 S
O277   C278    1.285   .     A
O277   Zn283   1.983   .     S
C278   C311    1.403   .     S
O279   Zn282   1.967   .     S
O279   C171    1.295   1_655 S
O280   Zn283   1.953   .     S
O280   C281    1.290   .     A
C281   C306    1.452   .     S
Zn282  O286    1.953   .     S
Zn282  O284    1.983   .     S
Zn282  N316    2.016   .     S
Zn283  N314    2.016   .     S
Zn283  O287    1.967   .     S
Zn283  O285    1.962   .     S
O284   C288    1.292   .     A
O286   C289    1.294   .     A
C288   C312    1.404   .     S
C288   O175    1.271   1_655 S
C289   C294    1.456   .     S
C289   O177    1.291   1_655 S
C290   H293    1.083   .     S
C290   C301    1.403   .     A
C290   C800    1.400   .     S
H292   C302    1.084   .     S
C294   C305    1.406   .     A
C294   C304    1.399   .     A
C295   C306    1.403   .     A
C295   C791    1.387   .     S
C296   H309    1.083   .     S
C296   C297    1.389   .     A
C296   C790    1.387   1_554 S
C297   H308    1.080   .     S
C297   C793    1.414   1_554 S
C298   C299    1.404   .     A
C298   C792    1.414   .     S
C298   C795    1.403   .     S
C299   C306    1.416   .     A
C299   C303    1.422   .     A
C300   C304    1.385   .     A
C300   C793    1.403   1_554 S
C300   C796    1.410   1_554 S
C301   C302    1.389   .     A
C301   C795    1.410   .     S
C302   C303    1.392   .     A
C303   H310    1.077   .     S
C304   C318    1.531   .     S
C305   C785    1.400   1_554 S
C305   H181    1.082   1_655 S
H307   C185    1.083   1_655 S
C311   C422    1.347   .     S
C311   N493    1.439   .     S
C312   C36     1.347   1_655 S
H313   C477    1.088   .     S
N314   N316    1.283   .     D
N314   H315    1.026   .     S
N316   H317    1.029   .     S
C318   H326    1.111   .     S
C318   C319    1.541   .     S
C318   H327    1.107   .     S
C319   H324    1.110   .     S
C319   C320    1.525   .     S
C319   H325    1.112   .     S
C320   H321    1.110   .     S
C320   H322    1.112   .     S
H323   C485    1.111   .     S
N328   O330    1.300   .     A
O329   N493    1.301   .     S
O331   Zn337   1.962   .     S
O331   C388    1.275   .     S
O332   C333    1.285   .     A
O332   Zn338   1.983   .     S
C333   C366    1.403   .     S
C333   O441    1.275   1_455 S
O334   Zn337   1.967   .     S
O334   C391    1.295   .     S
O335   Zn338   1.953   .     S
O335   C336    1.290   .     A
C336   C361    1.452   .     S
C336   O444    1.295   1_455 S
Zn337  O341    1.953   .     S
Zn337  O339    1.983   .     S
Zn337  N371    2.016   .     S
Zn338  N369    2.016   .     S
Zn338  O342    1.967   .     S
Zn338  O340    1.962   .     S
O339   C343    1.292   .     A
O340   C453    1.271   1_455 S
O341   C344    1.294   .     A
O342   C454    1.291   1_455 S
C343   C367    1.404   .     S
C343   O395    1.271   .     S
C344   C349    1.456   .     S
C344   O397    1.291   .     S
C345   H348    1.083   .     S
C345   C356    1.403   .     A
C345   C855    1.400   .     S
H346   C470    1.082   1_455 S
H347   C357    1.084   .     S
C349   C360    1.406   .     A
C349   C359    1.399   .     A
C350   C361    1.403   .     A
C350   C846    1.387   .     S
C350   H472    1.083   1_455 S
C351   H364    1.083   .     S
C351   C352    1.389   .     A
C351   C845    1.387   1_554 S
C352   H363    1.080   .     S
C352   C848    1.414   1_554 S
C353   C354    1.404   .     A
C353   C847    1.414   .     S
C353   C850    1.403   .     S
C354   C361    1.416   .     A
C354   C358    1.422   .     A
C355   C359    1.385   .     A
C355   C848    1.403   1_554 S
C355   C851    1.410   1_554 S
C356   C357    1.389   .     A
C356   C850    1.410   .     S
C357   C358    1.392   .     A
C358   H365    1.077   .     S
C359   C373    1.531   .     S
C360   C840    1.400   1_554 S
C360   H401    1.082   .     S
H362   C405    1.083   .     S
C366   C147    1.347   1_465 S
C366   N53     1.439   1_565 S
H368   C37     1.088   1_565 S
N369   N371    1.283   .     D
N369   H370    1.026   .     S
N371   H372    1.029   .     S
C373   H381    1.111   .     S
C373   C374    1.541   .     S
C373   H382    1.107   .     S
C374   H379    1.110   .     S
C374   C375    1.525   .     S
C374   H380    1.112   .     S
C375   H376    1.110   .     S
C375   H377    1.112   .     S
H378   C45     1.111   1_565 S
N383   O385    1.300   .     A
O384   N53     1.301   1_565 S
O386   Zn392   1.962   .     S
O386   C443    1.275   .     S
O387   C388    1.285   .     A
O387   Zn393   1.983   .     S
C388   C421    1.403   .     S
O389   Zn392   1.967   .     S
O389   C446    1.295   .     S
O390   Zn393   1.953   .     S
O390   C391    1.290   .     A
C391   C416    1.452   .     S
Zn392  O396    1.953   .     S
Zn392  O394    1.983   .     S
Zn392  N426    2.016   .     S
Zn393  N424    2.016   .     S
Zn393  O397    1.967   .     S
Zn393  O395    1.962   .     S
O394   C398    1.292   .     A
O396   C399    1.294   .     A
C398   C422    1.404   .     S
C398   O450    1.271   .     S
C399   C404    1.456   .     S
C399   O452    1.291   .     S
C400   H403    1.083   .     S
C400   C411    1.403   .     A
C400   C910    1.400   .     S
H402   C412    1.084   .     S
C404   C415    1.406   .     A
C404   C414    1.399   .     A
C405   C416    1.403   .     A
C405   C901    1.387   .     S
C406   H419    1.083   .     S
C406   C407    1.389   .     A
C406   C900    1.387   1_554 S
C407   H418    1.080   .     S
C407   C903    1.414   1_554 S
C408   C409    1.404   .     A
C408   C902    1.414   .     S
C408   C905    1.403   .     S
C409   C416    1.416   .     A
C409   C413    1.422   .     A
C410   C414    1.385   .     A
C410   C903    1.403   1_554 S
C410   C906    1.410   1_554 S
C411   C412    1.389   .     A
C411   C905    1.410   .     S
C412   C413    1.392   .     A
C413   H420    1.077   .     S
C414   C428    1.531   .     S
C415   C895    1.400   1_554 S
C415   H456    1.082   .     S
H417   C460    1.083   .     S
C421   C37     1.347   1_565 S
C421   N108    1.439   1_565 S
H423   C92     1.088   1_565 S
N424   N426    1.283   .     D
N424   H425    1.026   .     S
N426   H427    1.029   .     S
C428   H436    1.111   .     S
C428   C429    1.541   .     S
C428   H437    1.107   .     S
C429   H434    1.110   .     S
C429   C430    1.525   .     S
C429   H435    1.112   .     S
C430   H431    1.110   .     S
C430   H432    1.112   .     S
H433   C100    1.111   1_565 S
N438   O440    1.300   .     A
O439   N108    1.301   1_565 S
O441   Zn447   1.962   .     S
O441   C333    1.275   1_655 S
O442   C443    1.285   .     A
O442   Zn448   1.983   .     S
C443   C476    1.403   .     S
O444   Zn447   1.967   .     S
O444   C336    1.295   1_655 S
O445   Zn448   1.953   .     S
O445   C446    1.290   .     A
C446   C471    1.452   .     S
Zn447  O451    1.953   .     S
Zn447  O449    1.983   .     S
Zn447  N481    2.016   .     S
Zn448  N479    2.016   .     S
Zn448  O452    1.967   .     S
Zn448  O450    1.962   .     S
O449   C453    1.292   .     A
O451   C454    1.294   .     A
C453   C477    1.404   .     S
C453   O340    1.271   1_655 S
C454   C459    1.456   .     S
C454   O342    1.291   1_655 S
C455   H458    1.083   .     S
C455   C466    1.403   .     A
C455   C965    1.400   .     S
H457   C467    1.084   .     S
C459   C470    1.406   .     A
C459   C469    1.399   .     A
C460   C471    1.403   .     A
C460   C956    1.387   .     S
C461   H474    1.083   .     S
C461   C462    1.389   .     A
C461   C955    1.387   1_554 S
C462   H473    1.080   .     S
C462   C958    1.414   1_554 S
C463   C464    1.404   .     A
C463   C957    1.414   .     S
C463   C960    1.403   .     S
C464   C471    1.416   .     A
C464   C468    1.422   .     A
C465   C469    1.385   .     A
C465   C958    1.403   1_554 S
C465   C961    1.410   1_554 S
C466   C467    1.389   .     A
C466   C960    1.410   .     S
C467   C468    1.392   .     A
C468   H475    1.077   .     S
C469   C483    1.531   .     S
C470   C950    1.400   1_554 S
C470   H346    1.082   1_655 S
H472   C350    1.083   1_655 S
C476   C92     1.347   1_565 S
C476   N163    1.439   1_565 S
C477   C201    1.347   1_655 S
H478   C147    1.088   1_565 S
N479   N481    1.283   .     D
N479   H480    1.026   .     S
N481   H482    1.029   .     S
C483   H491    1.111   .     S
C483   C484    1.541   .     S
C483   H492    1.107   .     S
C484   H489    1.110   .     S
C484   C485    1.525   .     S
C484   H490    1.112   .     S
C485   H486    1.110   .     S
C485   H487    1.112   .     S
H488   C155    1.111   1_565 S
N493   O495    1.300   .     A
O494   N163    1.301   1_565 S
O496   Zn502   1.962   .     S
O496   C553    1.275   .     S
O497   C498    1.285   .     A
O497   Zn503   1.983   .     S
C498   C531    1.403   .     S
C498   O606    1.275   1_455 S
O499   Zn502   1.967   .     S
O499   C556    1.295   .     S
O500   Zn503   1.953   .     S
O500   C501    1.290   .     A
C501   C526    1.452   .     S
C501   O609    1.295   1_455 S
Zn502  O506    1.953   .     S
Zn502  O504    1.983   .     S
Zn502  N536    2.016   .     S
Zn503  N534    2.016   .     S
Zn503  O507    1.967   .     S
Zn503  O505    1.962   .     S
O504   C508    1.292   .     A
O505   C618    1.271   1_455 S
O506   C509    1.294   .     A
O507   C619    1.291   1_455 S
C508   C532    1.404   .     S
C508   O560    1.271   .     S
C509   C514    1.456   .     S
C509   O562    1.291   .     S
C510   H513    1.083   .     S
C510   C521    1.403   .     A
C510   C30     1.400   1_556 S
H511   C635    1.082   1_455 S
H512   C522    1.084   .     S
C514   C525    1.406   .     A
C514   C524    1.399   .     A
C515   C526    1.403   .     A
C515   C21     1.387   1_556 S
C515   H637    1.083   1_455 S
C516   H529    1.083   .     S
C516   C517    1.389   .     A
C517   H528    1.080   .     S
C518   C519    1.404   .     A
C518   C22     1.414   1_556 S
C518   C25     1.403   1_556 S
C519   C526    1.416   .     A
C519   C523    1.422   .     A
C520   C524    1.385   .     A
C521   C522    1.389   .     A
C521   C25     1.410   1_556 S
C522   C523    1.392   .     A
C523   H530    1.077   .     S
C524   C538    1.531   .     S
C525   H566    1.082   .     S
H527   C570    1.083   .     S
C531   C807    1.347   1_455 S
C531   N713    1.439   .     S
C532   C916    1.347   1_545 S
C532   H863    1.088   1_545 S
H533   C697    1.088   .     S
N534   N536    1.283   .     D
N534   H535    1.026   .     S
N536   H537    1.029   .     S
C538   H546    1.111   .     S
C538   C539    1.541   .     S
C538   H547    1.107   .     S
C539   H544    1.110   .     S
C539   C540    1.525   .     S
C539   H545    1.112   .     S
C540   H541    1.110   .     S
C540   H542    1.112   .     S
C540   H873    1.111   1_545 S
H543   C705    1.111   .     S
N548   O550    1.300   .     A
N548   C861    1.439   1_545 S
N548   O879    1.301   1_545 S
O549   N713    1.301   .     S
O551   Zn557   1.962   .     S
O551   C608    1.275   .     S
O552   C553    1.285   .     A
O552   Zn558   1.983   .     S
C553   C586    1.403   .     S
O554   Zn557   1.967   .     S
O554   C611    1.295   .     S
O555   Zn558   1.953   .     S
O555   C556    1.290   .     A
C556   C581    1.452   .     S
Zn557  O561    1.953   .     S
Zn557  O559    1.983   .     S
Zn557  N591    2.016   .     S
Zn558  N589    2.016   .     S
Zn558  O562    1.967   .     S
Zn558  O560    1.962   .     S
O559   C563    1.292   .     A
O561   C564    1.294   .     A
C563   C587    1.404   .     S
C563   O615    1.271   .     S
C564   C569    1.456   .     S
C564   O617    1.291   .     S
C565   H568    1.083   .     S
C565   C576    1.403   .     A
C565   C85     1.400   1_556 S
H567   C577    1.084   .     S
C569   C580    1.406   .     A
C569   C579    1.399   .     A
C570   C581    1.403   .     A
C570   C76     1.387   1_556 S
C571   H584    1.083   .     S
C571   C572    1.389   .     A
C572   H583    1.080   .     S
C573   C574    1.404   .     A
C573   C77     1.414   1_556 S
C573   C80     1.403   1_556 S
C574   C581    1.416   .     A
C574   C578    1.422   .     A
C575   C579    1.385   .     A
C576   C577    1.389   .     A
C576   C80     1.410   1_556 S
C577   C578    1.392   .     A
C578   H585    1.077   .     S
C579   C593    1.531   .     S
C580   H621    1.082   .     S
H582   C625    1.083   .     S
C586   C697    1.347   .     S
C586   N768    1.439   .     S
C587   C971    1.347   1_545 S
C587   H918    1.088   1_545 S
H588   C752    1.088   .     S
N589   N591    1.283   .     D
N589   H590    1.026   .     S
N591   H592    1.029   .     S
C593   H601    1.111   .     S
C593   C594    1.541   .     S
C593   H602    1.107   .     S
C594   H599    1.110   .     S
C594   C595    1.525   .     S
C594   H600    1.112   .     S
C595   H596    1.110   .     S
C595   H597    1.112   .     S
C595   H928    1.111   1_545 S
H598   C760    1.111   .     S
N603   O605    1.300   .     A
N603   C916    1.439   1_545 S
N603   O934    1.301   1_545 S
O604   N768    1.301   .     S
O606   Zn612   1.962   .     S
O606   C498    1.275   1_655 S
O607   C608    1.285   .     A
O607   Zn613   1.983   .     S
C608   C641    1.403   .     S
O609   Zn612   1.967   .     S
O609   C501    1.295   1_655 S
O610   Zn613   1.953   .     S
O610   C611    1.290   .     A
C611   C636    1.452   .     S
Zn612  O616    1.953   .     S
Zn612  O614    1.983   .     S
Zn612  N646    2.016   .     S
Zn613  N644    2.016   .     S
Zn613  O617    1.967   .     S
Zn613  O615    1.962   .     S
O614   C618    1.292   .     A
O616   C619    1.294   .     A
C618   C642    1.404   .     S
C618   O505    1.271   1_655 S
C619   C624    1.456   .     S
C619   O507    1.291   1_655 S
C620   H623    1.083   .     S
C620   C631    1.403   .     A
C620   C140    1.400   1_556 S
H622   C632    1.084   .     S
C624   C635    1.406   .     A
C624   C634    1.399   .     A
C625   C636    1.403   .     A
C625   C131    1.387   1_556 S
C626   H639    1.083   .     S
C626   C627    1.389   .     A
C627   H638    1.080   .     S
C628   C629    1.404   .     A
C628   C132    1.414   1_556 S
C628   C135    1.403   1_556 S
C629   C636    1.416   .     A
C629   C633    1.422   .     A
C630   C634    1.385   .     A
C631   C632    1.389   .     A
C631   C135    1.410   1_556 S
C632   C633    1.392   .     A
C633   H640    1.077   .     S
C634   C648    1.531   .     S
C635   H511    1.082   1_655 S
H637   C515    1.083   1_655 S
C641   C752    1.347   .     S
C641   N823    1.439   .     S
C642   C861    1.347   1_645 S
C642   H973    1.088   1_545 S
H643   C807    1.088   .     S
N644   N646    1.283   .     D
N644   H645    1.026   .     S
N646   H647    1.029   .     S
C648   H656    1.111   .     S
C648   C649    1.541   .     S
C648   H657    1.107   .     S
C649   H654    1.110   .     S
C649   C650    1.525   .     S
C649   H655    1.112   .     S
C650   H651    1.110   .     S
C650   H652    1.112   .     S
C650   H983    1.111   1_545 S
H653   C815    1.111   .     S
N658   O660    1.300   .     A
N658   C971    1.439   1_545 S
N658   O989    1.301   1_545 S
O659   N823    1.301   .     S
O661   Zn667   1.962   .     S
O661   C718    1.275   .     S
O662   C663    1.285   .     A
O662   Zn668   1.983   .     S
C663   C696    1.403   .     S
C663   O771    1.275   1_455 S
O664   Zn667   1.967   .     S
O664   C721    1.295   .     S
O665   Zn668   1.953   .     S
O665   C666    1.290   .     A
C666   C691    1.452   .     S
C666   O774    1.295   1_455 S
Zn667  O671    1.953   .     S
Zn667  O669    1.983   .     S
Zn667  N701    2.016   .     S
Zn668  N699    2.016   .     S
Zn668  O672    1.967   .     S
Zn668  O670    1.962   .     S
O669   C673    1.292   .     A
O670   C783    1.271   1_455 S
O671   C674    1.294   .     A
O672   C784    1.291   1_455 S
C673   C697    1.404   .     S
C673   O725    1.271   .     S
C674   C679    1.456   .     S
C674   O727    1.291   .     S
C675   H678    1.083   .     S
C675   C686    1.403   .     A
C675   C195    1.400   1_556 S
H676   C800    1.082   1_455 S
H677   C687    1.084   .     S
C679   C690    1.406   .     A
C679   C689    1.399   .     A
C680   C691    1.403   .     A
C680   C186    1.387   1_556 S
C680   H802    1.083   1_455 S
C681   H694    1.083   .     S
C681   C682    1.389   .     A
C682   H693    1.080   .     S
C683   C684    1.404   .     A
C683   C187    1.414   1_556 S
C683   C190    1.403   1_556 S
C684   C691    1.416   .     A
C684   C688    1.422   .     A
C685   C689    1.385   .     A
C686   C687    1.389   .     A
C686   C190    1.410   1_556 S
C687   C688    1.392   .     A
C688   H695    1.077   .     S
C689   C703    1.531   .     S
C690   H731    1.082   .     S
H692   C735    1.083   .     S
C696   C972    1.347   1_455 S
C696   N878    1.439   .     S
H698   C862    1.088   .     S
N699   N701    1.283   .     D
N699   H700    1.026   .     S
N701   H702    1.029   .     S
C703   H711    1.111   .     S
C703   C704    1.541   .     S
C703   H712    1.107   .     S
C704   H709    1.110   .     S
C704   C705    1.525   .     S
C704   H710    1.112   .     S
C705   H706    1.110   .     S
C705   H707    1.112   .     S
H708   C870    1.111   .     S
N713   O715    1.300   .     A
O714   N878    1.301   .     S
O716   Zn722   1.962   .     S
O716   C773    1.275   .     S
O717   C718    1.285   .     A
O717   Zn723   1.983   .     S
C718   C751    1.403   .     S
O719   Zn722   1.967   .     S
O719   C776    1.295   .     S
O720   Zn723   1.953   .     S
O720   C721    1.290   .     A
C721   C746    1.452   .     S
Zn722  O726    1.953   .     S
Zn722  O724    1.983   .     S
Zn722  N756    2.016   .     S
Zn723  N754    2.016   .     S
Zn723  O727    1.967   .     S
Zn723  O725    1.962   .     S
O724   C728    1.292   .     A
O726   C729    1.294   .     A
C728   C752    1.404   .     S
C728   O780    1.271   .     S
C729   C734    1.456   .     S
C729   O782    1.291   .     S
C730   H733    1.083   .     S
C730   C741    1.403   .     A
C730   C250    1.400   1_556 S
H732   C742    1.084   .     S
C734   C745    1.406   .     A
C734   C744    1.399   .     A
C735   C746    1.403   .     A
C735   C241    1.387   1_556 S
C736   H749    1.083   .     S
C736   C737    1.389   .     A
C737   H748    1.080   .     S
C738   C739    1.404   .     A
C738   C242    1.414   1_556 S
C738   C245    1.403   1_556 S
C739   C746    1.416   .     A
C739   C743    1.422   .     A
C740   C744    1.385   .     A
C741   C742    1.389   .     A
C741   C245    1.410   1_556 S
C742   C743    1.392   .     A
C743   H750    1.077   .     S
C744   C758    1.531   .     S
C745   H786    1.082   .     S
H747   C790    1.083   .     S
C751   C862    1.347   .     S
C751   N933    1.439   .     S
H753   C917    1.088   .     S
N754   N756    1.283   .     D
N754   H755    1.026   .     S
N756   H757    1.029   .     S
C758   H766    1.111   .     S
C758   C759    1.541   .     S
C758   H767    1.107   .     S
C759   H764    1.110   .     S
C759   C760    1.525   .     S
C759   H765    1.112   .     S
C760   H761    1.110   .     S
C760   H762    1.112   .     S
H763   C925    1.111   .     S
N768   O770    1.300   .     A
O769   N933    1.301   .     S
O771   Zn777   1.962   .     S
O771   C663    1.275   1_655 S
O772   C773    1.285   .     A
O772   Zn778   1.983   .     S
C773   C806    1.403   .     S
O774   Zn777   1.967   .     S
O774   C666    1.295   1_655 S
O775   Zn778   1.953   .     S
O775   C776    1.290   .     A
C776   C801    1.452   .     S
Zn777  O781    1.953   .     S
Zn777  O779    1.983   .     S
Zn777  N811    2.016   .     S
Zn778  N809    2.016   .     S
Zn778  O782    1.967   .     S
Zn778  O780    1.962   .     S
O779   C783    1.292   .     A
O781   C784    1.294   .     A
C783   C807    1.404   .     S
C783   O670    1.271   1_655 S
C784   C789    1.456   .     S
C784   O672    1.291   1_655 S
C785   H788    1.083   .     S
C785   C796    1.403   .     A
C785   C305    1.400   1_556 S
H787   C797    1.084   .     S
C789   C800    1.406   .     A
C789   C799    1.399   .     A
C790   C801    1.403   .     A
C790   C296    1.387   1_556 S
C791   H804    1.083   .     S
C791   C792    1.389   .     A
C792   H803    1.080   .     S
C793   C794    1.404   .     A
C793   C297    1.414   1_556 S
C793   C300    1.403   1_556 S
C794   C801    1.416   .     A
C794   C798    1.422   .     A
C795   C799    1.385   .     A
C796   C797    1.389   .     A
C796   C300    1.410   1_556 S
C797   C798    1.392   .     A
C798   H805    1.077   .     S
C799   C813    1.531   .     S
C800   H676    1.082   1_655 S
H802   C680    1.083   1_655 S
C806   C917    1.347   .     S
C806   N988    1.439   .     S
C807   C531    1.347   1_655 S
H808   C972    1.088   .     S
N809   N811    1.283   .     D
N809   H810    1.026   .     S
N811   H812    1.029   .     S
C813   H821    1.111   .     S
C813   C814    1.541   .     S
C813   H822    1.107   .     S
C814   H819    1.110   .     S
C814   C815    1.525   .     S
C814   H820    1.112   .     S
C815   H816    1.110   .     S
C815   H817    1.112   .     S
H818   C980    1.111   .     S
N823   O825    1.300   .     A
O824   N988    1.301   .     S
O826   Zn832   1.962   .     S
O826   C883    1.275   .     S
O827   C828    1.285   .     A
O827   Zn833   1.983   .     S
C828   C861    1.403   .     S
C828   O936    1.275   1_455 S
O829   Zn832   1.967   .     S
O829   C886    1.295   .     S
O830   Zn833   1.953   .     S
O830   C831    1.290   .     A
C831   C856    1.452   .     S
C831   O939    1.295   1_455 S
Zn832  O836    1.953   .     S
Zn832  O834    1.983   .     S
Zn832  N866    2.016   .     S
Zn833  N864    2.016   .     S
Zn833  O837    1.967   .     S
Zn833  O835    1.962   .     S
O834   C838    1.292   .     A
O835   C948    1.271   1_455 S
O836   C839    1.294   .     A
O837   C949    1.291   1_455 S
C838   C862    1.404   .     S
C838   O890    1.271   .     S
C839   C844    1.456   .     S
C839   O892    1.291   .     S
C840   H843    1.083   .     S
C840   C851    1.403   .     A
C840   C360    1.400   1_556 S
H841   C965    1.082   1_455 S
H842   C852    1.084   .     S
C844   C855    1.406   .     A
C844   C854    1.399   .     A
C845   C856    1.403   .     A
C845   C351    1.387   1_556 S
C845   H967    1.083   1_455 S
C846   H859    1.083   .     S
C846   C847    1.389   .     A
C847   H858    1.080   .     S
C848   C849    1.404   .     A
C848   C352    1.414   1_556 S
C848   C355    1.403   1_556 S
C849   C856    1.416   .     A
C849   C853    1.422   .     A
C850   C854    1.385   .     A
C851   C852    1.389   .     A
C851   C355    1.410   1_556 S
C852   C853    1.392   .     A
C853   H860    1.077   .     S
C854   C868    1.531   .     S
C855   H896    1.082   .     S
H857   C900    1.083   .     S
C861   C642    1.347   1_465 S
C861   N548    1.439   1_565 S
H863   C532    1.088   1_565 S
N864   N866    1.283   .     D
N864   H865    1.026   .     S
N866   H867    1.029   .     S
C868   H876    1.111   .     S
C868   C869    1.541   .     S
C868   H877    1.107   .     S
C869   H874    1.110   .     S
C869   C870    1.525   .     S
C869   H875    1.112   .     S
C870   H871    1.110   .     S
C870   H872    1.112   .     S
H873   C540    1.111   1_565 S
N878   O880    1.300   .     A
O879   N548    1.301   1_565 S
O881   Zn887   1.962   .     S
O881   C938    1.275   .     S
O882   C883    1.285   .     A
O882   Zn888   1.983   .     S
C883   C916    1.403   .     S
O884   Zn887   1.967   .     S
O884   C941    1.295   .     S
O885   Zn888   1.953   .     S
O885   C886    1.290   .     A
C886   C911    1.452   .     S
Zn887  O891    1.953   .     S
Zn887  O889    1.983   .     S
Zn887  N921    2.016   .     S
Zn888  N919    2.016   .     S
Zn888  O892    1.967   .     S
Zn888  O890    1.962   .     S
O889   C893    1.292   .     A
O891   C894    1.294   .     A
C893   C917    1.404   .     S
C893   O945    1.271   .     S
C894   C899    1.456   .     S
C894   O947    1.291   .     S
C895   H898    1.083   .     S
C895   C906    1.403   .     A
C895   C415    1.400   1_556 S
H897   C907    1.084   .     S
C899   C910    1.406   .     A
C899   C909    1.399   .     A
C900   C911    1.403   .     A
C900   C406    1.387   1_556 S
C901   H914    1.083   .     S
C901   C902    1.389   .     A
C902   H913    1.080   .     S
C903   C904    1.404   .     A
C903   C407    1.414   1_556 S
C903   C410    1.403   1_556 S
C904   C911    1.416   .     A
C904   C908    1.422   .     A
C905   C909    1.385   .     A
C906   C907    1.389   .     A
C906   C410    1.410   1_556 S
C907   C908    1.392   .     A
C908   H915    1.077   .     S
C909   C923    1.531   .     S
C910   H951    1.082   .     S
H912   C955    1.083   .     S
C916   C532    1.347   1_565 S
C916   N603    1.439   1_565 S
H918   C587    1.088   1_565 S
N919   N921    1.283   .     D
N919   H920    1.026   .     S
N921   H922    1.029   .     S
C923   H931    1.111   .     S
C923   C924    1.541   .     S
C923   H932    1.107   .     S
C924   H929    1.110   .     S
C924   C925    1.525   .     S
C924   H930    1.112   .     S
C925   H926    1.110   .     S
C925   H927    1.112   .     S
H928   C595    1.111   1_565 S
N933   O935    1.300   .     A
O934   N603    1.301   1_565 S
O936   Zn942   1.962   .     S
O936   C828    1.275   1_655 S
O937   C938    1.285   .     A
O937   Zn943   1.983   .     S
C938   C971    1.403   .     S
O939   Zn942   1.967   .     S
O939   C831    1.295   1_655 S
O940   Zn943   1.953   .     S
O940   C941    1.290   .     A
C941   C966    1.452   .     S
Zn942  O946    1.953   .     S
Zn942  O944    1.983   .     S
Zn942  N976    2.016   .     S
Zn943  N974    2.016   .     S
Zn943  O947    1.967   .     S
Zn943  O945    1.962   .     S
O944   C948    1.292   .     A
O946   C949    1.294   .     A
C948   C972    1.404   .     S
C948   O835    1.271   1_655 S
C949   C954    1.456   .     S
C949   O837    1.291   1_655 S
C950   H953    1.083   .     S
C950   C961    1.403   .     A
C950   C470    1.400   1_556 S
H952   C962    1.084   .     S
C954   C965    1.406   .     A
C954   C964    1.399   .     A
C955   C966    1.403   .     A
C955   C461    1.387   1_556 S
C956   H969    1.083   .     S
C956   C957    1.389   .     A
C957   H968    1.080   .     S
C958   C959    1.404   .     A
C958   C462    1.414   1_556 S
C958   C465    1.403   1_556 S
C959   C966    1.416   .     A
C959   C963    1.422   .     A
C960   C964    1.385   .     A
C961   C962    1.389   .     A
C961   C465    1.410   1_556 S
C962   C963    1.392   .     A
C963   H970    1.077   .     S
C964   C978    1.531   .     S
C965   H841    1.082   1_655 S
H967   C845    1.083   1_655 S
C971   C587    1.347   1_565 S
C971   N658    1.439   1_565 S
C972   C696    1.347   1_655 S
H973   C642    1.088   1_565 S
N974   N976    1.283   .     D
N974   H975    1.026   .     S
N976   H977    1.029   .     S
C978   H986    1.111   .     S
C978   C979    1.541   .     S
C978   H987    1.107   .     S
C979   H984    1.110   .     S
C979   C980    1.525   .     S
C979   H985    1.112   .     S
C980   H981    1.110   .     S
C980   H982    1.112   .     S
H983   C650    1.111   1_565 S
N988   O990    1.300   .     A
O989   N658    1.301   1_565 S
