data_str_m3_o1_o10_pcu_sym.120
_audit_creation_date              2020-01-03
_audit_creation_method            'Materials Studio'
_symmetry_space_group_name_H-M    'P1'
_symmetry_Int_Tables_number       1
_symmetry_cell_setting            triclinic
loop_
_symmetry_equiv_pos_as_xyz
  x,y,z
_cell_length_a                    25.8540
_cell_length_b                    31.9453
_cell_length_c                    29.5484
_cell_angle_alpha                 89.8431
_cell_angle_beta                  98.0351
_cell_angle_gamma                 90.1489
loop_
_atom_site_label
_atom_site_type_symbol
_atom_site_fract_x
_atom_site_fract_y
_atom_site_fract_z
_atom_site_U_iso_or_equiv
_atom_site_adp_type
_atom_site_occupancy
C1     C     0.16772   0.08673   0.16685   0.00000  Uiso   1.00
C2     C     0.16561   0.24660   0.16648   0.00000  Uiso   1.00
C3     C     0.06722   0.16646   0.15506   0.00000  Uiso   1.00
C4     C     0.26612   0.16688   0.17827   0.00000  Uiso   1.00
C5     C     0.01324   0.15953   0.15022   0.00000  Uiso   1.00
C6     C     0.32009   0.17380   0.18311   0.00000  Uiso   1.00
C7     C     0.13285   0.02226   0.13418   0.00000  Uiso   1.00
C8     C     0.20048   0.31107   0.19915   0.00000  Uiso   1.00
C9     C     0.13106   0.31263   0.13372   0.00000  Uiso   1.00
C10    C     0.20227   0.02071   0.19961   0.00000  Uiso   1.00
C11    C     0.16529   0.29071   0.16634   0.00000  Uiso   1.00
C12    C     0.16804   0.04262   0.16700   0.00000  Uiso   1.00
C13    C     0.20059   0.19150   0.02804   0.00000  Uiso   1.00
C14    C     0.13274   0.14183   0.30530   0.00000  Uiso   1.00
C15    C     0.20057   0.19149   0.31342   0.00000  Uiso   1.00
C16    C     0.13276   0.14184   0.01991   0.00000  Uiso   1.00
H17    H     0.10619   0.03984   0.10962   0.00000  Uiso   1.00
H18    H     0.22714   0.29349   0.22372   0.00000  Uiso   1.00
H19    H     0.22773   0.21136   0.04944   0.00000  Uiso   1.00
H20    H     0.10561   0.12198   0.28389   0.00000  Uiso   1.00
N21    N     0.16665   0.16666   0.28573   0.00000  Uiso   1.00
N22    N     0.16668   0.16668   0.04760   0.00000  Uiso   1.00
O23    O     0.16666   0.10558   0.20487   0.00000  Uiso   1.00
O24    O     0.16667   0.22775   0.12846   0.00000  Uiso   1.00
O25    O     0.16666   0.10559   0.12843   0.00000  Uiso   1.00
O26    O     0.16667   0.22774   0.20490   0.00000  Uiso   1.00
O27    O     0.09058   0.16666   0.19595   0.00000  Uiso   1.00
O28    O     0.24275   0.16667   0.13739   0.00000  Uiso   1.00
O29    O     0.09058   0.16667   0.11950   0.00000  Uiso   1.00
O30    O     0.24275   0.16666   0.21383   0.00000  Uiso   1.00
Zn31   Zn    0.16667   0.16666   0.21771   0.00000  Uiso   1.00
Zn32   Zn    0.16667   0.16667   0.11563   0.00000  Uiso   1.00
Cl33   Cl    0.32169   0.12405   0.10604   0.00000  Uiso   1.00
Cl34   Cl    0.01164   0.20929   0.22729   0.00000  Uiso   1.00
Cl35   Cl    0.08399   0.28771   0.09364   0.00000  Uiso   1.00
Cl36   Cl    0.24934   0.04563   0.23969   0.00000  Uiso   1.00
H37    H     0.22768   0.21136   0.29852   0.00000  Uiso   1.00
H38    H     0.10565   0.12197   0.03482   0.00000  Uiso   1.00
C39    C     0.50105   0.08673   0.16685   0.00000  Uiso   1.00
C40    C     0.49895   0.24660   0.16648   0.00000  Uiso   1.00
C41    C     0.40055   0.16646   0.15506   0.00000  Uiso   1.00
C42    C     0.59945   0.16688   0.17827   0.00000  Uiso   1.00
C43    C     0.34658   0.15953   0.15022   0.00000  Uiso   1.00
C44    C     0.65342   0.17380   0.18311   0.00000  Uiso   1.00
C45    C     0.46618   0.02226   0.13418   0.00000  Uiso   1.00
C46    C     0.53382   0.31107   0.19915   0.00000  Uiso   1.00
C47    C     0.46440   0.31263   0.13372   0.00000  Uiso   1.00
C48    C     0.53560   0.02071   0.19961   0.00000  Uiso   1.00
C49    C     0.49863   0.29071   0.16634   0.00000  Uiso   1.00
C50    C     0.50137   0.04262   0.16700   0.00000  Uiso   1.00
C51    C     0.53393   0.19150   0.02804   0.00000  Uiso   1.00
C52    C     0.46607   0.14183   0.30530   0.00000  Uiso   1.00
C53    C     0.53391   0.19149   0.31342   0.00000  Uiso   1.00
C54    C     0.46609   0.14184   0.01991   0.00000  Uiso   1.00
H55    H     0.43953   0.03984   0.10962   0.00000  Uiso   1.00
H56    H     0.56047   0.29349   0.22372   0.00000  Uiso   1.00
H57    H     0.56106   0.21136   0.04944   0.00000  Uiso   1.00
H58    H     0.43894   0.12198   0.28389   0.00000  Uiso   1.00
N59    N     0.49999   0.16666   0.28573   0.00000  Uiso   1.00
N60    N     0.50001   0.16668   0.04760   0.00000  Uiso   1.00
O61    O     0.50000   0.10558   0.20487   0.00000  Uiso   1.00
O62    O     0.50000   0.22775   0.12846   0.00000  Uiso   1.00
O63    O     0.50000   0.10559   0.12843   0.00000  Uiso   1.00
O64    O     0.50000   0.22774   0.20490   0.00000  Uiso   1.00
O65    O     0.42392   0.16666   0.19595   0.00000  Uiso   1.00
O66    O     0.57608   0.16667   0.13739   0.00000  Uiso   1.00
O67    O     0.42392   0.16667   0.11950   0.00000  Uiso   1.00
O68    O     0.57608   0.16666   0.21383   0.00000  Uiso   1.00
Zn69   Zn    0.50000   0.16666   0.21771   0.00000  Uiso   1.00
Zn70   Zn    0.50000   0.16667   0.11563   0.00000  Uiso   1.00
Cl71   Cl    0.65503   0.12405   0.10604   0.00000  Uiso   1.00
Cl72   Cl    0.34497   0.20929   0.22729   0.00000  Uiso   1.00
Cl73   Cl    0.41733   0.28771   0.09364   0.00000  Uiso   1.00
Cl74   Cl    0.58267   0.04563   0.23969   0.00000  Uiso   1.00
H75    H     0.56102   0.21136   0.29852   0.00000  Uiso   1.00
H76    H     0.43898   0.12197   0.03482   0.00000  Uiso   1.00
C77    C     0.83439   0.08673   0.16685   0.00000  Uiso   1.00
C78    C     0.83228   0.24660   0.16648   0.00000  Uiso   1.00
C79    C     0.73388   0.16646   0.15506   0.00000  Uiso   1.00
C80    C     0.93278   0.16688   0.17827   0.00000  Uiso   1.00
C81    C     0.67991   0.15953   0.15022   0.00000  Uiso   1.00
C82    C     0.98676   0.17380   0.18311   0.00000  Uiso   1.00
C83    C     0.79952   0.02226   0.13418   0.00000  Uiso   1.00
C84    C     0.86715   0.31107   0.19915   0.00000  Uiso   1.00
C85    C     0.79773   0.31263   0.13372   0.00000  Uiso   1.00
C86    C     0.86894   0.02071   0.19961   0.00000  Uiso   1.00
C87    C     0.83196   0.29071   0.16634   0.00000  Uiso   1.00
C88    C     0.83471   0.04262   0.16700   0.00000  Uiso   1.00
C89    C     0.86726   0.19150   0.02804   0.00000  Uiso   1.00
C90    C     0.79941   0.14183   0.30530   0.00000  Uiso   1.00
C91    C     0.86724   0.19149   0.31342   0.00000  Uiso   1.00
C92    C     0.79943   0.14184   0.01991   0.00000  Uiso   1.00
H93    H     0.77286   0.03984   0.10962   0.00000  Uiso   1.00
H94    H     0.89381   0.29349   0.22372   0.00000  Uiso   1.00
H95    H     0.89439   0.21136   0.04944   0.00000  Uiso   1.00
H96    H     0.77227   0.12198   0.28389   0.00000  Uiso   1.00
N97    N     0.83332   0.16666   0.28573   0.00000  Uiso   1.00
N98    N     0.83335   0.16668   0.04760   0.00000  Uiso   1.00
O99    O     0.83333   0.10558   0.20487   0.00000  Uiso   1.00
O100   O     0.83334   0.22775   0.12846   0.00000  Uiso   1.00
O101   O     0.83333   0.10559   0.12843   0.00000  Uiso   1.00
O102   O     0.83334   0.22774   0.20490   0.00000  Uiso   1.00
O103   O     0.75725   0.16666   0.19595   0.00000  Uiso   1.00
O104   O     0.90942   0.16667   0.13739   0.00000  Uiso   1.00
O105   O     0.75725   0.16667   0.11950   0.00000  Uiso   1.00
O106   O     0.90942   0.16666   0.21383   0.00000  Uiso   1.00
Zn107  Zn    0.83333   0.16666   0.21771   0.00000  Uiso   1.00
Zn108  Zn    0.83333   0.16667   0.11563   0.00000  Uiso   1.00
Cl109  Cl    0.98836   0.12405   0.10604   0.00000  Uiso   1.00
Cl110  Cl    0.67831   0.20929   0.22729   0.00000  Uiso   1.00
Cl111  Cl    0.75066   0.28771   0.09364   0.00000  Uiso   1.00
Cl112  Cl    0.91601   0.04563   0.23969   0.00000  Uiso   1.00
H113   H     0.89435   0.21136   0.29852   0.00000  Uiso   1.00
H114   H     0.77232   0.12197   0.03482   0.00000  Uiso   1.00
C115   C     0.16772   0.42007   0.16685   0.00000  Uiso   1.00
C116   C     0.16561   0.57993   0.16648   0.00000  Uiso   1.00
C117   C     0.06722   0.49979   0.15506   0.00000  Uiso   1.00
C118   C     0.26612   0.50021   0.17827   0.00000  Uiso   1.00
C119   C     0.01324   0.49287   0.15022   0.00000  Uiso   1.00
C120   C     0.32009   0.50713   0.18311   0.00000  Uiso   1.00
C121   C     0.13285   0.35560   0.13418   0.00000  Uiso   1.00
C122   C     0.20048   0.64440   0.19915   0.00000  Uiso   1.00
C123   C     0.13106   0.64596   0.13372   0.00000  Uiso   1.00
C124   C     0.20227   0.35404   0.19961   0.00000  Uiso   1.00
C125   C     0.16529   0.62405   0.16634   0.00000  Uiso   1.00
C126   C     0.16804   0.37595   0.16700   0.00000  Uiso   1.00
C127   C     0.20059   0.52483   0.02804   0.00000  Uiso   1.00
C128   C     0.13274   0.47517   0.30530   0.00000  Uiso   1.00
C129   C     0.20057   0.52483   0.31342   0.00000  Uiso   1.00
C130   C     0.13276   0.47517   0.01991   0.00000  Uiso   1.00
H131   H     0.10619   0.37317   0.10962   0.00000  Uiso   1.00
H132   H     0.22714   0.62683   0.22372   0.00000  Uiso   1.00
H133   H     0.22773   0.54469   0.04944   0.00000  Uiso   1.00
H134   H     0.10561   0.45531   0.28389   0.00000  Uiso   1.00
N135   N     0.16665   0.49999   0.28573   0.00000  Uiso   1.00
N136   N     0.16668   0.50001   0.04760   0.00000  Uiso   1.00
O137   O     0.16666   0.43892   0.20487   0.00000  Uiso   1.00
O138   O     0.16667   0.56108   0.12846   0.00000  Uiso   1.00
O139   O     0.16666   0.43893   0.12843   0.00000  Uiso   1.00
O140   O     0.16667   0.56107   0.20490   0.00000  Uiso   1.00
O141   O     0.09058   0.50000   0.19595   0.00000  Uiso   1.00
O142   O     0.24275   0.50000   0.13739   0.00000  Uiso   1.00
O143   O     0.09058   0.50000   0.11950   0.00000  Uiso   1.00
O144   O     0.24275   0.50000   0.21383   0.00000  Uiso   1.00
Zn145  Zn    0.16667   0.49999   0.21771   0.00000  Uiso   1.00
Zn146  Zn    0.16667   0.50001   0.11563   0.00000  Uiso   1.00
Cl147  Cl    0.32169   0.45738   0.10604   0.00000  Uiso   1.00
Cl148  Cl    0.01164   0.54262   0.22729   0.00000  Uiso   1.00
Cl149  Cl    0.08399   0.62104   0.09364   0.00000  Uiso   1.00
Cl150  Cl    0.24934   0.37896   0.23969   0.00000  Uiso   1.00
H151   H     0.22768   0.54469   0.29852   0.00000  Uiso   1.00
H152   H     0.10565   0.45531   0.03482   0.00000  Uiso   1.00
C153   C     0.50105   0.42007   0.16685   0.00000  Uiso   1.00
C154   C     0.49895   0.57993   0.16648   0.00000  Uiso   1.00
C155   C     0.40055   0.49979   0.15506   0.00000  Uiso   1.00
C156   C     0.59945   0.50021   0.17827   0.00000  Uiso   1.00
C157   C     0.34658   0.49287   0.15022   0.00000  Uiso   1.00
C158   C     0.65342   0.50713   0.18311   0.00000  Uiso   1.00
C159   C     0.46618   0.35560   0.13418   0.00000  Uiso   1.00
C160   C     0.53382   0.64440   0.19915   0.00000  Uiso   1.00
C161   C     0.46440   0.64596   0.13372   0.00000  Uiso   1.00
C162   C     0.53560   0.35404   0.19961   0.00000  Uiso   1.00
C163   C     0.49863   0.62405   0.16634   0.00000  Uiso   1.00
C164   C     0.50137   0.37595   0.16700   0.00000  Uiso   1.00
C165   C     0.53393   0.52483   0.02804   0.00000  Uiso   1.00
C166   C     0.46607   0.47517   0.30530   0.00000  Uiso   1.00
C167   C     0.53391   0.52483   0.31342   0.00000  Uiso   1.00
C168   C     0.46609   0.47517   0.01991   0.00000  Uiso   1.00
H169   H     0.43953   0.37317   0.10962   0.00000  Uiso   1.00
H170   H     0.56047   0.62683   0.22372   0.00000  Uiso   1.00
H171   H     0.56106   0.54469   0.04944   0.00000  Uiso   1.00
H172   H     0.43894   0.45531   0.28389   0.00000  Uiso   1.00
N173   N     0.49999   0.49999   0.28573   0.00000  Uiso   1.00
N174   N     0.50001   0.50001   0.04760   0.00000  Uiso   1.00
O175   O     0.50000   0.43892   0.20487   0.00000  Uiso   1.00
O176   O     0.50000   0.56108   0.12846   0.00000  Uiso   1.00
O177   O     0.50000   0.43893   0.12843   0.00000  Uiso   1.00
O178   O     0.50000   0.56107   0.20490   0.00000  Uiso   1.00
O179   O     0.42392   0.50000   0.19595   0.00000  Uiso   1.00
O180   O     0.57608   0.50000   0.13739   0.00000  Uiso   1.00
O181   O     0.42392   0.50000   0.11950   0.00000  Uiso   1.00
O182   O     0.57608   0.50000   0.21383   0.00000  Uiso   1.00
Zn183  Zn    0.50000   0.49999   0.21771   0.00000  Uiso   1.00
Zn184  Zn    0.50000   0.50001   0.11563   0.00000  Uiso   1.00
Cl185  Cl    0.65503   0.45738   0.10604   0.00000  Uiso   1.00
Cl186  Cl    0.34497   0.54262   0.22729   0.00000  Uiso   1.00
Cl187  Cl    0.41733   0.62104   0.09364   0.00000  Uiso   1.00
Cl188  Cl    0.58267   0.37896   0.23969   0.00000  Uiso   1.00
H189   H     0.56102   0.54469   0.29852   0.00000  Uiso   1.00
H190   H     0.43898   0.45531   0.03482   0.00000  Uiso   1.00
C191   C     0.83439   0.42007   0.16685   0.00000  Uiso   1.00
C192   C     0.83228   0.57993   0.16648   0.00000  Uiso   1.00
C193   C     0.73388   0.49979   0.15506   0.00000  Uiso   1.00
C194   C     0.93278   0.50021   0.17827   0.00000  Uiso   1.00
C195   C     0.67991   0.49287   0.15022   0.00000  Uiso   1.00
C196   C     0.98676   0.50713   0.18311   0.00000  Uiso   1.00
C197   C     0.79952   0.35560   0.13418   0.00000  Uiso   1.00
C198   C     0.86715   0.64440   0.19915   0.00000  Uiso   1.00
C199   C     0.79773   0.64596   0.13372   0.00000  Uiso   1.00
C200   C     0.86894   0.35404   0.19961   0.00000  Uiso   1.00
C201   C     0.83196   0.62405   0.16634   0.00000  Uiso   1.00
C202   C     0.83471   0.37595   0.16700   0.00000  Uiso   1.00
C203   C     0.86726   0.52483   0.02804   0.00000  Uiso   1.00
C204   C     0.79941   0.47517   0.30530   0.00000  Uiso   1.00
C205   C     0.86724   0.52483   0.31342   0.00000  Uiso   1.00
C206   C     0.79943   0.47517   0.01991   0.00000  Uiso   1.00
H207   H     0.77286   0.37317   0.10962   0.00000  Uiso   1.00
H208   H     0.89381   0.62683   0.22372   0.00000  Uiso   1.00
H209   H     0.89439   0.54469   0.04944   0.00000  Uiso   1.00
H210   H     0.77227   0.45531   0.28389   0.00000  Uiso   1.00
N211   N     0.83332   0.49999   0.28573   0.00000  Uiso   1.00
N212   N     0.83335   0.50001   0.04760   0.00000  Uiso   1.00
O213   O     0.83333   0.43892   0.20487   0.00000  Uiso   1.00
O214   O     0.83334   0.56108   0.12846   0.00000  Uiso   1.00
O215   O     0.83333   0.43893   0.12843   0.00000  Uiso   1.00
O216   O     0.83334   0.56107   0.20490   0.00000  Uiso   1.00
O217   O     0.75725   0.50000   0.19595   0.00000  Uiso   1.00
O218   O     0.90942   0.50000   0.13739   0.00000  Uiso   1.00
O219   O     0.75725   0.50000   0.11950   0.00000  Uiso   1.00
O220   O     0.90942   0.50000   0.21383   0.00000  Uiso   1.00
Zn221  Zn    0.83333   0.49999   0.21771   0.00000  Uiso   1.00
Zn222  Zn    0.83333   0.50001   0.11563   0.00000  Uiso   1.00
Cl223  Cl    0.98836   0.45738   0.10604   0.00000  Uiso   1.00
Cl224  Cl    0.67831   0.54262   0.22729   0.00000  Uiso   1.00
Cl225  Cl    0.75066   0.62104   0.09364   0.00000  Uiso   1.00
Cl226  Cl    0.91601   0.37896   0.23969   0.00000  Uiso   1.00
H227   H     0.89435   0.54469   0.29852   0.00000  Uiso   1.00
H228   H     0.77232   0.45531   0.03482   0.00000  Uiso   1.00
C229   C     0.16772   0.75340   0.16685   0.00000  Uiso   1.00
C230   C     0.16561   0.91327   0.16648   0.00000  Uiso   1.00
C231   C     0.06722   0.83312   0.15506   0.00000  Uiso   1.00
C232   C     0.26612   0.83354   0.17827   0.00000  Uiso   1.00
C233   C     0.01324   0.82620   0.15022   0.00000  Uiso   1.00
C234   C     0.32009   0.84047   0.18311   0.00000  Uiso   1.00
C235   C     0.13285   0.68893   0.13418   0.00000  Uiso   1.00
C236   C     0.20048   0.97774   0.19915   0.00000  Uiso   1.00
C237   C     0.13106   0.97929   0.13372   0.00000  Uiso   1.00
C238   C     0.20227   0.68737   0.19961   0.00000  Uiso   1.00
C239   C     0.16529   0.95738   0.16634   0.00000  Uiso   1.00
C240   C     0.16804   0.70929   0.16700   0.00000  Uiso   1.00
C241   C     0.20059   0.85817   0.02804   0.00000  Uiso   1.00
C242   C     0.13274   0.80850   0.30530   0.00000  Uiso   1.00
C243   C     0.20057   0.85816   0.31342   0.00000  Uiso   1.00
C244   C     0.13276   0.80851   0.01991   0.00000  Uiso   1.00
H245   H     0.10619   0.70651   0.10962   0.00000  Uiso   1.00
H246   H     0.22714   0.96016   0.22372   0.00000  Uiso   1.00
H247   H     0.22773   0.87802   0.04944   0.00000  Uiso   1.00
H248   H     0.10561   0.78864   0.28389   0.00000  Uiso   1.00
N249   N     0.16665   0.83332   0.28573   0.00000  Uiso   1.00
N250   N     0.16668   0.83334   0.04760   0.00000  Uiso   1.00
O251   O     0.16666   0.77225   0.20487   0.00000  Uiso   1.00
O252   O     0.16667   0.89442   0.12846   0.00000  Uiso   1.00
O253   O     0.16666   0.77226   0.12843   0.00000  Uiso   1.00
O254   O     0.16667   0.89441   0.20490   0.00000  Uiso   1.00
O255   O     0.09058   0.83333   0.19595   0.00000  Uiso   1.00
O256   O     0.24275   0.83334   0.13739   0.00000  Uiso   1.00
O257   O     0.09058   0.83334   0.11950   0.00000  Uiso   1.00
O258   O     0.24275   0.83333   0.21383   0.00000  Uiso   1.00
Zn259  Zn    0.16667   0.83333   0.21771   0.00000  Uiso   1.00
Zn260  Zn    0.16667   0.83334   0.11563   0.00000  Uiso   1.00
Cl261  Cl    0.32169   0.79071   0.10604   0.00000  Uiso   1.00
Cl262  Cl    0.01164   0.87595   0.22729   0.00000  Uiso   1.00
Cl263  Cl    0.08399   0.95437   0.09364   0.00000  Uiso   1.00
Cl264  Cl    0.24934   0.71229   0.23969   0.00000  Uiso   1.00
H265   H     0.22768   0.87803   0.29852   0.00000  Uiso   1.00
H266   H     0.10565   0.78864   0.03482   0.00000  Uiso   1.00
C267   C     0.50105   0.75340   0.16685   0.00000  Uiso   1.00
C268   C     0.49895   0.91327   0.16648   0.00000  Uiso   1.00
C269   C     0.40055   0.83312   0.15506   0.00000  Uiso   1.00
C270   C     0.59945   0.83354   0.17827   0.00000  Uiso   1.00
C271   C     0.34658   0.82620   0.15022   0.00000  Uiso   1.00
C272   C     0.65342   0.84047   0.18311   0.00000  Uiso   1.00
C273   C     0.46618   0.68893   0.13418   0.00000  Uiso   1.00
C274   C     0.53382   0.97774   0.19915   0.00000  Uiso   1.00
C275   C     0.46440   0.97929   0.13372   0.00000  Uiso   1.00
C276   C     0.53560   0.68737   0.19961   0.00000  Uiso   1.00
C277   C     0.49863   0.95738   0.16634   0.00000  Uiso   1.00
C278   C     0.50137   0.70929   0.16700   0.00000  Uiso   1.00
C279   C     0.53393   0.85817   0.02804   0.00000  Uiso   1.00
C280   C     0.46607   0.80850   0.30530   0.00000  Uiso   1.00
C281   C     0.53391   0.85816   0.31342   0.00000  Uiso   1.00
C282   C     0.46609   0.80851   0.01991   0.00000  Uiso   1.00
H283   H     0.43953   0.70651   0.10962   0.00000  Uiso   1.00
H284   H     0.56047   0.96016   0.22372   0.00000  Uiso   1.00
H285   H     0.56106   0.87802   0.04944   0.00000  Uiso   1.00
H286   H     0.43894   0.78864   0.28389   0.00000  Uiso   1.00
N287   N     0.49999   0.83332   0.28573   0.00000  Uiso   1.00
N288   N     0.50001   0.83334   0.04760   0.00000  Uiso   1.00
O289   O     0.50000   0.77225   0.20487   0.00000  Uiso   1.00
O290   O     0.50000   0.89442   0.12846   0.00000  Uiso   1.00
O291   O     0.50000   0.77226   0.12843   0.00000  Uiso   1.00
O292   O     0.50000   0.89441   0.20490   0.00000  Uiso   1.00
O293   O     0.42392   0.83333   0.19595   0.00000  Uiso   1.00
O294   O     0.57608   0.83334   0.13739   0.00000  Uiso   1.00
O295   O     0.42392   0.83334   0.11950   0.00000  Uiso   1.00
O296   O     0.57608   0.83333   0.21383   0.00000  Uiso   1.00
Zn297  Zn    0.50000   0.83333   0.21771   0.00000  Uiso   1.00
Zn298  Zn    0.50000   0.83334   0.11563   0.00000  Uiso   1.00
Cl299  Cl    0.65503   0.79071   0.10604   0.00000  Uiso   1.00
Cl300  Cl    0.34497   0.87595   0.22729   0.00000  Uiso   1.00
Cl301  Cl    0.41733   0.95437   0.09364   0.00000  Uiso   1.00
Cl302  Cl    0.58267   0.71229   0.23969   0.00000  Uiso   1.00
H303   H     0.56102   0.87803   0.29852   0.00000  Uiso   1.00
H304   H     0.43898   0.78864   0.03482   0.00000  Uiso   1.00
C305   C     0.83439   0.75340   0.16685   0.00000  Uiso   1.00
C306   C     0.83228   0.91327   0.16648   0.00000  Uiso   1.00
C307   C     0.73388   0.83312   0.15506   0.00000  Uiso   1.00
C308   C     0.93278   0.83354   0.17827   0.00000  Uiso   1.00
C309   C     0.67991   0.82620   0.15022   0.00000  Uiso   1.00
C310   C     0.98676   0.84047   0.18311   0.00000  Uiso   1.00
C311   C     0.79952   0.68893   0.13418   0.00000  Uiso   1.00
C312   C     0.86715   0.97774   0.19915   0.00000  Uiso   1.00
C313   C     0.79773   0.97929   0.13372   0.00000  Uiso   1.00
C314   C     0.86894   0.68737   0.19961   0.00000  Uiso   1.00
C315   C     0.83196   0.95738   0.16634   0.00000  Uiso   1.00
C316   C     0.83471   0.70929   0.16700   0.00000  Uiso   1.00
C317   C     0.86726   0.85817   0.02804   0.00000  Uiso   1.00
C318   C     0.79941   0.80850   0.30530   0.00000  Uiso   1.00
C319   C     0.86724   0.85816   0.31342   0.00000  Uiso   1.00
C320   C     0.79943   0.80851   0.01991   0.00000  Uiso   1.00
H321   H     0.77286   0.70651   0.10962   0.00000  Uiso   1.00
H322   H     0.89381   0.96016   0.22372   0.00000  Uiso   1.00
H323   H     0.89439   0.87802   0.04944   0.00000  Uiso   1.00
H324   H     0.77227   0.78864   0.28389   0.00000  Uiso   1.00
N325   N     0.83332   0.83332   0.28573   0.00000  Uiso   1.00
N326   N     0.83335   0.83334   0.04760   0.00000  Uiso   1.00
O327   O     0.83333   0.77225   0.20487   0.00000  Uiso   1.00
O328   O     0.83334   0.89442   0.12846   0.00000  Uiso   1.00
O329   O     0.83333   0.77226   0.12843   0.00000  Uiso   1.00
O330   O     0.83334   0.89441   0.20490   0.00000  Uiso   1.00
O331   O     0.75725   0.83333   0.19595   0.00000  Uiso   1.00
O332   O     0.90942   0.83334   0.13739   0.00000  Uiso   1.00
O333   O     0.75725   0.83334   0.11950   0.00000  Uiso   1.00
O334   O     0.90942   0.83333   0.21383   0.00000  Uiso   1.00
Zn335  Zn    0.83333   0.83333   0.21771   0.00000  Uiso   1.00
Zn336  Zn    0.83333   0.83334   0.11563   0.00000  Uiso   1.00
Cl337  Cl    0.98836   0.79071   0.10604   0.00000  Uiso   1.00
Cl338  Cl    0.67831   0.87595   0.22729   0.00000  Uiso   1.00
Cl339  Cl    0.75066   0.95437   0.09364   0.00000  Uiso   1.00
Cl340  Cl    0.91601   0.71229   0.23969   0.00000  Uiso   1.00
H341   H     0.89435   0.87803   0.29852   0.00000  Uiso   1.00
H342   H     0.77232   0.78864   0.03482   0.00000  Uiso   1.00
C343   C     0.16772   0.08673   0.50019   0.00000  Uiso   1.00
C344   C     0.16561   0.24660   0.49981   0.00000  Uiso   1.00
C345   C     0.06722   0.16646   0.48840   0.00000  Uiso   1.00
C346   C     0.26612   0.16688   0.51160   0.00000  Uiso   1.00
C347   C     0.01324   0.15953   0.48355   0.00000  Uiso   1.00
C348   C     0.32009   0.17380   0.51645   0.00000  Uiso   1.00
C349   C     0.13285   0.02226   0.46751   0.00000  Uiso   1.00
C350   C     0.20048   0.31107   0.53249   0.00000  Uiso   1.00
C351   C     0.13106   0.31263   0.46705   0.00000  Uiso   1.00
C352   C     0.20227   0.02071   0.53295   0.00000  Uiso   1.00
C353   C     0.16529   0.29071   0.49967   0.00000  Uiso   1.00
C354   C     0.16804   0.04262   0.50033   0.00000  Uiso   1.00
C355   C     0.20059   0.19150   0.36137   0.00000  Uiso   1.00
C356   C     0.13274   0.14183   0.63863   0.00000  Uiso   1.00
C357   C     0.20057   0.19149   0.64675   0.00000  Uiso   1.00
C358   C     0.13276   0.14184   0.35324   0.00000  Uiso   1.00
H359   H     0.10619   0.03984   0.44295   0.00000  Uiso   1.00
H360   H     0.22714   0.29349   0.55705   0.00000  Uiso   1.00
H361   H     0.22773   0.21136   0.38277   0.00000  Uiso   1.00
H362   H     0.10561   0.12198   0.61723   0.00000  Uiso   1.00
N363   N     0.16665   0.16666   0.61907   0.00000  Uiso   1.00
N364   N     0.16668   0.16668   0.38093   0.00000  Uiso   1.00
O365   O     0.16666   0.10558   0.53821   0.00000  Uiso   1.00
O366   O     0.16667   0.22775   0.46179   0.00000  Uiso   1.00
O367   O     0.16666   0.10559   0.46176   0.00000  Uiso   1.00
O368   O     0.16667   0.22774   0.53824   0.00000  Uiso   1.00
O369   O     0.09058   0.16666   0.52928   0.00000  Uiso   1.00
O370   O     0.24275   0.16667   0.47072   0.00000  Uiso   1.00
O371   O     0.09058   0.16667   0.45284   0.00000  Uiso   1.00
O372   O     0.24275   0.16666   0.54716   0.00000  Uiso   1.00
Zn373  Zn    0.16667   0.16666   0.55104   0.00000  Uiso   1.00
Zn374  Zn    0.16667   0.16667   0.44896   0.00000  Uiso   1.00
Cl375  Cl    0.32169   0.12405   0.43938   0.00000  Uiso   1.00
Cl376  Cl    0.01164   0.20929   0.56062   0.00000  Uiso   1.00
Cl377  Cl    0.08399   0.28771   0.42697   0.00000  Uiso   1.00
Cl378  Cl    0.24934   0.04563   0.57303   0.00000  Uiso   1.00
H379   H     0.22768   0.21136   0.63185   0.00000  Uiso   1.00
H380   H     0.10565   0.12197   0.36815   0.00000  Uiso   1.00
C381   C     0.50105   0.08673   0.50019   0.00000  Uiso   1.00
C382   C     0.49895   0.24660   0.49981   0.00000  Uiso   1.00
C383   C     0.40055   0.16646   0.48840   0.00000  Uiso   1.00
C384   C     0.59945   0.16688   0.51160   0.00000  Uiso   1.00
C385   C     0.34658   0.15953   0.48355   0.00000  Uiso   1.00
C386   C     0.65342   0.17380   0.51645   0.00000  Uiso   1.00
C387   C     0.46618   0.02226   0.46751   0.00000  Uiso   1.00
C388   C     0.53382   0.31107   0.53249   0.00000  Uiso   1.00
C389   C     0.46440   0.31263   0.46705   0.00000  Uiso   1.00
C390   C     0.53560   0.02071   0.53295   0.00000  Uiso   1.00
C391   C     0.49863   0.29071   0.49967   0.00000  Uiso   1.00
C392   C     0.50137   0.04262   0.50033   0.00000  Uiso   1.00
C393   C     0.53393   0.19150   0.36137   0.00000  Uiso   1.00
C394   C     0.46607   0.14183   0.63863   0.00000  Uiso   1.00
C395   C     0.53391   0.19149   0.64675   0.00000  Uiso   1.00
C396   C     0.46609   0.14184   0.35324   0.00000  Uiso   1.00
H397   H     0.43953   0.03984   0.44295   0.00000  Uiso   1.00
H398   H     0.56047   0.29349   0.55705   0.00000  Uiso   1.00
H399   H     0.56106   0.21136   0.38277   0.00000  Uiso   1.00
H400   H     0.43894   0.12198   0.61723   0.00000  Uiso   1.00
N401   N     0.49999   0.16666   0.61907   0.00000  Uiso   1.00
N402   N     0.50001   0.16668   0.38093   0.00000  Uiso   1.00
O403   O     0.50000   0.10558   0.53821   0.00000  Uiso   1.00
O404   O     0.50000   0.22775   0.46179   0.00000  Uiso   1.00
O405   O     0.50000   0.10559   0.46176   0.00000  Uiso   1.00
O406   O     0.50000   0.22774   0.53824   0.00000  Uiso   1.00
O407   O     0.42392   0.16666   0.52928   0.00000  Uiso   1.00
O408   O     0.57608   0.16667   0.47072   0.00000  Uiso   1.00
O409   O     0.42392   0.16667   0.45284   0.00000  Uiso   1.00
O410   O     0.57608   0.16666   0.54716   0.00000  Uiso   1.00
Zn411  Zn    0.50000   0.16666   0.55104   0.00000  Uiso   1.00
Zn412  Zn    0.50000   0.16667   0.44896   0.00000  Uiso   1.00
Cl413  Cl    0.65503   0.12405   0.43938   0.00000  Uiso   1.00
Cl414  Cl    0.34497   0.20929   0.56062   0.00000  Uiso   1.00
Cl415  Cl    0.41733   0.28771   0.42697   0.00000  Uiso   1.00
Cl416  Cl    0.58267   0.04563   0.57303   0.00000  Uiso   1.00
H417   H     0.56102   0.21136   0.63185   0.00000  Uiso   1.00
H418   H     0.43898   0.12197   0.36815   0.00000  Uiso   1.00
C419   C     0.83439   0.08673   0.50019   0.00000  Uiso   1.00
C420   C     0.83228   0.24660   0.49981   0.00000  Uiso   1.00
C421   C     0.73388   0.16646   0.48840   0.00000  Uiso   1.00
C422   C     0.93278   0.16688   0.51160   0.00000  Uiso   1.00
C423   C     0.67991   0.15953   0.48355   0.00000  Uiso   1.00
C424   C     0.98676   0.17380   0.51645   0.00000  Uiso   1.00
C425   C     0.79952   0.02226   0.46751   0.00000  Uiso   1.00
C426   C     0.86715   0.31107   0.53249   0.00000  Uiso   1.00
C427   C     0.79773   0.31263   0.46705   0.00000  Uiso   1.00
C428   C     0.86894   0.02071   0.53295   0.00000  Uiso   1.00
C429   C     0.83196   0.29071   0.49967   0.00000  Uiso   1.00
C430   C     0.83471   0.04262   0.50033   0.00000  Uiso   1.00
C431   C     0.86726   0.19150   0.36137   0.00000  Uiso   1.00
C432   C     0.79941   0.14183   0.63863   0.00000  Uiso   1.00
C433   C     0.86724   0.19149   0.64675   0.00000  Uiso   1.00
C434   C     0.79943   0.14184   0.35324   0.00000  Uiso   1.00
H435   H     0.77286   0.03984   0.44295   0.00000  Uiso   1.00
H436   H     0.89381   0.29349   0.55705   0.00000  Uiso   1.00
H437   H     0.89439   0.21136   0.38277   0.00000  Uiso   1.00
H438   H     0.77227   0.12198   0.61723   0.00000  Uiso   1.00
N439   N     0.83332   0.16666   0.61907   0.00000  Uiso   1.00
N440   N     0.83335   0.16668   0.38093   0.00000  Uiso   1.00
O441   O     0.83333   0.10558   0.53821   0.00000  Uiso   1.00
O442   O     0.83334   0.22775   0.46179   0.00000  Uiso   1.00
O443   O     0.83333   0.10559   0.46176   0.00000  Uiso   1.00
O444   O     0.83334   0.22774   0.53824   0.00000  Uiso   1.00
O445   O     0.75725   0.16666   0.52928   0.00000  Uiso   1.00
O446   O     0.90942   0.16667   0.47072   0.00000  Uiso   1.00
O447   O     0.75725   0.16667   0.45284   0.00000  Uiso   1.00
O448   O     0.90942   0.16666   0.54716   0.00000  Uiso   1.00
Zn449  Zn    0.83333   0.16666   0.55104   0.00000  Uiso   1.00
Zn450  Zn    0.83333   0.16667   0.44896   0.00000  Uiso   1.00
Cl451  Cl    0.98836   0.12405   0.43938   0.00000  Uiso   1.00
Cl452  Cl    0.67831   0.20929   0.56062   0.00000  Uiso   1.00
Cl453  Cl    0.75066   0.28771   0.42697   0.00000  Uiso   1.00
Cl454  Cl    0.91601   0.04563   0.57303   0.00000  Uiso   1.00
H455   H     0.89435   0.21136   0.63185   0.00000  Uiso   1.00
H456   H     0.77232   0.12197   0.36815   0.00000  Uiso   1.00
C457   C     0.16772   0.42007   0.50019   0.00000  Uiso   1.00
C458   C     0.16561   0.57993   0.49981   0.00000  Uiso   1.00
C459   C     0.06722   0.49979   0.48840   0.00000  Uiso   1.00
C460   C     0.26612   0.50021   0.51160   0.00000  Uiso   1.00
C461   C     0.01324   0.49287   0.48355   0.00000  Uiso   1.00
C462   C     0.32009   0.50713   0.51645   0.00000  Uiso   1.00
C463   C     0.13285   0.35560   0.46751   0.00000  Uiso   1.00
C464   C     0.20048   0.64440   0.53249   0.00000  Uiso   1.00
C465   C     0.13106   0.64596   0.46705   0.00000  Uiso   1.00
C466   C     0.20227   0.35404   0.53295   0.00000  Uiso   1.00
C467   C     0.16529   0.62405   0.49967   0.00000  Uiso   1.00
C468   C     0.16804   0.37595   0.50033   0.00000  Uiso   1.00
C469   C     0.20059   0.52483   0.36137   0.00000  Uiso   1.00
C470   C     0.13274   0.47517   0.63863   0.00000  Uiso   1.00
C471   C     0.20057   0.52483   0.64675   0.00000  Uiso   1.00
C472   C     0.13276   0.47517   0.35324   0.00000  Uiso   1.00
H473   H     0.10619   0.37317   0.44295   0.00000  Uiso   1.00
H474   H     0.22714   0.62683   0.55705   0.00000  Uiso   1.00
H475   H     0.22773   0.54469   0.38277   0.00000  Uiso   1.00
H476   H     0.10561   0.45531   0.61723   0.00000  Uiso   1.00
N477   N     0.16665   0.49999   0.61907   0.00000  Uiso   1.00
N478   N     0.16668   0.50001   0.38093   0.00000  Uiso   1.00
O479   O     0.16666   0.43892   0.53821   0.00000  Uiso   1.00
O480   O     0.16667   0.56108   0.46179   0.00000  Uiso   1.00
O481   O     0.16666   0.43893   0.46176   0.00000  Uiso   1.00
O482   O     0.16667   0.56107   0.53824   0.00000  Uiso   1.00
O483   O     0.09058   0.50000   0.52928   0.00000  Uiso   1.00
O484   O     0.24275   0.50000   0.47072   0.00000  Uiso   1.00
O485   O     0.09058   0.50000   0.45284   0.00000  Uiso   1.00
O486   O     0.24275   0.50000   0.54716   0.00000  Uiso   1.00
Zn487  Zn    0.16667   0.49999   0.55104   0.00000  Uiso   1.00
Zn488  Zn    0.16667   0.50001   0.44896   0.00000  Uiso   1.00
Cl489  Cl    0.32169   0.45738   0.43938   0.00000  Uiso   1.00
Cl490  Cl    0.01164   0.54262   0.56062   0.00000  Uiso   1.00
Cl491  Cl    0.08399   0.62104   0.42697   0.00000  Uiso   1.00
Cl492  Cl    0.24934   0.37896   0.57303   0.00000  Uiso   1.00
H493   H     0.22768   0.54469   0.63185   0.00000  Uiso   1.00
H494   H     0.10565   0.45531   0.36815   0.00000  Uiso   1.00
C495   C     0.50105   0.42007   0.50019   0.00000  Uiso   1.00
C496   C     0.49895   0.57993   0.49981   0.00000  Uiso   1.00
C497   C     0.40055   0.49979   0.48840   0.00000  Uiso   1.00
C498   C     0.59945   0.50021   0.51160   0.00000  Uiso   1.00
C499   C     0.34658   0.49287   0.48355   0.00000  Uiso   1.00
C500   C     0.65342   0.50713   0.51645   0.00000  Uiso   1.00
C501   C     0.46618   0.35560   0.46751   0.00000  Uiso   1.00
C502   C     0.53382   0.64440   0.53249   0.00000  Uiso   1.00
C503   C     0.46440   0.64596   0.46705   0.00000  Uiso   1.00
C504   C     0.53560   0.35404   0.53295   0.00000  Uiso   1.00
C505   C     0.49863   0.62405   0.49967   0.00000  Uiso   1.00
C506   C     0.50137   0.37595   0.50033   0.00000  Uiso   1.00
C507   C     0.53393   0.52483   0.36137   0.00000  Uiso   1.00
C508   C     0.46607   0.47517   0.63863   0.00000  Uiso   1.00
C509   C     0.53391   0.52483   0.64675   0.00000  Uiso   1.00
C510   C     0.46609   0.47517   0.35324   0.00000  Uiso   1.00
H511   H     0.43953   0.37317   0.44295   0.00000  Uiso   1.00
H512   H     0.56047   0.62683   0.55705   0.00000  Uiso   1.00
H513   H     0.56106   0.54469   0.38277   0.00000  Uiso   1.00
H514   H     0.43894   0.45531   0.61723   0.00000  Uiso   1.00
N515   N     0.49999   0.49999   0.61907   0.00000  Uiso   1.00
N516   N     0.50001   0.50001   0.38093   0.00000  Uiso   1.00
O517   O     0.50000   0.43892   0.53821   0.00000  Uiso   1.00
O518   O     0.50000   0.56108   0.46179   0.00000  Uiso   1.00
O519   O     0.50000   0.43893   0.46176   0.00000  Uiso   1.00
O520   O     0.50000   0.56107   0.53824   0.00000  Uiso   1.00
O521   O     0.42392   0.50000   0.52928   0.00000  Uiso   1.00
O522   O     0.57608   0.50000   0.47072   0.00000  Uiso   1.00
O523   O     0.42392   0.50000   0.45284   0.00000  Uiso   1.00
O524   O     0.57608   0.50000   0.54716   0.00000  Uiso   1.00
Zn525  Zn    0.50000   0.49999   0.55104   0.00000  Uiso   1.00
Zn526  Zn    0.50000   0.50001   0.44896   0.00000  Uiso   1.00
Cl527  Cl    0.65503   0.45738   0.43938   0.00000  Uiso   1.00
Cl528  Cl    0.34497   0.54262   0.56062   0.00000  Uiso   1.00
Cl529  Cl    0.41733   0.62104   0.42697   0.00000  Uiso   1.00
Cl530  Cl    0.58267   0.37896   0.57303   0.00000  Uiso   1.00
H531   H     0.56102   0.54469   0.63185   0.00000  Uiso   1.00
H532   H     0.43898   0.45531   0.36815   0.00000  Uiso   1.00
C533   C     0.83439   0.42007   0.50019   0.00000  Uiso   1.00
C534   C     0.83228   0.57993   0.49981   0.00000  Uiso   1.00
C535   C     0.73388   0.49979   0.48840   0.00000  Uiso   1.00
C536   C     0.93278   0.50021   0.51160   0.00000  Uiso   1.00
C537   C     0.67991   0.49287   0.48355   0.00000  Uiso   1.00
C538   C     0.98676   0.50713   0.51645   0.00000  Uiso   1.00
C539   C     0.79952   0.35560   0.46751   0.00000  Uiso   1.00
C540   C     0.86715   0.64440   0.53249   0.00000  Uiso   1.00
C541   C     0.79773   0.64596   0.46705   0.00000  Uiso   1.00
C542   C     0.86894   0.35404   0.53295   0.00000  Uiso   1.00
C543   C     0.83196   0.62405   0.49967   0.00000  Uiso   1.00
C544   C     0.83471   0.37595   0.50033   0.00000  Uiso   1.00
C545   C     0.86726   0.52483   0.36137   0.00000  Uiso   1.00
C546   C     0.79941   0.47517   0.63863   0.00000  Uiso   1.00
C547   C     0.86724   0.52483   0.64675   0.00000  Uiso   1.00
C548   C     0.79943   0.47517   0.35324   0.00000  Uiso   1.00
H549   H     0.77286   0.37317   0.44295   0.00000  Uiso   1.00
H550   H     0.89381   0.62683   0.55705   0.00000  Uiso   1.00
H551   H     0.89439   0.54469   0.38277   0.00000  Uiso   1.00
H552   H     0.77227   0.45531   0.61723   0.00000  Uiso   1.00
N553   N     0.83332   0.49999   0.61907   0.00000  Uiso   1.00
N554   N     0.83335   0.50001   0.38093   0.00000  Uiso   1.00
O555   O     0.83333   0.43892   0.53821   0.00000  Uiso   1.00
O556   O     0.83334   0.56108   0.46179   0.00000  Uiso   1.00
O557   O     0.83333   0.43893   0.46176   0.00000  Uiso   1.00
O558   O     0.83334   0.56107   0.53824   0.00000  Uiso   1.00
O559   O     0.75725   0.50000   0.52928   0.00000  Uiso   1.00
O560   O     0.90942   0.50000   0.47072   0.00000  Uiso   1.00
O561   O     0.75725   0.50000   0.45284   0.00000  Uiso   1.00
O562   O     0.90942   0.50000   0.54716   0.00000  Uiso   1.00
Zn563  Zn    0.83333   0.49999   0.55104   0.00000  Uiso   1.00
Zn564  Zn    0.83333   0.50001   0.44896   0.00000  Uiso   1.00
Cl565  Cl    0.98836   0.45738   0.43938   0.00000  Uiso   1.00
Cl566  Cl    0.67831   0.54262   0.56062   0.00000  Uiso   1.00
Cl567  Cl    0.75066   0.62104   0.42697   0.00000  Uiso   1.00
Cl568  Cl    0.91601   0.37896   0.57303   0.00000  Uiso   1.00
H569   H     0.89435   0.54469   0.63185   0.00000  Uiso   1.00
H570   H     0.77232   0.45531   0.36815   0.00000  Uiso   1.00
C571   C     0.16772   0.75340   0.50019   0.00000  Uiso   1.00
C572   C     0.16561   0.91327   0.49981   0.00000  Uiso   1.00
C573   C     0.06722   0.83312   0.48840   0.00000  Uiso   1.00
C574   C     0.26612   0.83354   0.51160   0.00000  Uiso   1.00
C575   C     0.01324   0.82620   0.48355   0.00000  Uiso   1.00
C576   C     0.32009   0.84047   0.51645   0.00000  Uiso   1.00
C577   C     0.13285   0.68893   0.46751   0.00000  Uiso   1.00
C578   C     0.20048   0.97774   0.53249   0.00000  Uiso   1.00
C579   C     0.13106   0.97929   0.46705   0.00000  Uiso   1.00
C580   C     0.20227   0.68737   0.53295   0.00000  Uiso   1.00
C581   C     0.16529   0.95738   0.49967   0.00000  Uiso   1.00
C582   C     0.16804   0.70929   0.50033   0.00000  Uiso   1.00
C583   C     0.20059   0.85817   0.36137   0.00000  Uiso   1.00
C584   C     0.13274   0.80850   0.63863   0.00000  Uiso   1.00
C585   C     0.20057   0.85816   0.64675   0.00000  Uiso   1.00
C586   C     0.13276   0.80851   0.35324   0.00000  Uiso   1.00
H587   H     0.10619   0.70651   0.44295   0.00000  Uiso   1.00
H588   H     0.22714   0.96016   0.55705   0.00000  Uiso   1.00
H589   H     0.22773   0.87802   0.38277   0.00000  Uiso   1.00
H590   H     0.10561   0.78864   0.61723   0.00000  Uiso   1.00
N591   N     0.16665   0.83332   0.61907   0.00000  Uiso   1.00
N592   N     0.16668   0.83334   0.38093   0.00000  Uiso   1.00
O593   O     0.16666   0.77225   0.53821   0.00000  Uiso   1.00
O594   O     0.16667   0.89442   0.46179   0.00000  Uiso   1.00
O595   O     0.16666   0.77226   0.46176   0.00000  Uiso   1.00
O596   O     0.16667   0.89441   0.53824   0.00000  Uiso   1.00
O597   O     0.09058   0.83333   0.52928   0.00000  Uiso   1.00
O598   O     0.24275   0.83334   0.47072   0.00000  Uiso   1.00
O599   O     0.09058   0.83334   0.45284   0.00000  Uiso   1.00
O600   O     0.24275   0.83333   0.54716   0.00000  Uiso   1.00
Zn601  Zn    0.16667   0.83333   0.55104   0.00000  Uiso   1.00
Zn602  Zn    0.16667   0.83334   0.44896   0.00000  Uiso   1.00
Cl603  Cl    0.32169   0.79071   0.43938   0.00000  Uiso   1.00
Cl604  Cl    0.01164   0.87595   0.56062   0.00000  Uiso   1.00
Cl605  Cl    0.08399   0.95437   0.42697   0.00000  Uiso   1.00
Cl606  Cl    0.24934   0.71229   0.57303   0.00000  Uiso   1.00
H607   H     0.22768   0.87803   0.63185   0.00000  Uiso   1.00
H608   H     0.10565   0.78864   0.36815   0.00000  Uiso   1.00
C609   C     0.50105   0.75340   0.50019   0.00000  Uiso   1.00
C610   C     0.49895   0.91327   0.49981   0.00000  Uiso   1.00
C611   C     0.40055   0.83312   0.48840   0.00000  Uiso   1.00
C612   C     0.59945   0.83354   0.51160   0.00000  Uiso   1.00
C613   C     0.34658   0.82620   0.48355   0.00000  Uiso   1.00
C614   C     0.65342   0.84047   0.51645   0.00000  Uiso   1.00
C615   C     0.46618   0.68893   0.46751   0.00000  Uiso   1.00
C616   C     0.53382   0.97774   0.53249   0.00000  Uiso   1.00
C617   C     0.46440   0.97929   0.46705   0.00000  Uiso   1.00
C618   C     0.53560   0.68737   0.53295   0.00000  Uiso   1.00
C619   C     0.49863   0.95738   0.49967   0.00000  Uiso   1.00
C620   C     0.50137   0.70929   0.50033   0.00000  Uiso   1.00
C621   C     0.53393   0.85817   0.36137   0.00000  Uiso   1.00
C622   C     0.46607   0.80850   0.63863   0.00000  Uiso   1.00
C623   C     0.53391   0.85816   0.64675   0.00000  Uiso   1.00
C624   C     0.46609   0.80851   0.35324   0.00000  Uiso   1.00
H625   H     0.43953   0.70651   0.44295   0.00000  Uiso   1.00
H626   H     0.56047   0.96016   0.55705   0.00000  Uiso   1.00
H627   H     0.56106   0.87802   0.38277   0.00000  Uiso   1.00
H628   H     0.43894   0.78864   0.61723   0.00000  Uiso   1.00
N629   N     0.49999   0.83332   0.61907   0.00000  Uiso   1.00
N630   N     0.50001   0.83334   0.38093   0.00000  Uiso   1.00
O631   O     0.50000   0.77225   0.53821   0.00000  Uiso   1.00
O632   O     0.50000   0.89442   0.46179   0.00000  Uiso   1.00
O633   O     0.50000   0.77226   0.46176   0.00000  Uiso   1.00
O634   O     0.50000   0.89441   0.53824   0.00000  Uiso   1.00
O635   O     0.42392   0.83333   0.52928   0.00000  Uiso   1.00
O636   O     0.57608   0.83334   0.47072   0.00000  Uiso   1.00
O637   O     0.42392   0.83334   0.45284   0.00000  Uiso   1.00
O638   O     0.57608   0.83333   0.54716   0.00000  Uiso   1.00
Zn639  Zn    0.50000   0.83333   0.55104   0.00000  Uiso   1.00
Zn640  Zn    0.50000   0.83334   0.44896   0.00000  Uiso   1.00
Cl641  Cl    0.65503   0.79071   0.43938   0.00000  Uiso   1.00
Cl642  Cl    0.34497   0.87595   0.56062   0.00000  Uiso   1.00
Cl643  Cl    0.41733   0.95437   0.42697   0.00000  Uiso   1.00
Cl644  Cl    0.58267   0.71229   0.57303   0.00000  Uiso   1.00
H645   H     0.56102   0.87803   0.63185   0.00000  Uiso   1.00
H646   H     0.43898   0.78864   0.36815   0.00000  Uiso   1.00
C647   C     0.83439   0.75340   0.50019   0.00000  Uiso   1.00
C648   C     0.83228   0.91327   0.49981   0.00000  Uiso   1.00
C649   C     0.73388   0.83312   0.48840   0.00000  Uiso   1.00
C650   C     0.93278   0.83354   0.51160   0.00000  Uiso   1.00
C651   C     0.67991   0.82620   0.48355   0.00000  Uiso   1.00
C652   C     0.98676   0.84047   0.51645   0.00000  Uiso   1.00
C653   C     0.79952   0.68893   0.46751   0.00000  Uiso   1.00
C654   C     0.86715   0.97774   0.53249   0.00000  Uiso   1.00
C655   C     0.79773   0.97929   0.46705   0.00000  Uiso   1.00
C656   C     0.86894   0.68737   0.53295   0.00000  Uiso   1.00
C657   C     0.83196   0.95738   0.49967   0.00000  Uiso   1.00
C658   C     0.83471   0.70929   0.50033   0.00000  Uiso   1.00
C659   C     0.86726   0.85817   0.36137   0.00000  Uiso   1.00
C660   C     0.79941   0.80850   0.63863   0.00000  Uiso   1.00
C661   C     0.86724   0.85816   0.64675   0.00000  Uiso   1.00
C662   C     0.79943   0.80851   0.35324   0.00000  Uiso   1.00
H663   H     0.77286   0.70651   0.44295   0.00000  Uiso   1.00
H664   H     0.89381   0.96016   0.55705   0.00000  Uiso   1.00
H665   H     0.89439   0.87802   0.38277   0.00000  Uiso   1.00
H666   H     0.77227   0.78864   0.61723   0.00000  Uiso   1.00
N667   N     0.83332   0.83332   0.61907   0.00000  Uiso   1.00
N668   N     0.83335   0.83334   0.38093   0.00000  Uiso   1.00
O669   O     0.83333   0.77225   0.53821   0.00000  Uiso   1.00
O670   O     0.83334   0.89442   0.46179   0.00000  Uiso   1.00
O671   O     0.83333   0.77226   0.46176   0.00000  Uiso   1.00
O672   O     0.83334   0.89441   0.53824   0.00000  Uiso   1.00
O673   O     0.75725   0.83333   0.52928   0.00000  Uiso   1.00
O674   O     0.90942   0.83334   0.47072   0.00000  Uiso   1.00
O675   O     0.75725   0.83334   0.45284   0.00000  Uiso   1.00
O676   O     0.90942   0.83333   0.54716   0.00000  Uiso   1.00
Zn677  Zn    0.83333   0.83333   0.55104   0.00000  Uiso   1.00
Zn678  Zn    0.83333   0.83334   0.44896   0.00000  Uiso   1.00
Cl679  Cl    0.98836   0.79071   0.43938   0.00000  Uiso   1.00
Cl680  Cl    0.67831   0.87595   0.56062   0.00000  Uiso   1.00
Cl681  Cl    0.75066   0.95437   0.42697   0.00000  Uiso   1.00
Cl682  Cl    0.91601   0.71229   0.57303   0.00000  Uiso   1.00
H683   H     0.89435   0.87803   0.63185   0.00000  Uiso   1.00
H684   H     0.77232   0.78864   0.36815   0.00000  Uiso   1.00
C685   C     0.16772   0.08673   0.83352   0.00000  Uiso   1.00
C686   C     0.16561   0.24660   0.83315   0.00000  Uiso   1.00
C687   C     0.06722   0.16646   0.82173   0.00000  Uiso   1.00
C688   C     0.26612   0.16688   0.84494   0.00000  Uiso   1.00
C689   C     0.01324   0.15953   0.81689   0.00000  Uiso   1.00
C690   C     0.32009   0.17380   0.84978   0.00000  Uiso   1.00
C691   C     0.13285   0.02226   0.80085   0.00000  Uiso   1.00
C692   C     0.20048   0.31107   0.86582   0.00000  Uiso   1.00
C693   C     0.13106   0.31263   0.80039   0.00000  Uiso   1.00
C694   C     0.20227   0.02071   0.86628   0.00000  Uiso   1.00
C695   C     0.16529   0.29071   0.83300   0.00000  Uiso   1.00
C696   C     0.16804   0.04262   0.83366   0.00000  Uiso   1.00
C697   C     0.20059   0.19150   0.69470   0.00000  Uiso   1.00
C698   C     0.13274   0.14183   0.97196   0.00000  Uiso   1.00
C699   C     0.20057   0.19149   0.98009   0.00000  Uiso   1.00
C700   C     0.13276   0.14184   0.68658   0.00000  Uiso   1.00
H701   H     0.10619   0.03984   0.77628   0.00000  Uiso   1.00
H702   H     0.22714   0.29349   0.89038   0.00000  Uiso   1.00
H703   H     0.22773   0.21136   0.71611   0.00000  Uiso   1.00
H704   H     0.10561   0.12198   0.95056   0.00000  Uiso   1.00
N705   N     0.16665   0.16666   0.95240   0.00000  Uiso   1.00
N706   N     0.16668   0.16668   0.71427   0.00000  Uiso   1.00
O707   O     0.16666   0.10558   0.87154   0.00000  Uiso   1.00
O708   O     0.16667   0.22775   0.79513   0.00000  Uiso   1.00
O709   O     0.16666   0.10559   0.79510   0.00000  Uiso   1.00
O710   O     0.16667   0.22774   0.87157   0.00000  Uiso   1.00
O711   O     0.09058   0.16666   0.86261   0.00000  Uiso   1.00
O712   O     0.24275   0.16667   0.80405   0.00000  Uiso   1.00
O713   O     0.09058   0.16667   0.78617   0.00000  Uiso   1.00
O714   O     0.24275   0.16666   0.88050   0.00000  Uiso   1.00
Zn715  Zn    0.16667   0.16666   0.88437   0.00000  Uiso   1.00
Zn716  Zn    0.16667   0.16667   0.78229   0.00000  Uiso   1.00
Cl717  Cl    0.32169   0.12405   0.77271   0.00000  Uiso   1.00
Cl718  Cl    0.01164   0.20929   0.89395   0.00000  Uiso   1.00
Cl719  Cl    0.08399   0.28771   0.76031   0.00000  Uiso   1.00
Cl720  Cl    0.24934   0.04563   0.90636   0.00000  Uiso   1.00
H721   H     0.22768   0.21136   0.96518   0.00000  Uiso   1.00
H722   H     0.10565   0.12197   0.70148   0.00000  Uiso   1.00
C723   C     0.50105   0.08673   0.83352   0.00000  Uiso   1.00
C724   C     0.49895   0.24660   0.83315   0.00000  Uiso   1.00
C725   C     0.40055   0.16646   0.82173   0.00000  Uiso   1.00
C726   C     0.59945   0.16688   0.84494   0.00000  Uiso   1.00
C727   C     0.34658   0.15953   0.81689   0.00000  Uiso   1.00
C728   C     0.65342   0.17380   0.84978   0.00000  Uiso   1.00
C729   C     0.46618   0.02226   0.80085   0.00000  Uiso   1.00
C730   C     0.53382   0.31107   0.86582   0.00000  Uiso   1.00
C731   C     0.46440   0.31263   0.80039   0.00000  Uiso   1.00
C732   C     0.53560   0.02071   0.86628   0.00000  Uiso   1.00
C733   C     0.49863   0.29071   0.83300   0.00000  Uiso   1.00
C734   C     0.50137   0.04262   0.83366   0.00000  Uiso   1.00
C735   C     0.53393   0.19150   0.69470   0.00000  Uiso   1.00
C736   C     0.46607   0.14183   0.97196   0.00000  Uiso   1.00
C737   C     0.53391   0.19149   0.98009   0.00000  Uiso   1.00
C738   C     0.46609   0.14184   0.68658   0.00000  Uiso   1.00
H739   H     0.43953   0.03984   0.77628   0.00000  Uiso   1.00
H740   H     0.56047   0.29349   0.89038   0.00000  Uiso   1.00
H741   H     0.56106   0.21136   0.71611   0.00000  Uiso   1.00
H742   H     0.43894   0.12198   0.95056   0.00000  Uiso   1.00
N743   N     0.49999   0.16666   0.95240   0.00000  Uiso   1.00
N744   N     0.50001   0.16668   0.71427   0.00000  Uiso   1.00
O745   O     0.50000   0.10558   0.87154   0.00000  Uiso   1.00
O746   O     0.50000   0.22775   0.79513   0.00000  Uiso   1.00
O747   O     0.50000   0.10559   0.79510   0.00000  Uiso   1.00
O748   O     0.50000   0.22774   0.87157   0.00000  Uiso   1.00
O749   O     0.42392   0.16666   0.86261   0.00000  Uiso   1.00
O750   O     0.57608   0.16667   0.80405   0.00000  Uiso   1.00
O751   O     0.42392   0.16667   0.78617   0.00000  Uiso   1.00
O752   O     0.57608   0.16666   0.88050   0.00000  Uiso   1.00
Zn753  Zn    0.50000   0.16666   0.88437   0.00000  Uiso   1.00
Zn754  Zn    0.50000   0.16667   0.78229   0.00000  Uiso   1.00
Cl755  Cl    0.65503   0.12405   0.77271   0.00000  Uiso   1.00
Cl756  Cl    0.34497   0.20929   0.89395   0.00000  Uiso   1.00
Cl757  Cl    0.41733   0.28771   0.76031   0.00000  Uiso   1.00
Cl758  Cl    0.58267   0.04563   0.90636   0.00000  Uiso   1.00
H759   H     0.56102   0.21136   0.96518   0.00000  Uiso   1.00
H760   H     0.43898   0.12197   0.70148   0.00000  Uiso   1.00
C761   C     0.83439   0.08673   0.83352   0.00000  Uiso   1.00
C762   C     0.83228   0.24660   0.83315   0.00000  Uiso   1.00
C763   C     0.73388   0.16646   0.82173   0.00000  Uiso   1.00
C764   C     0.93278   0.16688   0.84494   0.00000  Uiso   1.00
C765   C     0.67991   0.15953   0.81689   0.00000  Uiso   1.00
C766   C     0.98676   0.17380   0.84978   0.00000  Uiso   1.00
C767   C     0.79952   0.02226   0.80085   0.00000  Uiso   1.00
C768   C     0.86715   0.31107   0.86582   0.00000  Uiso   1.00
C769   C     0.79773   0.31263   0.80039   0.00000  Uiso   1.00
C770   C     0.86894   0.02071   0.86628   0.00000  Uiso   1.00
C771   C     0.83196   0.29071   0.83300   0.00000  Uiso   1.00
C772   C     0.83471   0.04262   0.83366   0.00000  Uiso   1.00
C773   C     0.86726   0.19150   0.69470   0.00000  Uiso   1.00
C774   C     0.79941   0.14183   0.97196   0.00000  Uiso   1.00
C775   C     0.86724   0.19149   0.98009   0.00000  Uiso   1.00
C776   C     0.79943   0.14184   0.68658   0.00000  Uiso   1.00
H777   H     0.77286   0.03984   0.77628   0.00000  Uiso   1.00
H778   H     0.89381   0.29349   0.89038   0.00000  Uiso   1.00
H779   H     0.89439   0.21136   0.71611   0.00000  Uiso   1.00
H780   H     0.77227   0.12198   0.95056   0.00000  Uiso   1.00
N781   N     0.83332   0.16666   0.95240   0.00000  Uiso   1.00
N782   N     0.83335   0.16668   0.71427   0.00000  Uiso   1.00
O783   O     0.83333   0.10558   0.87154   0.00000  Uiso   1.00
O784   O     0.83334   0.22775   0.79513   0.00000  Uiso   1.00
O785   O     0.83333   0.10559   0.79510   0.00000  Uiso   1.00
O786   O     0.83334   0.22774   0.87157   0.00000  Uiso   1.00
O787   O     0.75725   0.16666   0.86261   0.00000  Uiso   1.00
O788   O     0.90942   0.16667   0.80405   0.00000  Uiso   1.00
O789   O     0.75725   0.16667   0.78617   0.00000  Uiso   1.00
O790   O     0.90942   0.16666   0.88050   0.00000  Uiso   1.00
Zn791  Zn    0.83333   0.16666   0.88437   0.00000  Uiso   1.00
Zn792  Zn    0.83333   0.16667   0.78229   0.00000  Uiso   1.00
Cl793  Cl    0.98836   0.12405   0.77271   0.00000  Uiso   1.00
Cl794  Cl    0.67831   0.20929   0.89395   0.00000  Uiso   1.00
Cl795  Cl    0.75066   0.28771   0.76031   0.00000  Uiso   1.00
Cl796  Cl    0.91601   0.04563   0.90636   0.00000  Uiso   1.00
H797   H     0.89435   0.21136   0.96518   0.00000  Uiso   1.00
H798   H     0.77232   0.12197   0.70148   0.00000  Uiso   1.00
C799   C     0.16772   0.42007   0.83352   0.00000  Uiso   1.00
C800   C     0.16561   0.57993   0.83315   0.00000  Uiso   1.00
C801   C     0.06722   0.49979   0.82173   0.00000  Uiso   1.00
C802   C     0.26612   0.50021   0.84494   0.00000  Uiso   1.00
C803   C     0.01324   0.49287   0.81689   0.00000  Uiso   1.00
C804   C     0.32009   0.50713   0.84978   0.00000  Uiso   1.00
C805   C     0.13285   0.35560   0.80085   0.00000  Uiso   1.00
C806   C     0.20048   0.64440   0.86582   0.00000  Uiso   1.00
C807   C     0.13106   0.64596   0.80039   0.00000  Uiso   1.00
C808   C     0.20227   0.35404   0.86628   0.00000  Uiso   1.00
C809   C     0.16529   0.62405   0.83300   0.00000  Uiso   1.00
C810   C     0.16804   0.37595   0.83366   0.00000  Uiso   1.00
C811   C     0.20059   0.52483   0.69470   0.00000  Uiso   1.00
C812   C     0.13274   0.47517   0.97196   0.00000  Uiso   1.00
C813   C     0.20057   0.52483   0.98009   0.00000  Uiso   1.00
C814   C     0.13276   0.47517   0.68658   0.00000  Uiso   1.00
H815   H     0.10619   0.37317   0.77628   0.00000  Uiso   1.00
H816   H     0.22714   0.62683   0.89038   0.00000  Uiso   1.00
H817   H     0.22773   0.54469   0.71611   0.00000  Uiso   1.00
H818   H     0.10561   0.45531   0.95056   0.00000  Uiso   1.00
N819   N     0.16665   0.49999   0.95240   0.00000  Uiso   1.00
N820   N     0.16668   0.50001   0.71427   0.00000  Uiso   1.00
O821   O     0.16666   0.43892   0.87154   0.00000  Uiso   1.00
O822   O     0.16667   0.56108   0.79513   0.00000  Uiso   1.00
O823   O     0.16666   0.43893   0.79510   0.00000  Uiso   1.00
O824   O     0.16667   0.56107   0.87157   0.00000  Uiso   1.00
O825   O     0.09058   0.50000   0.86261   0.00000  Uiso   1.00
O826   O     0.24275   0.50000   0.80405   0.00000  Uiso   1.00
O827   O     0.09058   0.50000   0.78617   0.00000  Uiso   1.00
O828   O     0.24275   0.50000   0.88050   0.00000  Uiso   1.00
Zn829  Zn    0.16667   0.49999   0.88437   0.00000  Uiso   1.00
Zn830  Zn    0.16667   0.50001   0.78229   0.00000  Uiso   1.00
Cl831  Cl    0.32169   0.45738   0.77271   0.00000  Uiso   1.00
Cl832  Cl    0.01164   0.54262   0.89395   0.00000  Uiso   1.00
Cl833  Cl    0.08399   0.62104   0.76031   0.00000  Uiso   1.00
Cl834  Cl    0.24934   0.37896   0.90636   0.00000  Uiso   1.00
H835   H     0.22768   0.54469   0.96518   0.00000  Uiso   1.00
H836   H     0.10565   0.45531   0.70148   0.00000  Uiso   1.00
C837   C     0.50105   0.42007   0.83352   0.00000  Uiso   1.00
C838   C     0.49895   0.57993   0.83315   0.00000  Uiso   1.00
C839   C     0.40055   0.49979   0.82173   0.00000  Uiso   1.00
C840   C     0.59945   0.50021   0.84494   0.00000  Uiso   1.00
C841   C     0.34658   0.49287   0.81689   0.00000  Uiso   1.00
C842   C     0.65342   0.50713   0.84978   0.00000  Uiso   1.00
C843   C     0.46618   0.35560   0.80085   0.00000  Uiso   1.00
C844   C     0.53382   0.64440   0.86582   0.00000  Uiso   1.00
C845   C     0.46440   0.64596   0.80039   0.00000  Uiso   1.00
C846   C     0.53560   0.35404   0.86628   0.00000  Uiso   1.00
C847   C     0.49863   0.62405   0.83300   0.00000  Uiso   1.00
C848   C     0.50137   0.37595   0.83366   0.00000  Uiso   1.00
C849   C     0.53393   0.52483   0.69470   0.00000  Uiso   1.00
C850   C     0.46607   0.47517   0.97196   0.00000  Uiso   1.00
C851   C     0.53391   0.52483   0.98009   0.00000  Uiso   1.00
C852   C     0.46609   0.47517   0.68658   0.00000  Uiso   1.00
H853   H     0.43953   0.37317   0.77628   0.00000  Uiso   1.00
H854   H     0.56047   0.62683   0.89038   0.00000  Uiso   1.00
H855   H     0.56106   0.54469   0.71611   0.00000  Uiso   1.00
H856   H     0.43894   0.45531   0.95056   0.00000  Uiso   1.00
N857   N     0.49999   0.49999   0.95240   0.00000  Uiso   1.00
N858   N     0.50001   0.50001   0.71427   0.00000  Uiso   1.00
O859   O     0.50000   0.43892   0.87154   0.00000  Uiso   1.00
O860   O     0.50000   0.56108   0.79513   0.00000  Uiso   1.00
O861   O     0.50000   0.43893   0.79510   0.00000  Uiso   1.00
O862   O     0.50000   0.56107   0.87157   0.00000  Uiso   1.00
O863   O     0.42392   0.50000   0.86261   0.00000  Uiso   1.00
O864   O     0.57608   0.50000   0.80405   0.00000  Uiso   1.00
O865   O     0.42392   0.50000   0.78617   0.00000  Uiso   1.00
O866   O     0.57608   0.50000   0.88050   0.00000  Uiso   1.00
Zn867  Zn    0.50000   0.49999   0.88437   0.00000  Uiso   1.00
Zn868  Zn    0.50000   0.50001   0.78229   0.00000  Uiso   1.00
Cl869  Cl    0.65503   0.45738   0.77271   0.00000  Uiso   1.00
Cl870  Cl    0.34497   0.54262   0.89395   0.00000  Uiso   1.00
Cl871  Cl    0.41733   0.62104   0.76031   0.00000  Uiso   1.00
Cl872  Cl    0.58267   0.37896   0.90636   0.00000  Uiso   1.00
H873   H     0.56102   0.54469   0.96518   0.00000  Uiso   1.00
H874   H     0.43898   0.45531   0.70148   0.00000  Uiso   1.00
C875   C     0.83439   0.42007   0.83352   0.00000  Uiso   1.00
C876   C     0.83228   0.57993   0.83315   0.00000  Uiso   1.00
C877   C     0.73388   0.49979   0.82173   0.00000  Uiso   1.00
C878   C     0.93278   0.50021   0.84494   0.00000  Uiso   1.00
C879   C     0.67991   0.49287   0.81689   0.00000  Uiso   1.00
C880   C     0.98676   0.50713   0.84978   0.00000  Uiso   1.00
C881   C     0.79952   0.35560   0.80085   0.00000  Uiso   1.00
C882   C     0.86715   0.64440   0.86582   0.00000  Uiso   1.00
C883   C     0.79773   0.64596   0.80039   0.00000  Uiso   1.00
C884   C     0.86894   0.35404   0.86628   0.00000  Uiso   1.00
C885   C     0.83196   0.62405   0.83300   0.00000  Uiso   1.00
C886   C     0.83471   0.37595   0.83366   0.00000  Uiso   1.00
C887   C     0.86726   0.52483   0.69470   0.00000  Uiso   1.00
C888   C     0.79941   0.47517   0.97196   0.00000  Uiso   1.00
C889   C     0.86724   0.52483   0.98009   0.00000  Uiso   1.00
C890   C     0.79943   0.47517   0.68658   0.00000  Uiso   1.00
H891   H     0.77286   0.37317   0.77628   0.00000  Uiso   1.00
H892   H     0.89381   0.62683   0.89038   0.00000  Uiso   1.00
H893   H     0.89439   0.54469   0.71611   0.00000  Uiso   1.00
H894   H     0.77227   0.45531   0.95056   0.00000  Uiso   1.00
N895   N     0.83332   0.49999   0.95240   0.00000  Uiso   1.00
N896   N     0.83335   0.50001   0.71427   0.00000  Uiso   1.00
O897   O     0.83333   0.43892   0.87154   0.00000  Uiso   1.00
O898   O     0.83334   0.56108   0.79513   0.00000  Uiso   1.00
O899   O     0.83333   0.43893   0.79510   0.00000  Uiso   1.00
O900   O     0.83334   0.56107   0.87157   0.00000  Uiso   1.00
O901   O     0.75725   0.50000   0.86261   0.00000  Uiso   1.00
O902   O     0.90942   0.50000   0.80405   0.00000  Uiso   1.00
O903   O     0.75725   0.50000   0.78617   0.00000  Uiso   1.00
O904   O     0.90942   0.50000   0.88050   0.00000  Uiso   1.00
Zn905  Zn    0.83333   0.49999   0.88437   0.00000  Uiso   1.00
Zn906  Zn    0.83333   0.50001   0.78229   0.00000  Uiso   1.00
Cl907  Cl    0.98836   0.45738   0.77271   0.00000  Uiso   1.00
Cl908  Cl    0.67831   0.54262   0.89395   0.00000  Uiso   1.00
Cl909  Cl    0.75066   0.62104   0.76031   0.00000  Uiso   1.00
Cl910  Cl    0.91601   0.37896   0.90636   0.00000  Uiso   1.00
H911   H     0.89435   0.54469   0.96518   0.00000  Uiso   1.00
H912   H     0.77232   0.45531   0.70148   0.00000  Uiso   1.00
C913   C     0.16772   0.75340   0.83352   0.00000  Uiso   1.00
C914   C     0.16561   0.91327   0.83315   0.00000  Uiso   1.00
C915   C     0.06722   0.83312   0.82173   0.00000  Uiso   1.00
C916   C     0.26612   0.83354   0.84494   0.00000  Uiso   1.00
C917   C     0.01324   0.82620   0.81689   0.00000  Uiso   1.00
C918   C     0.32009   0.84047   0.84978   0.00000  Uiso   1.00
C919   C     0.13285   0.68893   0.80085   0.00000  Uiso   1.00
C920   C     0.20048   0.97774   0.86582   0.00000  Uiso   1.00
C921   C     0.13106   0.97929   0.80039   0.00000  Uiso   1.00
C922   C     0.20227   0.68737   0.86628   0.00000  Uiso   1.00
C923   C     0.16529   0.95738   0.83300   0.00000  Uiso   1.00
C924   C     0.16804   0.70929   0.83366   0.00000  Uiso   1.00
C925   C     0.20059   0.85817   0.69470   0.00000  Uiso   1.00
C926   C     0.13274   0.80850   0.97196   0.00000  Uiso   1.00
C927   C     0.20057   0.85816   0.98009   0.00000  Uiso   1.00
C928   C     0.13276   0.80851   0.68658   0.00000  Uiso   1.00
H929   H     0.10619   0.70651   0.77628   0.00000  Uiso   1.00
H930   H     0.22714   0.96016   0.89038   0.00000  Uiso   1.00
H931   H     0.22773   0.87802   0.71611   0.00000  Uiso   1.00
H932   H     0.10561   0.78864   0.95056   0.00000  Uiso   1.00
N933   N     0.16665   0.83332   0.95240   0.00000  Uiso   1.00
N934   N     0.16668   0.83334   0.71427   0.00000  Uiso   1.00
O935   O     0.16666   0.77225   0.87154   0.00000  Uiso   1.00
O936   O     0.16667   0.89442   0.79513   0.00000  Uiso   1.00
O937   O     0.16666   0.77226   0.79510   0.00000  Uiso   1.00
O938   O     0.16667   0.89441   0.87157   0.00000  Uiso   1.00
O939   O     0.09058   0.83333   0.86261   0.00000  Uiso   1.00
O940   O     0.24275   0.83334   0.80405   0.00000  Uiso   1.00
O941   O     0.09058   0.83334   0.78617   0.00000  Uiso   1.00
O942   O     0.24275   0.83333   0.88050   0.00000  Uiso   1.00
Zn943  Zn    0.16667   0.83333   0.88437   0.00000  Uiso   1.00
Zn944  Zn    0.16667   0.83334   0.78229   0.00000  Uiso   1.00
Cl945  Cl    0.32169   0.79071   0.77271   0.00000  Uiso   1.00
Cl946  Cl    0.01164   0.87595   0.89395   0.00000  Uiso   1.00
Cl947  Cl    0.08399   0.95437   0.76031   0.00000  Uiso   1.00
Cl948  Cl    0.24934   0.71229   0.90636   0.00000  Uiso   1.00
H949   H     0.22768   0.87803   0.96518   0.00000  Uiso   1.00
H950   H     0.10565   0.78864   0.70148   0.00000  Uiso   1.00
C951   C     0.50105   0.75340   0.83352   0.00000  Uiso   1.00
C952   C     0.49895   0.91327   0.83315   0.00000  Uiso   1.00
C953   C     0.40055   0.83312   0.82173   0.00000  Uiso   1.00
C954   C     0.59945   0.83354   0.84494   0.00000  Uiso   1.00
C955   C     0.34658   0.82620   0.81689   0.00000  Uiso   1.00
C956   C     0.65342   0.84047   0.84978   0.00000  Uiso   1.00
C957   C     0.46618   0.68893   0.80085   0.00000  Uiso   1.00
C958   C     0.53382   0.97774   0.86582   0.00000  Uiso   1.00
C959   C     0.46440   0.97929   0.80039   0.00000  Uiso   1.00
C960   C     0.53560   0.68737   0.86628   0.00000  Uiso   1.00
C961   C     0.49863   0.95738   0.83300   0.00000  Uiso   1.00
C962   C     0.50137   0.70929   0.83366   0.00000  Uiso   1.00
C963   C     0.53393   0.85817   0.69470   0.00000  Uiso   1.00
C964   C     0.46607   0.80850   0.97196   0.00000  Uiso   1.00
C965   C     0.53391   0.85816   0.98009   0.00000  Uiso   1.00
C966   C     0.46609   0.80851   0.68658   0.00000  Uiso   1.00
H967   H     0.43953   0.70651   0.77628   0.00000  Uiso   1.00
H968   H     0.56047   0.96016   0.89038   0.00000  Uiso   1.00
H969   H     0.56106   0.87802   0.71611   0.00000  Uiso   1.00
H970   H     0.43894   0.78864   0.95056   0.00000  Uiso   1.00
N971   N     0.49999   0.83332   0.95240   0.00000  Uiso   1.00
N972   N     0.50001   0.83334   0.71427   0.00000  Uiso   1.00
O973   O     0.50000   0.77225   0.87154   0.00000  Uiso   1.00
O974   O     0.50000   0.89442   0.79513   0.00000  Uiso   1.00
O975   O     0.50000   0.77226   0.79510   0.00000  Uiso   1.00
O976   O     0.50000   0.89441   0.87157   0.00000  Uiso   1.00
O977   O     0.42392   0.83333   0.86261   0.00000  Uiso   1.00
O978   O     0.57608   0.83334   0.80405   0.00000  Uiso   1.00
O979   O     0.42392   0.83334   0.78617   0.00000  Uiso   1.00
O980   O     0.57608   0.83333   0.88050   0.00000  Uiso   1.00
Zn981  Zn    0.50000   0.83333   0.88437   0.00000  Uiso   1.00
Zn982  Zn    0.50000   0.83334   0.78229   0.00000  Uiso   1.00
Cl983  Cl    0.65503   0.79071   0.77271   0.00000  Uiso   1.00
Cl984  Cl    0.34497   0.87595   0.89395   0.00000  Uiso   1.00
Cl985  Cl    0.41733   0.95437   0.76031   0.00000  Uiso   1.00
Cl986  Cl    0.58267   0.71229   0.90636   0.00000  Uiso   1.00
H987   H     0.56102   0.87803   0.96518   0.00000  Uiso   1.00
H988   H     0.43898   0.78864   0.70148   0.00000  Uiso   1.00
C989   C     0.83439   0.75340   0.83352   0.00000  Uiso   1.00
C990   C     0.83228   0.91327   0.83315   0.00000  Uiso   1.00
C991   C     0.73388   0.83312   0.82173   0.00000  Uiso   1.00
C992   C     0.93278   0.83354   0.84494   0.00000  Uiso   1.00
C993   C     0.67991   0.82620   0.81689   0.00000  Uiso   1.00
C994   C     0.98676   0.84047   0.84978   0.00000  Uiso   1.00
C995   C     0.79952   0.68893   0.80085   0.00000  Uiso   1.00
C996   C     0.86715   0.97774   0.86582   0.00000  Uiso   1.00
C997   C     0.79773   0.97929   0.80039   0.00000  Uiso   1.00
C998   C     0.86894   0.68737   0.86628   0.00000  Uiso   1.00
C999   C     0.83196   0.95738   0.83300   0.00000  Uiso   1.00
C1000  C     0.83471   0.70929   0.83366   0.00000  Uiso   1.00
C1001  C     0.86726   0.85817   0.69470   0.00000  Uiso   1.00
C1002  C     0.79941   0.80850   0.97196   0.00000  Uiso   1.00
C1003  C     0.86724   0.85816   0.98009   0.00000  Uiso   1.00
C1004  C     0.79943   0.80851   0.68658   0.00000  Uiso   1.00
H1005  H     0.77286   0.70651   0.77628   0.00000  Uiso   1.00
H1006  H     0.89381   0.96016   0.89038   0.00000  Uiso   1.00
H1007  H     0.89439   0.87802   0.71611   0.00000  Uiso   1.00
H1008  H     0.77227   0.78864   0.95056   0.00000  Uiso   1.00
N1009  N     0.83332   0.83332   0.95240   0.00000  Uiso   1.00
N1010  N     0.83335   0.83334   0.71427   0.00000  Uiso   1.00
O1011  O     0.83333   0.77225   0.87154   0.00000  Uiso   1.00
O1012  O     0.83334   0.89442   0.79513   0.00000  Uiso   1.00
O1013  O     0.83333   0.77226   0.79510   0.00000  Uiso   1.00
O1014  O     0.83334   0.89441   0.87157   0.00000  Uiso   1.00
O1015  O     0.75725   0.83333   0.86261   0.00000  Uiso   1.00
O1016  O     0.90942   0.83334   0.80405   0.00000  Uiso   1.00
O1017  O     0.75725   0.83334   0.78617   0.00000  Uiso   1.00
O1018  O     0.90942   0.83333   0.88050   0.00000  Uiso   1.00
Zn1019 Zn    0.83333   0.83333   0.88437   0.00000  Uiso   1.00
Zn1020 Zn    0.83333   0.83334   0.78229   0.00000  Uiso   1.00
Cl1021 Cl    0.98836   0.79071   0.77271   0.00000  Uiso   1.00
Cl1022 Cl    0.67831   0.87595   0.89395   0.00000  Uiso   1.00
Cl1023 Cl    0.75066   0.95437   0.76031   0.00000  Uiso   1.00
Cl1024 Cl    0.91601   0.71229   0.90636   0.00000  Uiso   1.00
H1025  H     0.89435   0.87803   0.96518   0.00000  Uiso   1.00
H1026  H     0.77232   0.78864   0.70148   0.00000  Uiso   1.00
loop_
_geom_bond_atom_site_label_1
_geom_bond_atom_site_label_2
_geom_bond_distance
_geom_bond_site_symmetry_2
_ccdc_geom_bond_type
C1     O25     1.281   .     A
C1     C12     1.409   .     S
C1     O23     1.280   .     A
C2     O26     1.281   .     A
C2     C11     1.409   .     S
C2     O24     1.280   .     A
C3     O27     1.273   .     A
C3     O29     1.283   .     A
C3     C5      1.400   .     S
C4     O30     1.283   .     A
C4     O28     1.273   .     A
C4     C6      1.400   .     S
C5     C82     1.346   1_455 S
C5     Cl109   1.781   1_455 S
C6     C43     1.346   .     S
C6     Cl72    1.781   .     S
C7     C12     1.395   .     A
C7     H17     1.085   .     S
C7     C237    1.373   1_545 S
C8     C11     1.395   .     A
C8     H18     1.085   .     S
C8     C124    1.373   .     S
C9     C11     1.401   .     A
C9     Cl35    1.765   .     S
C9     C121    1.373   .     S
C10    Cl36    1.765   .     S
C10    C12     1.401   .     A
C10    C236    1.373   1_545 S
C13    N22     1.366   .     A
C13    H19     1.082   .     S
C13    C699    1.417   1_554 S
C14    H20     1.082   .     S
C14    N21     1.366   .     A
C14    C358    1.417   .     S
C15    N21     1.367   .     A
C15    H37     1.082   .     S
C15    C355    1.417   .     S
C16    N22     1.367   .     A
C16    H38     1.082   .     S
C16    C698    1.417   1_554 S
N21    Zn31    2.010   .     S
N22    Zn32    2.010   .     S
O23    Zn31    1.989   .     S
O24    Zn32    1.989   .     S
O25    Zn32    1.987   .     S
O26    Zn31    1.987   .     S
O27    Zn31    1.982   .     S
O28    Zn32    1.982   .     S
O29    Zn32    1.986   .     S
O30    Zn31    1.986   .     S
Cl33   C43     1.781   .     S
Cl34   C82     1.781   1_455 S
C39    O63     1.281   .     A
C39    C50     1.409   .     S
C39    O61     1.280   .     A
C40    O64     1.281   .     A
C40    C49     1.409   .     S
C40    O62     1.280   .     A
C41    O65     1.273   .     A
C41    O67     1.283   .     A
C41    C43     1.400   .     S
C42    O68     1.283   .     A
C42    O66     1.273   .     A
C42    C44     1.400   .     S
C44    C81     1.346   .     S
C44    Cl110   1.781   .     S
C45    C50     1.395   .     A
C45    H55     1.085   .     S
C45    C275    1.373   1_545 S
C46    C49     1.395   .     A
C46    H56     1.085   .     S
C46    C162    1.373   .     S
C47    C49     1.401   .     A
C47    Cl73    1.765   .     S
C47    C159    1.373   .     S
C48    Cl74    1.765   .     S
C48    C50     1.401   .     A
C48    C274    1.373   1_545 S
C51    N60     1.366   .     A
C51    H57     1.082   .     S
C51    C737    1.417   1_554 S
C52    H58     1.082   .     S
C52    N59     1.366   .     A
C52    C396    1.417   .     S
C53    N59     1.367   .     A
C53    H75     1.082   .     S
C53    C393    1.417   .     S
C54    N60     1.367   .     A
C54    H76     1.082   .     S
C54    C736    1.417   1_554 S
N59    Zn69    2.010   .     S
N60    Zn70    2.010   .     S
O61    Zn69    1.989   .     S
O62    Zn70    1.989   .     S
O63    Zn70    1.987   .     S
O64    Zn69    1.987   .     S
O65    Zn69    1.982   .     S
O66    Zn70    1.982   .     S
O67    Zn70    1.986   .     S
O68    Zn69    1.986   .     S
Cl71   C81     1.781   .     S
C77    O101    1.281   .     A
C77    C88     1.409   .     S
C77    O99     1.280   .     A
C78    O102    1.281   .     A
C78    C87     1.409   .     S
C78    O100    1.280   .     A
C79    O103    1.273   .     A
C79    O105    1.283   .     A
C79    C81     1.400   .     S
C80    O106    1.283   .     A
C80    O104    1.273   .     A
C80    C82     1.400   .     S
C82    C5      1.346   1_655 S
C82    Cl34    1.781   1_655 S
C83    C88     1.395   .     A
C83    H93     1.085   .     S
C83    C313    1.373   1_545 S
C84    C87     1.395   .     A
C84    H94     1.085   .     S
C84    C200    1.373   .     S
C85    C87     1.401   .     A
C85    Cl111   1.765   .     S
C85    C197    1.373   .     S
C86    Cl112   1.765   .     S
C86    C88     1.401   .     A
C86    C312    1.373   1_545 S
C89    N98     1.366   .     A
C89    H95     1.082   .     S
C89    C775    1.417   1_554 S
C90    H96     1.082   .     S
C90    N97     1.366   .     A
C90    C434    1.417   .     S
C91    N97     1.367   .     A
C91    H113    1.082   .     S
C91    C431    1.417   .     S
C92    N98     1.367   .     A
C92    H114    1.082   .     S
C92    C774    1.417   1_554 S
N97    Zn107   2.010   .     S
N98    Zn108   2.010   .     S
O99    Zn107   1.989   .     S
O100   Zn108   1.989   .     S
O101   Zn108   1.987   .     S
O102   Zn107   1.987   .     S
O103   Zn107   1.982   .     S
O104   Zn108   1.982   .     S
O105   Zn108   1.986   .     S
O106   Zn107   1.986   .     S
Cl109  C5      1.781   1_655 S
C115   O139    1.281   .     A
C115   C126    1.409   .     S
C115   O137    1.280   .     A
C116   O140    1.281   .     A
C116   C125    1.409   .     S
C116   O138    1.280   .     A
C117   O141    1.273   .     A
C117   O143    1.283   .     A
C117   C119    1.400   .     S
C118   O144    1.283   .     A
C118   O142    1.273   .     A
C118   C120    1.400   .     S
C119   C196    1.346   1_455 S
C119   Cl223   1.781   1_455 S
C120   C157    1.346   .     S
C120   Cl186   1.781   .     S
C121   C126    1.395   .     A
C121   H131    1.085   .     S
C122   C125    1.395   .     A
C122   H132    1.085   .     S
C122   C238    1.373   .     S
C123   C125    1.401   .     A
C123   Cl149   1.765   .     S
C123   C235    1.373   .     S
C124   Cl150   1.765   .     S
C124   C126    1.401   .     A
C127   N136    1.366   .     A
C127   H133    1.082   .     S
C127   C813    1.417   1_554 S
C128   H134    1.082   .     S
C128   N135    1.366   .     A
C128   C472    1.417   .     S
C129   N135    1.367   .     A
C129   H151    1.082   .     S
C129   C469    1.417   .     S
C130   N136    1.367   .     A
C130   H152    1.082   .     S
C130   C812    1.417   1_554 S
N135   Zn145   2.010   .     S
N136   Zn146   2.010   .     S
O137   Zn145   1.989   .     S
O138   Zn146   1.989   .     S
O139   Zn146   1.987   .     S
O140   Zn145   1.987   .     S
O141   Zn145   1.982   .     S
O142   Zn146   1.982   .     S
O143   Zn146   1.986   .     S
O144   Zn145   1.986   .     S
Cl147  C157    1.781   .     S
Cl148  C196    1.781   1_455 S
C153   O177    1.281   .     A
C153   C164    1.409   .     S
C153   O175    1.280   .     A
C154   O178    1.281   .     A
C154   C163    1.409   .     S
C154   O176    1.280   .     A
C155   O179    1.273   .     A
C155   O181    1.283   .     A
C155   C157    1.400   .     S
C156   O182    1.283   .     A
C156   O180    1.273   .     A
C156   C158    1.400   .     S
C158   C195    1.346   .     S
C158   Cl224   1.781   .     S
C159   C164    1.395   .     A
C159   H169    1.085   .     S
C160   C163    1.395   .     A
C160   H170    1.085   .     S
C160   C276    1.373   .     S
C161   C163    1.401   .     A
C161   Cl187   1.765   .     S
C161   C273    1.373   .     S
C162   Cl188   1.765   .     S
C162   C164    1.401   .     A
C165   N174    1.366   .     A
C165   H171    1.082   .     S
C165   C851    1.417   1_554 S
C166   H172    1.082   .     S
C166   N173    1.366   .     A
C166   C510    1.417   .     S
C167   N173    1.367   .     A
C167   H189    1.082   .     S
C167   C507    1.417   .     S
C168   N174    1.367   .     A
C168   H190    1.082   .     S
C168   C850    1.417   1_554 S
N173   Zn183   2.010   .     S
N174   Zn184   2.010   .     S
O175   Zn183   1.989   .     S
O176   Zn184   1.989   .     S
O177   Zn184   1.987   .     S
O178   Zn183   1.987   .     S
O179   Zn183   1.982   .     S
O180   Zn184   1.982   .     S
O181   Zn184   1.986   .     S
O182   Zn183   1.986   .     S
Cl185  C195    1.781   .     S
C191   O215    1.281   .     A
C191   C202    1.409   .     S
C191   O213    1.280   .     A
C192   O216    1.281   .     A
C192   C201    1.409   .     S
C192   O214    1.280   .     A
C193   O217    1.273   .     A
C193   O219    1.283   .     A
C193   C195    1.400   .     S
C194   O220    1.283   .     A
C194   O218    1.273   .     A
C194   C196    1.400   .     S
C196   C119    1.346   1_655 S
C196   Cl148   1.781   1_655 S
C197   C202    1.395   .     A
C197   H207    1.085   .     S
C198   C201    1.395   .     A
C198   H208    1.085   .     S
C198   C314    1.373   .     S
C199   C201    1.401   .     A
C199   Cl225   1.765   .     S
C199   C311    1.373   .     S
C200   Cl226   1.765   .     S
C200   C202    1.401   .     A
C203   N212    1.366   .     A
C203   H209    1.082   .     S
C203   C889    1.417   1_554 S
C204   H210    1.082   .     S
C204   N211    1.366   .     A
C204   C548    1.417   .     S
C205   N211    1.367   .     A
C205   H227    1.082   .     S
C205   C545    1.417   .     S
C206   N212    1.367   .     A
C206   H228    1.082   .     S
C206   C888    1.417   1_554 S
N211   Zn221   2.010   .     S
N212   Zn222   2.010   .     S
O213   Zn221   1.989   .     S
O214   Zn222   1.989   .     S
O215   Zn222   1.987   .     S
O216   Zn221   1.987   .     S
O217   Zn221   1.982   .     S
O218   Zn222   1.982   .     S
O219   Zn222   1.986   .     S
O220   Zn221   1.986   .     S
Cl223  C119    1.781   1_655 S
C229   O253    1.281   .     A
C229   C240    1.409   .     S
C229   O251    1.280   .     A
C230   O254    1.281   .     A
C230   C239    1.409   .     S
C230   O252    1.280   .     A
C231   O255    1.273   .     A
C231   O257    1.283   .     A
C231   C233    1.400   .     S
C232   O258    1.283   .     A
C232   O256    1.273   .     A
C232   C234    1.400   .     S
C233   C310    1.346   1_455 S
C233   Cl337   1.781   1_455 S
C234   C271    1.346   .     S
C234   Cl300   1.781   .     S
C235   C240    1.395   .     A
C235   H245    1.085   .     S
C236   C239    1.395   .     A
C236   H246    1.085   .     S
C236   C10     1.373   1_565 S
C237   C239    1.401   .     A
C237   Cl263   1.765   .     S
C237   C7      1.373   1_565 S
C238   Cl264   1.765   .     S
C238   C240    1.401   .     A
C241   N250    1.366   .     A
C241   H247    1.082   .     S
C241   C927    1.417   1_554 S
C242   H248    1.082   .     S
C242   N249    1.366   .     A
C242   C586    1.417   .     S
C243   N249    1.367   .     A
C243   H265    1.082   .     S
C243   C583    1.417   .     S
C244   N250    1.367   .     A
C244   H266    1.082   .     S
C244   C926    1.417   1_554 S
N249   Zn259   2.010   .     S
N250   Zn260   2.010   .     S
O251   Zn259   1.989   .     S
O252   Zn260   1.989   .     S
O253   Zn260   1.987   .     S
O254   Zn259   1.987   .     S
O255   Zn259   1.982   .     S
O256   Zn260   1.982   .     S
O257   Zn260   1.986   .     S
O258   Zn259   1.986   .     S
Cl261  C271    1.781   .     S
Cl262  C310    1.781   1_455 S
C267   O291    1.281   .     A
C267   C278    1.409   .     S
C267   O289    1.280   .     A
C268   O292    1.281   .     A
C268   C277    1.409   .     S
C268   O290    1.280   .     A
C269   O293    1.273   .     A
C269   O295    1.283   .     A
C269   C271    1.400   .     S
C270   O296    1.283   .     A
C270   O294    1.273   .     A
C270   C272    1.400   .     S
C272   C309    1.346   .     S
C272   Cl338   1.781   .     S
C273   C278    1.395   .     A
C273   H283    1.085   .     S
C274   C277    1.395   .     A
C274   H284    1.085   .     S
C274   C48     1.373   1_565 S
C275   C277    1.401   .     A
C275   Cl301   1.765   .     S
C275   C45     1.373   1_565 S
C276   Cl302   1.765   .     S
C276   C278    1.401   .     A
C279   N288    1.366   .     A
C279   H285    1.082   .     S
C279   C965    1.417   1_554 S
C280   H286    1.082   .     S
C280   N287    1.366   .     A
C280   C624    1.417   .     S
C281   N287    1.367   .     A
C281   H303    1.082   .     S
C281   C621    1.417   .     S
C282   N288    1.367   .     A
C282   H304    1.082   .     S
C282   C964    1.417   1_554 S
N287   Zn297   2.010   .     S
N288   Zn298   2.010   .     S
O289   Zn297   1.989   .     S
O290   Zn298   1.989   .     S
O291   Zn298   1.987   .     S
O292   Zn297   1.987   .     S
O293   Zn297   1.982   .     S
O294   Zn298   1.982   .     S
O295   Zn298   1.986   .     S
O296   Zn297   1.986   .     S
Cl299  C309    1.781   .     S
C305   O329    1.281   .     A
C305   C316    1.409   .     S
C305   O327    1.280   .     A
C306   O330    1.281   .     A
C306   C315    1.409   .     S
C306   O328    1.280   .     A
C307   O331    1.273   .     A
C307   O333    1.283   .     A
C307   C309    1.400   .     S
C308   O334    1.283   .     A
C308   O332    1.273   .     A
C308   C310    1.400   .     S
C310   C233    1.346   1_655 S
C310   Cl262   1.781   1_655 S
C311   C316    1.395   .     A
C311   H321    1.085   .     S
C312   C315    1.395   .     A
C312   H322    1.085   .     S
C312   C86     1.373   1_565 S
C313   C315    1.401   .     A
C313   Cl339   1.765   .     S
C313   C83     1.373   1_565 S
C314   Cl340   1.765   .     S
C314   C316    1.401   .     A
C317   N326    1.366   .     A
C317   H323    1.082   .     S
C317   C1003   1.417   1_554 S
C318   H324    1.082   .     S
C318   N325    1.366   .     A
C318   C662    1.417   .     S
C319   N325    1.367   .     A
C319   H341    1.082   .     S
C319   C659    1.417   .     S
C320   N326    1.367   .     A
C320   H342    1.082   .     S
C320   C1002   1.417   1_554 S
N325   Zn335   2.010   .     S
N326   Zn336   2.010   .     S
O327   Zn335   1.989   .     S
O328   Zn336   1.989   .     S
O329   Zn336   1.987   .     S
O330   Zn335   1.987   .     S
O331   Zn335   1.982   .     S
O332   Zn336   1.982   .     S
O333   Zn336   1.986   .     S
O334   Zn335   1.986   .     S
Cl337  C233    1.781   1_655 S
C343   O367    1.281   .     A
C343   C354    1.409   .     S
C343   O365    1.280   .     A
C344   O368    1.281   .     A
C344   C353    1.409   .     S
C344   O366    1.280   .     A
C345   O369    1.273   .     A
C345   O371    1.283   .     A
C345   C347    1.400   .     S
C346   O372    1.283   .     A
C346   O370    1.273   .     A
C346   C348    1.400   .     S
C347   C424    1.346   1_455 S
C347   Cl451   1.781   1_455 S
C348   C385    1.346   .     S
C348   Cl414   1.781   .     S
C349   C354    1.395   .     A
C349   H359    1.085   .     S
C349   C579    1.373   1_545 S
C350   C353    1.395   .     A
C350   H360    1.085   .     S
C350   C466    1.373   .     S
C351   C353    1.401   .     A
C351   Cl377   1.765   .     S
C351   C463    1.373   .     S
C352   Cl378   1.765   .     S
C352   C354    1.401   .     A
C352   C578    1.373   1_545 S
C355   N364    1.366   .     A
C355   H361    1.082   .     S
C356   H362    1.082   .     S
C356   N363    1.366   .     A
C356   C700    1.417   .     S
C357   N363    1.367   .     A
C357   H379    1.082   .     S
C357   C697    1.417   .     S
C358   N364    1.367   .     A
C358   H380    1.082   .     S
N363   Zn373   2.010   .     S
N364   Zn374   2.010   .     S
O365   Zn373   1.989   .     S
O366   Zn374   1.989   .     S
O367   Zn374   1.987   .     S
O368   Zn373   1.987   .     S
O369   Zn373   1.982   .     S
O370   Zn374   1.982   .     S
O371   Zn374   1.986   .     S
O372   Zn373   1.986   .     S
Cl375  C385    1.781   .     S
Cl376  C424    1.781   1_455 S
C381   O405    1.281   .     A
C381   C392    1.409   .     S
C381   O403    1.280   .     A
C382   O406    1.281   .     A
C382   C391    1.409   .     S
C382   O404    1.280   .     A
C383   O407    1.273   .     A
C383   O409    1.283   .     A
C383   C385    1.400   .     S
C384   O410    1.283   .     A
C384   O408    1.273   .     A
C384   C386    1.400   .     S
C386   C423    1.346   .     S
C386   Cl452   1.781   .     S
C387   C392    1.395   .     A
C387   H397    1.085   .     S
C387   C617    1.373   1_545 S
C388   C391    1.395   .     A
C388   H398    1.085   .     S
C388   C504    1.373   .     S
C389   C391    1.401   .     A
C389   Cl415   1.765   .     S
C389   C501    1.373   .     S
C390   Cl416   1.765   .     S
C390   C392    1.401   .     A
C390   C616    1.373   1_545 S
C393   N402    1.366   .     A
C393   H399    1.082   .     S
C394   H400    1.082   .     S
C394   N401    1.366   .     A
C394   C738    1.417   .     S
C395   N401    1.367   .     A
C395   H417    1.082   .     S
C395   C735    1.417   .     S
C396   N402    1.367   .     A
C396   H418    1.082   .     S
N401   Zn411   2.010   .     S
N402   Zn412   2.010   .     S
O403   Zn411   1.989   .     S
O404   Zn412   1.989   .     S
O405   Zn412   1.987   .     S
O406   Zn411   1.987   .     S
O407   Zn411   1.982   .     S
O408   Zn412   1.982   .     S
O409   Zn412   1.986   .     S
O410   Zn411   1.986   .     S
Cl413  C423    1.781   .     S
C419   O443    1.281   .     A
C419   C430    1.409   .     S
C419   O441    1.280   .     A
C420   O444    1.281   .     A
C420   C429    1.409   .     S
C420   O442    1.280   .     A
C421   O445    1.273   .     A
C421   O447    1.283   .     A
C421   C423    1.400   .     S
C422   O448    1.283   .     A
C422   O446    1.273   .     A
C422   C424    1.400   .     S
C424   C347    1.346   1_655 S
C424   Cl376   1.781   1_655 S
C425   C430    1.395   .     A
C425   H435    1.085   .     S
C425   C655    1.373   1_545 S
C426   C429    1.395   .     A
C426   H436    1.085   .     S
C426   C542    1.373   .     S
C427   C429    1.401   .     A
C427   Cl453   1.765   .     S
C427   C539    1.373   .     S
C428   Cl454   1.765   .     S
C428   C430    1.401   .     A
C428   C654    1.373   1_545 S
C431   N440    1.366   .     A
C431   H437    1.082   .     S
C432   H438    1.082   .     S
C432   N439    1.366   .     A
C432   C776    1.417   .     S
C433   N439    1.367   .     A
C433   H455    1.082   .     S
C433   C773    1.417   .     S
C434   N440    1.367   .     A
C434   H456    1.082   .     S
N439   Zn449   2.010   .     S
N440   Zn450   2.010   .     S
O441   Zn449   1.989   .     S
O442   Zn450   1.989   .     S
O443   Zn450   1.987   .     S
O444   Zn449   1.987   .     S
O445   Zn449   1.982   .     S
O446   Zn450   1.982   .     S
O447   Zn450   1.986   .     S
O448   Zn449   1.986   .     S
Cl451  C347    1.781   1_655 S
C457   O481    1.281   .     A
C457   C468    1.409   .     S
C457   O479    1.280   .     A
C458   O482    1.281   .     A
C458   C467    1.409   .     S
C458   O480    1.280   .     A
C459   O483    1.273   .     A
C459   O485    1.283   .     A
C459   C461    1.400   .     S
C460   O486    1.283   .     A
C460   O484    1.273   .     A
C460   C462    1.400   .     S
C461   C538    1.346   1_455 S
C461   Cl565   1.781   1_455 S
C462   C499    1.346   .     S
C462   Cl528   1.781   .     S
C463   C468    1.395   .     A
C463   H473    1.085   .     S
C464   C467    1.395   .     A
C464   H474    1.085   .     S
C464   C580    1.373   .     S
C465   C467    1.401   .     A
C465   Cl491   1.765   .     S
C465   C577    1.373   .     S
C466   Cl492   1.765   .     S
C466   C468    1.401   .     A
C469   N478    1.366   .     A
C469   H475    1.082   .     S
C470   H476    1.082   .     S
C470   N477    1.366   .     A
C470   C814    1.417   .     S
C471   N477    1.367   .     A
C471   H493    1.082   .     S
C471   C811    1.417   .     S
C472   N478    1.367   .     A
C472   H494    1.082   .     S
N477   Zn487   2.010   .     S
N478   Zn488   2.010   .     S
O479   Zn487   1.989   .     S
O480   Zn488   1.989   .     S
O481   Zn488   1.987   .     S
O482   Zn487   1.987   .     S
O483   Zn487   1.982   .     S
O484   Zn488   1.982   .     S
O485   Zn488   1.986   .     S
O486   Zn487   1.986   .     S
Cl489  C499    1.781   .     S
Cl490  C538    1.781   1_455 S
C495   O519    1.281   .     A
C495   C506    1.409   .     S
C495   O517    1.280   .     A
C496   O520    1.281   .     A
C496   C505    1.409   .     S
C496   O518    1.280   .     A
C497   O521    1.273   .     A
C497   O523    1.283   .     A
C497   C499    1.400   .     S
C498   O524    1.283   .     A
C498   O522    1.273   .     A
C498   C500    1.400   .     S
C500   C537    1.346   .     S
C500   Cl566   1.781   .     S
C501   C506    1.395   .     A
C501   H511    1.085   .     S
C502   C505    1.395   .     A
C502   H512    1.085   .     S
C502   C618    1.373   .     S
C503   C505    1.401   .     A
C503   Cl529   1.765   .     S
C503   C615    1.373   .     S
C504   Cl530   1.765   .     S
C504   C506    1.401   .     A
C507   N516    1.366   .     A
C507   H513    1.082   .     S
C508   H514    1.082   .     S
C508   N515    1.366   .     A
C508   C852    1.417   .     S
C509   N515    1.367   .     A
C509   H531    1.082   .     S
C509   C849    1.417   .     S
C510   N516    1.367   .     A
C510   H532    1.082   .     S
N515   Zn525   2.010   .     S
N516   Zn526   2.010   .     S
O517   Zn525   1.989   .     S
O518   Zn526   1.989   .     S
O519   Zn526   1.987   .     S
O520   Zn525   1.987   .     S
O521   Zn525   1.982   .     S
O522   Zn526   1.982   .     S
O523   Zn526   1.986   .     S
O524   Zn525   1.986   .     S
Cl527  C537    1.781   .     S
C533   O557    1.281   .     A
C533   C544    1.409   .     S
C533   O555    1.280   .     A
C534   O558    1.281   .     A
C534   C543    1.409   .     S
C534   O556    1.280   .     A
C535   O559    1.273   .     A
C535   O561    1.283   .     A
C535   C537    1.400   .     S
C536   O562    1.283   .     A
C536   O560    1.273   .     A
C536   C538    1.400   .     S
C538   C461    1.346   1_655 S
C538   Cl490   1.781   1_655 S
C539   C544    1.395   .     A
C539   H549    1.085   .     S
C540   C543    1.395   .     A
C540   H550    1.085   .     S
C540   C656    1.373   .     S
C541   C543    1.401   .     A
C541   Cl567   1.765   .     S
C541   C653    1.373   .     S
C542   Cl568   1.765   .     S
C542   C544    1.401   .     A
C545   N554    1.366   .     A
C545   H551    1.082   .     S
C546   H552    1.082   .     S
C546   N553    1.366   .     A
C546   C890    1.417   .     S
C547   N553    1.367   .     A
C547   H569    1.082   .     S
C547   C887    1.417   .     S
C548   N554    1.367   .     A
C548   H570    1.082   .     S
N553   Zn563   2.010   .     S
N554   Zn564   2.010   .     S
O555   Zn563   1.989   .     S
O556   Zn564   1.989   .     S
O557   Zn564   1.987   .     S
O558   Zn563   1.987   .     S
O559   Zn563   1.982   .     S
O560   Zn564   1.982   .     S
O561   Zn564   1.986   .     S
O562   Zn563   1.986   .     S
Cl565  C461    1.781   1_655 S
C571   O595    1.281   .     A
C571   C582    1.409   .     S
C571   O593    1.280   .     A
C572   O596    1.281   .     A
C572   C581    1.409   .     S
C572   O594    1.280   .     A
C573   O597    1.273   .     A
C573   O599    1.283   .     A
C573   C575    1.400   .     S
C574   O600    1.283   .     A
C574   O598    1.273   .     A
C574   C576    1.400   .     S
C575   C652    1.346   1_455 S
C575   Cl679   1.781   1_455 S
C576   C613    1.346   .     S
C576   Cl642   1.781   .     S
C577   C582    1.395   .     A
C577   H587    1.085   .     S
C578   C581    1.395   .     A
C578   H588    1.085   .     S
C578   C352    1.373   1_565 S
C579   C581    1.401   .     A
C579   Cl605   1.765   .     S
C579   C349    1.373   1_565 S
C580   Cl606   1.765   .     S
C580   C582    1.401   .     A
C583   N592    1.366   .     A
C583   H589    1.082   .     S
C584   H590    1.082   .     S
C584   N591    1.366   .     A
C584   C928    1.417   .     S
C585   N591    1.367   .     A
C585   H607    1.082   .     S
C585   C925    1.417   .     S
C586   N592    1.367   .     A
C586   H608    1.082   .     S
N591   Zn601   2.010   .     S
N592   Zn602   2.010   .     S
O593   Zn601   1.989   .     S
O594   Zn602   1.989   .     S
O595   Zn602   1.987   .     S
O596   Zn601   1.987   .     S
O597   Zn601   1.982   .     S
O598   Zn602   1.982   .     S
O599   Zn602   1.986   .     S
O600   Zn601   1.986   .     S
Cl603  C613    1.781   .     S
Cl604  C652    1.781   1_455 S
C609   O633    1.281   .     A
C609   C620    1.409   .     S
C609   O631    1.280   .     A
C610   O634    1.281   .     A
C610   C619    1.409   .     S
C610   O632    1.280   .     A
C611   O635    1.273   .     A
C611   O637    1.283   .     A
C611   C613    1.400   .     S
C612   O638    1.283   .     A
C612   O636    1.273   .     A
C612   C614    1.400   .     S
C614   C651    1.346   .     S
C614   Cl680   1.781   .     S
C615   C620    1.395   .     A
C615   H625    1.085   .     S
C616   C619    1.395   .     A
C616   H626    1.085   .     S
C616   C390    1.373   1_565 S
C617   C619    1.401   .     A
C617   Cl643   1.765   .     S
C617   C387    1.373   1_565 S
C618   Cl644   1.765   .     S
C618   C620    1.401   .     A
C621   N630    1.366   .     A
C621   H627    1.082   .     S
C622   H628    1.082   .     S
C622   N629    1.366   .     A
C622   C966    1.417   .     S
C623   N629    1.367   .     A
C623   H645    1.082   .     S
C623   C963    1.417   .     S
C624   N630    1.367   .     A
C624   H646    1.082   .     S
N629   Zn639   2.010   .     S
N630   Zn640   2.010   .     S
O631   Zn639   1.989   .     S
O632   Zn640   1.989   .     S
O633   Zn640   1.987   .     S
O634   Zn639   1.987   .     S
O635   Zn639   1.982   .     S
O636   Zn640   1.982   .     S
O637   Zn640   1.986   .     S
O638   Zn639   1.986   .     S
Cl641  C651    1.781   .     S
C647   O671    1.281   .     A
C647   C658    1.409   .     S
C647   O669    1.280   .     A
C648   O672    1.281   .     A
C648   C657    1.409   .     S
C648   O670    1.280   .     A
C649   O673    1.273   .     A
C649   O675    1.283   .     A
C649   C651    1.400   .     S
C650   O676    1.283   .     A
C650   O674    1.273   .     A
C650   C652    1.400   .     S
C652   C575    1.346   1_655 S
C652   Cl604   1.781   1_655 S
C653   C658    1.395   .     A
C653   H663    1.085   .     S
C654   C657    1.395   .     A
C654   H664    1.085   .     S
C654   C428    1.373   1_565 S
C655   C657    1.401   .     A
C655   Cl681   1.765   .     S
C655   C425    1.373   1_565 S
C656   Cl682   1.765   .     S
C656   C658    1.401   .     A
C659   N668    1.366   .     A
C659   H665    1.082   .     S
C660   H666    1.082   .     S
C660   N667    1.366   .     A
C660   C1004   1.417   .     S
C661   N667    1.367   .     A
C661   H683    1.082   .     S
C661   C1001   1.417   .     S
C662   N668    1.367   .     A
C662   H684    1.082   .     S
N667   Zn677   2.010   .     S
N668   Zn678   2.010   .     S
O669   Zn677   1.989   .     S
O670   Zn678   1.989   .     S
O671   Zn678   1.987   .     S
O672   Zn677   1.987   .     S
O673   Zn677   1.982   .     S
O674   Zn678   1.982   .     S
O675   Zn678   1.986   .     S
O676   Zn677   1.986   .     S
Cl679  C575    1.781   1_655 S
C685   O709    1.281   .     A
C685   C696    1.409   .     S
C685   O707    1.280   .     A
C686   O710    1.281   .     A
C686   C695    1.409   .     S
C686   O708    1.280   .     A
C687   O711    1.273   .     A
C687   O713    1.283   .     A
C687   C689    1.400   .     S
C688   O714    1.283   .     A
C688   O712    1.273   .     A
C688   C690    1.400   .     S
C689   C766    1.346   1_455 S
C689   Cl793   1.781   1_455 S
C690   C727    1.346   .     S
C690   Cl756   1.781   .     S
C691   C696    1.395   .     A
C691   H701    1.085   .     S
C691   C921    1.373   1_545 S
C692   C695    1.395   .     A
C692   H702    1.085   .     S
C692   C808    1.373   .     S
C693   C695    1.401   .     A
C693   Cl719   1.765   .     S
C693   C805    1.373   .     S
C694   Cl720   1.765   .     S
C694   C696    1.401   .     A
C694   C920    1.373   1_545 S
C697   N706    1.366   .     A
C697   H703    1.082   .     S
C698   H704    1.082   .     S
C698   N705    1.366   .     A
C698   C16     1.417   1_556 S
C699   N705    1.367   .     A
C699   H721    1.082   .     S
C699   C13     1.417   1_556 S
C700   N706    1.367   .     A
C700   H722    1.082   .     S
N705   Zn715   2.010   .     S
N706   Zn716   2.010   .     S
O707   Zn715   1.989   .     S
O708   Zn716   1.989   .     S
O709   Zn716   1.987   .     S
O710   Zn715   1.987   .     S
O711   Zn715   1.982   .     S
O712   Zn716   1.982   .     S
O713   Zn716   1.986   .     S
O714   Zn715   1.986   .     S
Cl717  C727    1.781   .     S
Cl718  C766    1.781   1_455 S
C723   O747    1.281   .     A
C723   C734    1.409   .     S
C723   O745    1.280   .     A
C724   O748    1.281   .     A
C724   C733    1.409   .     S
C724   O746    1.280   .     A
C725   O749    1.273   .     A
C725   O751    1.283   .     A
C725   C727    1.400   .     S
C726   O752    1.283   .     A
C726   O750    1.273   .     A
C726   C728    1.400   .     S
C728   C765    1.346   .     S
C728   Cl794   1.781   .     S
C729   C734    1.395   .     A
C729   H739    1.085   .     S
C729   C959    1.373   1_545 S
C730   C733    1.395   .     A
C730   H740    1.085   .     S
C730   C846    1.373   .     S
C731   C733    1.401   .     A
C731   Cl757   1.765   .     S
C731   C843    1.373   .     S
C732   Cl758   1.765   .     S
C732   C734    1.401   .     A
C732   C958    1.373   1_545 S
C735   N744    1.366   .     A
C735   H741    1.082   .     S
C736   H742    1.082   .     S
C736   N743    1.366   .     A
C736   C54     1.417   1_556 S
C737   N743    1.367   .     A
C737   H759    1.082   .     S
C737   C51     1.417   1_556 S
C738   N744    1.367   .     A
C738   H760    1.082   .     S
N743   Zn753   2.010   .     S
N744   Zn754   2.010   .     S
O745   Zn753   1.989   .     S
O746   Zn754   1.989   .     S
O747   Zn754   1.987   .     S
O748   Zn753   1.987   .     S
O749   Zn753   1.982   .     S
O750   Zn754   1.982   .     S
O751   Zn754   1.986   .     S
O752   Zn753   1.986   .     S
Cl755  C765    1.781   .     S
C761   O785    1.281   .     A
C761   C772    1.409   .     S
C761   O783    1.280   .     A
C762   O786    1.281   .     A
C762   C771    1.409   .     S
C762   O784    1.280   .     A
C763   O787    1.273   .     A
C763   O789    1.283   .     A
C763   C765    1.400   .     S
C764   O790    1.283   .     A
C764   O788    1.273   .     A
C764   C766    1.400   .     S
C766   C689    1.346   1_655 S
C766   Cl718   1.781   1_655 S
C767   C772    1.395   .     A
C767   H777    1.085   .     S
C767   C997    1.373   1_545 S
C768   C771    1.395   .     A
C768   H778    1.085   .     S
C768   C884    1.373   .     S
C769   C771    1.401   .     A
C769   Cl795   1.765   .     S
C769   C881    1.373   .     S
C770   Cl796   1.765   .     S
C770   C772    1.401   .     A
C770   C996    1.373   1_545 S
C773   N782    1.366   .     A
C773   H779    1.082   .     S
C774   H780    1.082   .     S
C774   N781    1.366   .     A
C774   C92     1.417   1_556 S
C775   N781    1.367   .     A
C775   H797    1.082   .     S
C775   C89     1.417   1_556 S
C776   N782    1.367   .     A
C776   H798    1.082   .     S
N781   Zn791   2.010   .     S
N782   Zn792   2.010   .     S
O783   Zn791   1.989   .     S
O784   Zn792   1.989   .     S
O785   Zn792   1.987   .     S
O786   Zn791   1.987   .     S
O787   Zn791   1.982   .     S
O788   Zn792   1.982   .     S
O789   Zn792   1.986   .     S
O790   Zn791   1.986   .     S
Cl793  C689    1.781   1_655 S
C799   O823    1.281   .     A
C799   C810    1.409   .     S
C799   O821    1.280   .     A
C800   O824    1.281   .     A
C800   C809    1.409   .     S
C800   O822    1.280   .     A
C801   O825    1.273   .     A
C801   O827    1.283   .     A
C801   C803    1.400   .     S
C802   O828    1.283   .     A
C802   O826    1.273   .     A
C802   C804    1.400   .     S
C803   C880    1.346   1_455 S
C803   Cl907   1.781   1_455 S
C804   C841    1.346   .     S
C804   Cl870   1.781   .     S
C805   C810    1.395   .     A
C805   H815    1.085   .     S
C806   C809    1.395   .     A
C806   H816    1.085   .     S
C806   C922    1.373   .     S
C807   C809    1.401   .     A
C807   Cl833   1.765   .     S
C807   C919    1.373   .     S
C808   Cl834   1.765   .     S
C808   C810    1.401   .     A
C811   N820    1.366   .     A
C811   H817    1.082   .     S
C812   H818    1.082   .     S
C812   N819    1.366   .     A
C812   C130    1.417   1_556 S
C813   N819    1.367   .     A
C813   H835    1.082   .     S
C813   C127    1.417   1_556 S
C814   N820    1.367   .     A
C814   H836    1.082   .     S
N819   Zn829   2.010   .     S
N820   Zn830   2.010   .     S
O821   Zn829   1.989   .     S
O822   Zn830   1.989   .     S
O823   Zn830   1.987   .     S
O824   Zn829   1.987   .     S
O825   Zn829   1.982   .     S
O826   Zn830   1.982   .     S
O827   Zn830   1.986   .     S
O828   Zn829   1.986   .     S
Cl831  C841    1.781   .     S
Cl832  C880    1.781   1_455 S
C837   O861    1.281   .     A
C837   C848    1.409   .     S
C837   O859    1.280   .     A
C838   O862    1.281   .     A
C838   C847    1.409   .     S
C838   O860    1.280   .     A
C839   O863    1.273   .     A
C839   O865    1.283   .     A
C839   C841    1.400   .     S
C840   O866    1.283   .     A
C840   O864    1.273   .     A
C840   C842    1.400   .     S
C842   C879    1.346   .     S
C842   Cl908   1.781   .     S
C843   C848    1.395   .     A
C843   H853    1.085   .     S
C844   C847    1.395   .     A
C844   H854    1.085   .     S
C844   C960    1.373   .     S
C845   C847    1.401   .     A
C845   Cl871   1.765   .     S
C845   C957    1.373   .     S
C846   Cl872   1.765   .     S
C846   C848    1.401   .     A
C849   N858    1.366   .     A
C849   H855    1.082   .     S
C850   H856    1.082   .     S
C850   N857    1.366   .     A
C850   C168    1.417   1_556 S
C851   N857    1.367   .     A
C851   H873    1.082   .     S
C851   C165    1.417   1_556 S
C852   N858    1.367   .     A
C852   H874    1.082   .     S
N857   Zn867   2.010   .     S
N858   Zn868   2.010   .     S
O859   Zn867   1.989   .     S
O860   Zn868   1.989   .     S
O861   Zn868   1.987   .     S
O862   Zn867   1.987   .     S
O863   Zn867   1.982   .     S
O864   Zn868   1.982   .     S
O865   Zn868   1.986   .     S
O866   Zn867   1.986   .     S
Cl869  C879    1.781   .     S
C875   O899    1.281   .     A
C875   C886    1.409   .     S
C875   O897    1.280   .     A
C876   O900    1.281   .     A
C876   C885    1.409   .     S
C876   O898    1.280   .     A
C877   O901    1.273   .     A
C877   O903    1.283   .     A
C877   C879    1.400   .     S
C878   O904    1.283   .     A
C878   O902    1.273   .     A
C878   C880    1.400   .     S
C880   C803    1.346   1_655 S
C880   Cl832   1.781   1_655 S
C881   C886    1.395   .     A
C881   H891    1.085   .     S
C882   C885    1.395   .     A
C882   H892    1.085   .     S
C882   C998    1.373   .     S
C883   C885    1.401   .     A
C883   Cl909   1.765   .     S
C883   C995    1.373   .     S
C884   Cl910   1.765   .     S
C884   C886    1.401   .     A
C887   N896    1.366   .     A
C887   H893    1.082   .     S
C888   H894    1.082   .     S
C888   N895    1.366   .     A
C888   C206    1.417   1_556 S
C889   N895    1.367   .     A
C889   H911    1.082   .     S
C889   C203    1.417   1_556 S
C890   N896    1.367   .     A
C890   H912    1.082   .     S
N895   Zn905   2.010   .     S
N896   Zn906   2.010   .     S
O897   Zn905   1.989   .     S
O898   Zn906   1.989   .     S
O899   Zn906   1.987   .     S
O900   Zn905   1.987   .     S
O901   Zn905   1.982   .     S
O902   Zn906   1.982   .     S
O903   Zn906   1.986   .     S
O904   Zn905   1.986   .     S
Cl907  C803    1.781   1_655 S
C913   O937    1.281   .     A
C913   C924    1.409   .     S
C913   O935    1.280   .     A
C914   O938    1.281   .     A
C914   C923    1.409   .     S
C914   O936    1.280   .     A
C915   O939    1.273   .     A
C915   O941    1.283   .     A
C915   C917    1.400   .     S
C916   O942    1.283   .     A
C916   O940    1.273   .     A
C916   C918    1.400   .     S
C917   C994    1.346   1_455 S
C917   Cl1021  1.781   1_455 S
C918   C955    1.346   .     S
C918   Cl984   1.781   .     S
C919   C924    1.395   .     A
C919   H929    1.085   .     S
C920   C923    1.395   .     A
C920   H930    1.085   .     S
C920   C694    1.373   1_565 S
C921   C923    1.401   .     A
C921   Cl947   1.765   .     S
C921   C691    1.373   1_565 S
C922   Cl948   1.765   .     S
C922   C924    1.401   .     A
C925   N934    1.366   .     A
C925   H931    1.082   .     S
C926   H932    1.082   .     S
C926   N933    1.366   .     A
C926   C244    1.417   1_556 S
C927   N933    1.367   .     A
C927   H949    1.082   .     S
C927   C241    1.417   1_556 S
C928   N934    1.367   .     A
C928   H950    1.082   .     S
N933   Zn943   2.010   .     S
N934   Zn944   2.010   .     S
O935   Zn943   1.989   .     S
O936   Zn944   1.989   .     S
O937   Zn944   1.987   .     S
O938   Zn943   1.987   .     S
O939   Zn943   1.982   .     S
O940   Zn944   1.982   .     S
O941   Zn944   1.986   .     S
O942   Zn943   1.986   .     S
Cl945  C955    1.781   .     S
Cl946  C994    1.781   1_455 S
C951   O975    1.281   .     A
C951   C962    1.409   .     S
C951   O973    1.280   .     A
C952   O976    1.281   .     A
C952   C961    1.409   .     S
C952   O974    1.280   .     A
C953   O977    1.273   .     A
C953   O979    1.283   .     A
C953   C955    1.400   .     S
C954   O980    1.283   .     A
C954   O978    1.273   .     A
C954   C956    1.400   .     S
C956   C993    1.346   .     S
C956   Cl1022  1.781   .     S
C957   C962    1.395   .     A
C957   H967    1.085   .     S
C958   C961    1.395   .     A
C958   H968    1.085   .     S
C958   C732    1.373   1_565 S
C959   C961    1.401   .     A
C959   Cl985   1.765   .     S
C959   C729    1.373   1_565 S
C960   Cl986   1.765   .     S
C960   C962    1.401   .     A
C963   N972    1.366   .     A
C963   H969    1.082   .     S
C964   H970    1.082   .     S
C964   N971    1.366   .     A
C964   C282    1.417   1_556 S
C965   N971    1.367   .     A
C965   H987    1.082   .     S
C965   C279    1.417   1_556 S
C966   N972    1.367   .     A
C966   H988    1.082   .     S
N971   Zn981   2.010   .     S
N972   Zn982   2.010   .     S
O973   Zn981   1.989   .     S
O974   Zn982   1.989   .     S
O975   Zn982   1.987   .     S
O976   Zn981   1.987   .     S
O977   Zn981   1.982   .     S
O978   Zn982   1.982   .     S
O979   Zn982   1.986   .     S
O980   Zn981   1.986   .     S
Cl983  C993    1.781   .     S
C989   O1013   1.281   .     A
C989   C1000   1.409   .     S
C989   O1011   1.280   .     A
C990   O1014   1.281   .     A
C990   C999    1.409   .     S
C990   O1012   1.280   .     A
C991   O1015   1.273   .     A
C991   O1017   1.283   .     A
C991   C993    1.400   .     S
C992   O1018   1.283   .     A
C992   O1016   1.273   .     A
C992   C994    1.400   .     S
C994   C917    1.346   1_655 S
C994   Cl946   1.781   1_655 S
C995   C1000   1.395   .     A
C995   H1005   1.085   .     S
C996   C999    1.395   .     A
C996   H1006   1.085   .     S
C996   C770    1.373   1_565 S
C997   C999    1.401   .     A
C997   Cl1023  1.765   .     S
C997   C767    1.373   1_565 S
C998   Cl1024  1.765   .     S
C998   C1000   1.401   .     A
C1001  N1010   1.366   .     A
C1001  H1007   1.082   .     S
C1002  H1008   1.082   .     S
C1002  N1009   1.366   .     A
C1002  C320    1.417   1_556 S
C1003  N1009   1.367   .     A
C1003  H1025   1.082   .     S
C1003  C317    1.417   1_556 S
C1004  N1010   1.367   .     A
C1004  H1026   1.082   .     S
N1009  Zn1019  2.010   .     S
N1010  Zn1020  2.010   .     S
O1011  Zn1019  1.989   .     S
O1012  Zn1020  1.989   .     S
O1013  Zn1020  1.987   .     S
O1014  Zn1019  1.987   .     S
O1015  Zn1019  1.982   .     S
O1016  Zn1020  1.982   .     S
O1017  Zn1020  1.986   .     S
O1018  Zn1019  1.986   .     S
Cl1021 C917    1.781   1_655 S
