data_str_m3_o1_o16_pcu_sym.100
_audit_creation_date              2020-01-03
_audit_creation_method            'Materials Studio'
_symmetry_space_group_name_H-M    'P1'
_symmetry_Int_Tables_number       1
_symmetry_cell_setting            triclinic
loop_
_symmetry_equiv_pos_as_xyz
  x,y,z
_cell_length_a                    29.6479
_cell_length_b                    31.9879
_cell_length_c                    26.3174
_cell_angle_alpha                 90.4388
_cell_angle_beta                  69.5939
_cell_angle_gamma                 88.9923
loop_
_atom_site_label
_atom_site_type_symbol
_atom_site_fract_x
_atom_site_fract_y
_atom_site_fract_z
_atom_site_U_iso_or_equiv
_atom_site_adp_type
_atom_site_occupancy
O1     O     0.12846   0.22775   0.25000   0.00000  Uiso   1.00
O2     O     0.20490   0.22774   0.25000   0.00000  Uiso   1.00
C3     C     0.16648   0.24655   0.24959   0.00000  Uiso   1.00
O4     O     0.10947   0.16666   0.32681   0.00000  Uiso   1.00
O5     O     0.18591   0.16665   0.32681   0.00000  Uiso   1.00
C6     C     0.13997   0.16408   0.35200   0.00000  Uiso   1.00
Zn7    Zn    0.11562   0.16667   0.25000   0.00000  Uiso   1.00
Zn8    Zn    0.21771   0.16666   0.25000   0.00000  Uiso   1.00
O9     O     0.12843   0.10559   0.24999   0.00000  Uiso   1.00
O10    O     0.20488   0.10558   0.24999   0.00000  Uiso   1.00
O11    O     0.14742   0.16668   0.17319   0.00000  Uiso   1.00
O12    O     0.22387   0.16667   0.17319   0.00000  Uiso   1.00
C13    C     0.16661   0.08671   0.25086   0.00000  Uiso   1.00
C14    C     0.19344   0.16706   0.14772   0.00000  Uiso   1.00
C15    C     0.26269   0.13165   0.00516   0.00000  Uiso   1.00
H16    H     0.28261   0.14171   0.07487   0.00000  Uiso   1.00
H17    H     0.26578   0.10113   0.40944   0.00000  Uiso   1.00
H18    H     0.29731   0.11748   0.48191   0.00000  Uiso   1.00
C19    C     0.20956   0.16298   0.08884   0.00000  Uiso   1.00
C20    C     0.07598   0.17411   0.44159   0.00000  Uiso   1.00
C21    C     0.06228   0.17817   0.49752   0.00000  Uiso   1.00
C22    C     0.09585   0.17083   0.02270   0.00000  Uiso   1.00
C23    C     0.14343   0.15696   0.49217   0.00000  Uiso   1.00
C24    C     0.15434   0.14616   0.43715   0.00000  Uiso   1.00
C25    C     0.18071   0.15370   0.01407   0.00000  Uiso   1.00
C26    C     0.22562   0.13440   0.48358   0.00000  Uiso   1.00
C27    C     0.23259   0.11769   0.43236   0.00000  Uiso   1.00
C28    C     0.19715   0.12301   0.40963   0.00000  Uiso   1.00
C29    C     0.17492   0.17007   0.06511   0.00000  Uiso   1.00
C30    C     0.25455   0.14572   0.05794   0.00000  Uiso   1.00
C31    C     0.12254   0.15964   0.41090   0.00000  Uiso   1.00
H32    H     0.14272   0.18745   0.08826   0.00000  Uiso   1.00
H33    H     0.05067   0.18348   0.42223   0.00000  Uiso   1.00
H34    H     0.08326   0.17539   0.06609   0.00000  Uiso   1.00
H35    H     0.02616   0.18893   0.02121   0.00000  Uiso   1.00
H36    H     0.20365   0.10867   0.37029   0.00000  Uiso   1.00
C37    C     0.20693   0.31098   0.21511   0.00000  Uiso   1.00
C38    C     0.20628   0.02082   0.21640   0.00000  Uiso   1.00
H39    H     0.23582   0.03742   0.18861   0.00000  Uiso   1.00
C40    C     0.16640   0.04250   0.25174   0.00000  Uiso   1.00
C41    C     0.12528   0.02207   0.28476   0.00000  Uiso   1.00
C42    C     0.12588   0.31217   0.28359   0.00000  Uiso   1.00
H43    H     0.09570   0.29535   0.31062   0.00000  Uiso   1.00
C44    C     0.16621   0.29064   0.24875   0.00000  Uiso   1.00
C45    C     0.31809   0.13452   0.22615   0.00000  Uiso   1.00
C46    C     0.03233   0.13470   0.22652   0.00000  Uiso   1.00
H47    H     0.05746   0.10951   0.20710   0.00000  Uiso   1.00
N48    N     0.04760   0.16668   0.25001   0.00000  Uiso   1.00
C49    C     0.01579   0.19857   0.27416   0.00000  Uiso   1.00
H50    H     0.02731   0.22416   0.29349   0.00000  Uiso   1.00
C51    C     0.30124   0.19854   0.27422   0.00000  Uiso   1.00
H52    H     0.27674   0.22407   0.29361   0.00000  Uiso   1.00
N53    N     0.28573   0.16665   0.25000   0.00000  Uiso   1.00
O54    O     0.08714   0.04464   0.32125   0.00000  Uiso   1.00
C55    C     0.04498   0.03846   0.30900   0.00000  Uiso   1.00
H56    H     0.05140   0.04208   0.26496   0.00000  Uiso   1.00
H57    H     0.01771   0.06259   0.33111   0.00000  Uiso   1.00
H58    H     0.02959   0.00741   0.32293   0.00000  Uiso   1.00
C59    C     0.30567   0.09935   0.19802   0.00000  Uiso   1.00
O60    O     0.31048   0.06364   0.21182   0.00000  Uiso   1.00
O61    O     0.29285   0.10657   0.15271   0.00000  Uiso   1.00
H62    H     0.29077   0.07992   0.13267   0.00000  Uiso   1.00
O63    O     0.24419   0.28819   0.17749   0.00000  Uiso   1.00
C64    C     0.28831   0.29638   0.18450   0.00000  Uiso   1.00
H65    H     0.31401   0.27033   0.16549   0.00000  Uiso   1.00
H66    H     0.28484   0.29805   0.22807   0.00000  Uiso   1.00
H67    H     0.30393   0.32546   0.16338   0.00000  Uiso   1.00
O68    O     0.46179   0.22775   0.25000   0.00000  Uiso   1.00
O69    O     0.53823   0.22774   0.25000   0.00000  Uiso   1.00
C70    C     0.49981   0.24655   0.24959   0.00000  Uiso   1.00
O71    O     0.44280   0.16666   0.32681   0.00000  Uiso   1.00
O72    O     0.51924   0.16665   0.32681   0.00000  Uiso   1.00
C73    C     0.47330   0.16408   0.35200   0.00000  Uiso   1.00
Zn74   Zn    0.44896   0.16667   0.25000   0.00000  Uiso   1.00
Zn75   Zn    0.55104   0.16666   0.25000   0.00000  Uiso   1.00
O76    O     0.46177   0.10559   0.24999   0.00000  Uiso   1.00
O77    O     0.53821   0.10558   0.24999   0.00000  Uiso   1.00
O78    O     0.48076   0.16668   0.17319   0.00000  Uiso   1.00
O79    O     0.55720   0.16667   0.17319   0.00000  Uiso   1.00
C80    C     0.49994   0.08671   0.25086   0.00000  Uiso   1.00
C81    C     0.52677   0.16706   0.14772   0.00000  Uiso   1.00
C82    C     0.59603   0.13165   0.00516   0.00000  Uiso   1.00
H83    H     0.61595   0.14171   0.07487   0.00000  Uiso   1.00
H84    H     0.59911   0.10113   0.40944   0.00000  Uiso   1.00
H85    H     0.63064   0.11748   0.48191   0.00000  Uiso   1.00
C86    C     0.54289   0.16298   0.08884   0.00000  Uiso   1.00
C87    C     0.40931   0.17411   0.44159   0.00000  Uiso   1.00
C88    C     0.39561   0.17817   0.49752   0.00000  Uiso   1.00
C89    C     0.42918   0.17083   0.02270   0.00000  Uiso   1.00
C90    C     0.47676   0.15696   0.49217   0.00000  Uiso   1.00
C91    C     0.48768   0.14616   0.43715   0.00000  Uiso   1.00
C92    C     0.51404   0.15370   0.01407   0.00000  Uiso   1.00
C93    C     0.55895   0.13440   0.48358   0.00000  Uiso   1.00
C94    C     0.56593   0.11769   0.43236   0.00000  Uiso   1.00
C95    C     0.53049   0.12301   0.40963   0.00000  Uiso   1.00
C96    C     0.50825   0.17007   0.06511   0.00000  Uiso   1.00
C97    C     0.58789   0.14572   0.05794   0.00000  Uiso   1.00
C98    C     0.45587   0.15964   0.41090   0.00000  Uiso   1.00
H99    H     0.47605   0.18745   0.08826   0.00000  Uiso   1.00
H100   H     0.38400   0.18348   0.42223   0.00000  Uiso   1.00
H101   H     0.41659   0.17539   0.06609   0.00000  Uiso   1.00
H102   H     0.35949   0.18893   0.02121   0.00000  Uiso   1.00
H103   H     0.53698   0.10867   0.37029   0.00000  Uiso   1.00
C104   C     0.54027   0.31098   0.21511   0.00000  Uiso   1.00
C105   C     0.53961   0.02082   0.21640   0.00000  Uiso   1.00
H106   H     0.56916   0.03742   0.18861   0.00000  Uiso   1.00
C107   C     0.49973   0.04250   0.25174   0.00000  Uiso   1.00
C108   C     0.45861   0.02207   0.28476   0.00000  Uiso   1.00
C109   C     0.45921   0.31217   0.28359   0.00000  Uiso   1.00
H110   H     0.42903   0.29535   0.31062   0.00000  Uiso   1.00
C111   C     0.49954   0.29064   0.24875   0.00000  Uiso   1.00
C112   C     0.65142   0.13452   0.22615   0.00000  Uiso   1.00
C113   C     0.36567   0.13470   0.22652   0.00000  Uiso   1.00
H114   H     0.39080   0.10951   0.20710   0.00000  Uiso   1.00
N115   N     0.38093   0.16668   0.25001   0.00000  Uiso   1.00
C116   C     0.34912   0.19857   0.27416   0.00000  Uiso   1.00
H117   H     0.36065   0.22416   0.29349   0.00000  Uiso   1.00
C118   C     0.63457   0.19854   0.27422   0.00000  Uiso   1.00
H119   H     0.61007   0.22407   0.29361   0.00000  Uiso   1.00
N120   N     0.61906   0.16665   0.25000   0.00000  Uiso   1.00
O121   O     0.42047   0.04464   0.32125   0.00000  Uiso   1.00
C122   C     0.37831   0.03846   0.30900   0.00000  Uiso   1.00
H123   H     0.38473   0.04208   0.26496   0.00000  Uiso   1.00
H124   H     0.35104   0.06259   0.33111   0.00000  Uiso   1.00
H125   H     0.36292   0.00741   0.32293   0.00000  Uiso   1.00
C126   C     0.63900   0.09935   0.19802   0.00000  Uiso   1.00
O127   O     0.64381   0.06364   0.21182   0.00000  Uiso   1.00
O128   O     0.62619   0.10657   0.15271   0.00000  Uiso   1.00
H129   H     0.62410   0.07992   0.13267   0.00000  Uiso   1.00
O130   O     0.57752   0.28819   0.17749   0.00000  Uiso   1.00
C131   C     0.62164   0.29638   0.18450   0.00000  Uiso   1.00
H132   H     0.64735   0.27033   0.16549   0.00000  Uiso   1.00
H133   H     0.61817   0.29805   0.22807   0.00000  Uiso   1.00
H134   H     0.63726   0.32546   0.16338   0.00000  Uiso   1.00
O135   O     0.79512   0.22775   0.25000   0.00000  Uiso   1.00
O136   O     0.87157   0.22774   0.25000   0.00000  Uiso   1.00
C137   C     0.83315   0.24655   0.24959   0.00000  Uiso   1.00
O138   O     0.77613   0.16666   0.32681   0.00000  Uiso   1.00
O139   O     0.85258   0.16665   0.32681   0.00000  Uiso   1.00
C140   C     0.80664   0.16408   0.35200   0.00000  Uiso   1.00
Zn141  Zn    0.78229   0.16667   0.25000   0.00000  Uiso   1.00
Zn142  Zn    0.88438   0.16666   0.25000   0.00000  Uiso   1.00
O143   O     0.79510   0.10559   0.24999   0.00000  Uiso   1.00
O144   O     0.87154   0.10558   0.24999   0.00000  Uiso   1.00
O145   O     0.81409   0.16668   0.17319   0.00000  Uiso   1.00
O146   O     0.89053   0.16667   0.17319   0.00000  Uiso   1.00
C147   C     0.83328   0.08671   0.25086   0.00000  Uiso   1.00
C148   C     0.86010   0.16706   0.14772   0.00000  Uiso   1.00
C149   C     0.92936   0.13165   0.00516   0.00000  Uiso   1.00
H150   H     0.94928   0.14171   0.07487   0.00000  Uiso   1.00
H151   H     0.93244   0.10113   0.40944   0.00000  Uiso   1.00
H152   H     0.96398   0.11748   0.48191   0.00000  Uiso   1.00
C153   C     0.87623   0.16298   0.08884   0.00000  Uiso   1.00
C154   C     0.74264   0.17411   0.44159   0.00000  Uiso   1.00
C155   C     0.72895   0.17817   0.49752   0.00000  Uiso   1.00
C156   C     0.76252   0.17083   0.02270   0.00000  Uiso   1.00
C157   C     0.81009   0.15696   0.49217   0.00000  Uiso   1.00
C158   C     0.82101   0.14616   0.43715   0.00000  Uiso   1.00
C159   C     0.84737   0.15370   0.01407   0.00000  Uiso   1.00
C160   C     0.89229   0.13440   0.48358   0.00000  Uiso   1.00
C161   C     0.89926   0.11769   0.43236   0.00000  Uiso   1.00
C162   C     0.86382   0.12301   0.40963   0.00000  Uiso   1.00
C163   C     0.84158   0.17007   0.06511   0.00000  Uiso   1.00
C164   C     0.92122   0.14572   0.05794   0.00000  Uiso   1.00
C165   C     0.78920   0.15964   0.41090   0.00000  Uiso   1.00
H166   H     0.80939   0.18745   0.08826   0.00000  Uiso   1.00
H167   H     0.71733   0.18348   0.42223   0.00000  Uiso   1.00
H168   H     0.74993   0.17539   0.06609   0.00000  Uiso   1.00
H169   H     0.69282   0.18893   0.02121   0.00000  Uiso   1.00
H170   H     0.87031   0.10867   0.37029   0.00000  Uiso   1.00
C171   C     0.87360   0.31098   0.21511   0.00000  Uiso   1.00
C172   C     0.87295   0.02082   0.21640   0.00000  Uiso   1.00
H173   H     0.90249   0.03742   0.18861   0.00000  Uiso   1.00
C174   C     0.83307   0.04250   0.25174   0.00000  Uiso   1.00
C175   C     0.79194   0.02207   0.28476   0.00000  Uiso   1.00
C176   C     0.79255   0.31217   0.28359   0.00000  Uiso   1.00
H177   H     0.76237   0.29535   0.31062   0.00000  Uiso   1.00
C178   C     0.83287   0.29064   0.24875   0.00000  Uiso   1.00
C179   C     0.98475   0.13452   0.22615   0.00000  Uiso   1.00
C180   C     0.69900   0.13470   0.22652   0.00000  Uiso   1.00
H181   H     0.72413   0.10951   0.20710   0.00000  Uiso   1.00
N182   N     0.71426   0.16668   0.25001   0.00000  Uiso   1.00
C183   C     0.68246   0.19857   0.27416   0.00000  Uiso   1.00
H184   H     0.69398   0.22416   0.29349   0.00000  Uiso   1.00
C185   C     0.96790   0.19854   0.27422   0.00000  Uiso   1.00
H186   H     0.94340   0.22407   0.29361   0.00000  Uiso   1.00
N187   N     0.95239   0.16665   0.25000   0.00000  Uiso   1.00
O188   O     0.75380   0.04464   0.32125   0.00000  Uiso   1.00
C189   C     0.71165   0.03846   0.30900   0.00000  Uiso   1.00
H190   H     0.71806   0.04208   0.26496   0.00000  Uiso   1.00
H191   H     0.68437   0.06259   0.33111   0.00000  Uiso   1.00
H192   H     0.69626   0.00741   0.32293   0.00000  Uiso   1.00
C193   C     0.97233   0.09935   0.19802   0.00000  Uiso   1.00
O194   O     0.97714   0.06364   0.21182   0.00000  Uiso   1.00
O195   O     0.95952   0.10657   0.15271   0.00000  Uiso   1.00
H196   H     0.95744   0.07992   0.13267   0.00000  Uiso   1.00
O197   O     0.91085   0.28819   0.17749   0.00000  Uiso   1.00
C198   C     0.95497   0.29638   0.18450   0.00000  Uiso   1.00
H199   H     0.98068   0.27033   0.16549   0.00000  Uiso   1.00
H200   H     0.95150   0.29805   0.22807   0.00000  Uiso   1.00
H201   H     0.97059   0.32546   0.16338   0.00000  Uiso   1.00
O202   O     0.12846   0.56108   0.25000   0.00000  Uiso   1.00
O203   O     0.20490   0.56107   0.25000   0.00000  Uiso   1.00
C204   C     0.16648   0.57989   0.24959   0.00000  Uiso   1.00
O205   O     0.10947   0.50000   0.32681   0.00000  Uiso   1.00
O206   O     0.18591   0.49999   0.32681   0.00000  Uiso   1.00
C207   C     0.13997   0.49742   0.35200   0.00000  Uiso   1.00
Zn208  Zn    0.11562   0.50001   0.25000   0.00000  Uiso   1.00
Zn209  Zn    0.21771   0.49999   0.25000   0.00000  Uiso   1.00
O210   O     0.12843   0.43893   0.24999   0.00000  Uiso   1.00
O211   O     0.20488   0.43892   0.24999   0.00000  Uiso   1.00
O212   O     0.14742   0.50001   0.17319   0.00000  Uiso   1.00
O213   O     0.22387   0.50000   0.17319   0.00000  Uiso   1.00
C214   C     0.16661   0.42005   0.25086   0.00000  Uiso   1.00
C215   C     0.19344   0.50039   0.14772   0.00000  Uiso   1.00
C216   C     0.26269   0.46499   0.00516   0.00000  Uiso   1.00
H217   H     0.28261   0.47505   0.07487   0.00000  Uiso   1.00
H218   H     0.26578   0.43447   0.40944   0.00000  Uiso   1.00
H219   H     0.29731   0.45081   0.48191   0.00000  Uiso   1.00
C220   C     0.20956   0.49631   0.08884   0.00000  Uiso   1.00
C221   C     0.07598   0.50744   0.44159   0.00000  Uiso   1.00
C222   C     0.06228   0.51150   0.49752   0.00000  Uiso   1.00
C223   C     0.09585   0.50417   0.02270   0.00000  Uiso   1.00
C224   C     0.14343   0.49029   0.49217   0.00000  Uiso   1.00
C225   C     0.15434   0.47949   0.43715   0.00000  Uiso   1.00
C226   C     0.18071   0.48703   0.01407   0.00000  Uiso   1.00
C227   C     0.22562   0.46774   0.48358   0.00000  Uiso   1.00
C228   C     0.23259   0.45103   0.43236   0.00000  Uiso   1.00
C229   C     0.19715   0.45634   0.40963   0.00000  Uiso   1.00
C230   C     0.17492   0.50340   0.06511   0.00000  Uiso   1.00
C231   C     0.25455   0.47905   0.05794   0.00000  Uiso   1.00
C232   C     0.12254   0.49297   0.41090   0.00000  Uiso   1.00
H233   H     0.14272   0.52078   0.08826   0.00000  Uiso   1.00
H234   H     0.05067   0.51682   0.42223   0.00000  Uiso   1.00
H235   H     0.08326   0.50872   0.06609   0.00000  Uiso   1.00
H236   H     0.02616   0.52227   0.02121   0.00000  Uiso   1.00
H237   H     0.20365   0.44200   0.37029   0.00000  Uiso   1.00
C238   C     0.20693   0.64431   0.21511   0.00000  Uiso   1.00
C239   C     0.20628   0.35416   0.21640   0.00000  Uiso   1.00
H240   H     0.23582   0.37075   0.18861   0.00000  Uiso   1.00
C241   C     0.16640   0.37583   0.25174   0.00000  Uiso   1.00
C242   C     0.12528   0.35541   0.28476   0.00000  Uiso   1.00
C243   C     0.12588   0.64551   0.28359   0.00000  Uiso   1.00
H244   H     0.09570   0.62869   0.31062   0.00000  Uiso   1.00
C245   C     0.16621   0.62397   0.24875   0.00000  Uiso   1.00
C246   C     0.31809   0.46785   0.22615   0.00000  Uiso   1.00
C247   C     0.03233   0.46803   0.22652   0.00000  Uiso   1.00
H248   H     0.05746   0.44284   0.20710   0.00000  Uiso   1.00
N249   N     0.04760   0.50001   0.25001   0.00000  Uiso   1.00
C250   C     0.01579   0.53190   0.27416   0.00000  Uiso   1.00
H251   H     0.02731   0.55749   0.29349   0.00000  Uiso   1.00
C252   C     0.30124   0.53187   0.27422   0.00000  Uiso   1.00
H253   H     0.27674   0.55741   0.29361   0.00000  Uiso   1.00
N254   N     0.28573   0.49998   0.25000   0.00000  Uiso   1.00
O255   O     0.08714   0.37797   0.32125   0.00000  Uiso   1.00
C256   C     0.04498   0.37179   0.30900   0.00000  Uiso   1.00
H257   H     0.05140   0.37541   0.26496   0.00000  Uiso   1.00
H258   H     0.01771   0.39592   0.33111   0.00000  Uiso   1.00
H259   H     0.02959   0.34075   0.32293   0.00000  Uiso   1.00
C260   C     0.30567   0.43268   0.19802   0.00000  Uiso   1.00
O261   O     0.31048   0.39697   0.21182   0.00000  Uiso   1.00
O262   O     0.29285   0.43990   0.15271   0.00000  Uiso   1.00
H263   H     0.29077   0.41326   0.13267   0.00000  Uiso   1.00
O264   O     0.24419   0.62152   0.17749   0.00000  Uiso   1.00
C265   C     0.28831   0.62971   0.18450   0.00000  Uiso   1.00
H266   H     0.31401   0.60367   0.16549   0.00000  Uiso   1.00
H267   H     0.28484   0.63138   0.22807   0.00000  Uiso   1.00
H268   H     0.30393   0.65879   0.16338   0.00000  Uiso   1.00
O269   O     0.46179   0.56108   0.25000   0.00000  Uiso   1.00
O270   O     0.53823   0.56107   0.25000   0.00000  Uiso   1.00
C271   C     0.49981   0.57989   0.24959   0.00000  Uiso   1.00
O272   O     0.44280   0.50000   0.32681   0.00000  Uiso   1.00
O273   O     0.51924   0.49999   0.32681   0.00000  Uiso   1.00
C274   C     0.47330   0.49742   0.35200   0.00000  Uiso   1.00
Zn275  Zn    0.44896   0.50001   0.25000   0.00000  Uiso   1.00
Zn276  Zn    0.55104   0.49999   0.25000   0.00000  Uiso   1.00
O277   O     0.46177   0.43893   0.24999   0.00000  Uiso   1.00
O278   O     0.53821   0.43892   0.24999   0.00000  Uiso   1.00
O279   O     0.48076   0.50001   0.17319   0.00000  Uiso   1.00
O280   O     0.55720   0.50000   0.17319   0.00000  Uiso   1.00
C281   C     0.49994   0.42005   0.25086   0.00000  Uiso   1.00
C282   C     0.52677   0.50039   0.14772   0.00000  Uiso   1.00
C283   C     0.59603   0.46499   0.00516   0.00000  Uiso   1.00
H284   H     0.61595   0.47505   0.07487   0.00000  Uiso   1.00
H285   H     0.59911   0.43447   0.40944   0.00000  Uiso   1.00
H286   H     0.63064   0.45081   0.48191   0.00000  Uiso   1.00
C287   C     0.54289   0.49631   0.08884   0.00000  Uiso   1.00
C288   C     0.40931   0.50744   0.44159   0.00000  Uiso   1.00
C289   C     0.39561   0.51150   0.49752   0.00000  Uiso   1.00
C290   C     0.42918   0.50417   0.02270   0.00000  Uiso   1.00
C291   C     0.47676   0.49029   0.49217   0.00000  Uiso   1.00
C292   C     0.48768   0.47949   0.43715   0.00000  Uiso   1.00
C293   C     0.51404   0.48703   0.01407   0.00000  Uiso   1.00
C294   C     0.55895   0.46774   0.48358   0.00000  Uiso   1.00
C295   C     0.56593   0.45103   0.43236   0.00000  Uiso   1.00
C296   C     0.53049   0.45634   0.40963   0.00000  Uiso   1.00
C297   C     0.50825   0.50340   0.06511   0.00000  Uiso   1.00
C298   C     0.58789   0.47905   0.05794   0.00000  Uiso   1.00
C299   C     0.45587   0.49297   0.41090   0.00000  Uiso   1.00
H300   H     0.47605   0.52078   0.08826   0.00000  Uiso   1.00
H301   H     0.38400   0.51682   0.42223   0.00000  Uiso   1.00
H302   H     0.41659   0.50872   0.06609   0.00000  Uiso   1.00
H303   H     0.35949   0.52227   0.02121   0.00000  Uiso   1.00
H304   H     0.53698   0.44200   0.37029   0.00000  Uiso   1.00
C305   C     0.54027   0.64431   0.21511   0.00000  Uiso   1.00
C306   C     0.53961   0.35416   0.21640   0.00000  Uiso   1.00
H307   H     0.56916   0.37075   0.18861   0.00000  Uiso   1.00
C308   C     0.49973   0.37583   0.25174   0.00000  Uiso   1.00
C309   C     0.45861   0.35541   0.28476   0.00000  Uiso   1.00
C310   C     0.45921   0.64551   0.28359   0.00000  Uiso   1.00
H311   H     0.42903   0.62869   0.31062   0.00000  Uiso   1.00
C312   C     0.49954   0.62397   0.24875   0.00000  Uiso   1.00
C313   C     0.65142   0.46785   0.22615   0.00000  Uiso   1.00
C314   C     0.36567   0.46803   0.22652   0.00000  Uiso   1.00
H315   H     0.39080   0.44284   0.20710   0.00000  Uiso   1.00
N316   N     0.38093   0.50001   0.25001   0.00000  Uiso   1.00
C317   C     0.34912   0.53190   0.27416   0.00000  Uiso   1.00
H318   H     0.36065   0.55749   0.29349   0.00000  Uiso   1.00
C319   C     0.63457   0.53187   0.27422   0.00000  Uiso   1.00
H320   H     0.61007   0.55741   0.29361   0.00000  Uiso   1.00
N321   N     0.61906   0.49998   0.25000   0.00000  Uiso   1.00
O322   O     0.42047   0.37797   0.32125   0.00000  Uiso   1.00
C323   C     0.37831   0.37179   0.30900   0.00000  Uiso   1.00
H324   H     0.38473   0.37541   0.26496   0.00000  Uiso   1.00
H325   H     0.35104   0.39592   0.33111   0.00000  Uiso   1.00
H326   H     0.36292   0.34075   0.32293   0.00000  Uiso   1.00
C327   C     0.63900   0.43268   0.19802   0.00000  Uiso   1.00
O328   O     0.64381   0.39697   0.21182   0.00000  Uiso   1.00
O329   O     0.62619   0.43990   0.15271   0.00000  Uiso   1.00
H330   H     0.62410   0.41326   0.13267   0.00000  Uiso   1.00
O331   O     0.57752   0.62152   0.17749   0.00000  Uiso   1.00
C332   C     0.62164   0.62971   0.18450   0.00000  Uiso   1.00
H333   H     0.64735   0.60367   0.16549   0.00000  Uiso   1.00
H334   H     0.61817   0.63138   0.22807   0.00000  Uiso   1.00
H335   H     0.63726   0.65879   0.16338   0.00000  Uiso   1.00
O336   O     0.79512   0.56108   0.25000   0.00000  Uiso   1.00
O337   O     0.87157   0.56107   0.25000   0.00000  Uiso   1.00
C338   C     0.83315   0.57989   0.24959   0.00000  Uiso   1.00
O339   O     0.77613   0.50000   0.32681   0.00000  Uiso   1.00
O340   O     0.85258   0.49999   0.32681   0.00000  Uiso   1.00
C341   C     0.80664   0.49742   0.35200   0.00000  Uiso   1.00
Zn342  Zn    0.78229   0.50001   0.25000   0.00000  Uiso   1.00
Zn343  Zn    0.88438   0.49999   0.25000   0.00000  Uiso   1.00
O344   O     0.79510   0.43893   0.24999   0.00000  Uiso   1.00
O345   O     0.87154   0.43892   0.24999   0.00000  Uiso   1.00
O346   O     0.81409   0.50001   0.17319   0.00000  Uiso   1.00
O347   O     0.89053   0.50000   0.17319   0.00000  Uiso   1.00
C348   C     0.83328   0.42005   0.25086   0.00000  Uiso   1.00
C349   C     0.86010   0.50039   0.14772   0.00000  Uiso   1.00
C350   C     0.92936   0.46499   0.00516   0.00000  Uiso   1.00
H351   H     0.94928   0.47505   0.07487   0.00000  Uiso   1.00
H352   H     0.93244   0.43447   0.40944   0.00000  Uiso   1.00
H353   H     0.96398   0.45081   0.48191   0.00000  Uiso   1.00
C354   C     0.87623   0.49631   0.08884   0.00000  Uiso   1.00
C355   C     0.74264   0.50744   0.44159   0.00000  Uiso   1.00
C356   C     0.72895   0.51150   0.49752   0.00000  Uiso   1.00
C357   C     0.76252   0.50417   0.02270   0.00000  Uiso   1.00
C358   C     0.81009   0.49029   0.49217   0.00000  Uiso   1.00
C359   C     0.82101   0.47949   0.43715   0.00000  Uiso   1.00
C360   C     0.84737   0.48703   0.01407   0.00000  Uiso   1.00
C361   C     0.89229   0.46774   0.48358   0.00000  Uiso   1.00
C362   C     0.89926   0.45103   0.43236   0.00000  Uiso   1.00
C363   C     0.86382   0.45634   0.40963   0.00000  Uiso   1.00
C364   C     0.84158   0.50340   0.06511   0.00000  Uiso   1.00
C365   C     0.92122   0.47905   0.05794   0.00000  Uiso   1.00
C366   C     0.78920   0.49297   0.41090   0.00000  Uiso   1.00
H367   H     0.80939   0.52078   0.08826   0.00000  Uiso   1.00
H368   H     0.71733   0.51682   0.42223   0.00000  Uiso   1.00
H369   H     0.74993   0.50872   0.06609   0.00000  Uiso   1.00
H370   H     0.69282   0.52227   0.02121   0.00000  Uiso   1.00
H371   H     0.87031   0.44200   0.37029   0.00000  Uiso   1.00
C372   C     0.87360   0.64431   0.21511   0.00000  Uiso   1.00
C373   C     0.87295   0.35416   0.21640   0.00000  Uiso   1.00
H374   H     0.90249   0.37075   0.18861   0.00000  Uiso   1.00
C375   C     0.83307   0.37583   0.25174   0.00000  Uiso   1.00
C376   C     0.79194   0.35541   0.28476   0.00000  Uiso   1.00
C377   C     0.79255   0.64551   0.28359   0.00000  Uiso   1.00
H378   H     0.76237   0.62869   0.31062   0.00000  Uiso   1.00
C379   C     0.83287   0.62397   0.24875   0.00000  Uiso   1.00
C380   C     0.98475   0.46785   0.22615   0.00000  Uiso   1.00
C381   C     0.69900   0.46803   0.22652   0.00000  Uiso   1.00
H382   H     0.72413   0.44284   0.20710   0.00000  Uiso   1.00
N383   N     0.71426   0.50001   0.25001   0.00000  Uiso   1.00
C384   C     0.68246   0.53190   0.27416   0.00000  Uiso   1.00
H385   H     0.69398   0.55749   0.29349   0.00000  Uiso   1.00
C386   C     0.96790   0.53187   0.27422   0.00000  Uiso   1.00
H387   H     0.94340   0.55741   0.29361   0.00000  Uiso   1.00
N388   N     0.95239   0.49998   0.25000   0.00000  Uiso   1.00
O389   O     0.75380   0.37797   0.32125   0.00000  Uiso   1.00
C390   C     0.71165   0.37179   0.30900   0.00000  Uiso   1.00
H391   H     0.71806   0.37541   0.26496   0.00000  Uiso   1.00
H392   H     0.68437   0.39592   0.33111   0.00000  Uiso   1.00
H393   H     0.69626   0.34075   0.32293   0.00000  Uiso   1.00
C394   C     0.97233   0.43268   0.19802   0.00000  Uiso   1.00
O395   O     0.97714   0.39697   0.21182   0.00000  Uiso   1.00
O396   O     0.95952   0.43990   0.15271   0.00000  Uiso   1.00
H397   H     0.95744   0.41326   0.13267   0.00000  Uiso   1.00
O398   O     0.91085   0.62152   0.17749   0.00000  Uiso   1.00
C399   C     0.95497   0.62971   0.18450   0.00000  Uiso   1.00
H400   H     0.98068   0.60367   0.16549   0.00000  Uiso   1.00
H401   H     0.95150   0.63138   0.22807   0.00000  Uiso   1.00
H402   H     0.97059   0.65879   0.16338   0.00000  Uiso   1.00
O403   O     0.12846   0.89442   0.25000   0.00000  Uiso   1.00
O404   O     0.20490   0.89441   0.25000   0.00000  Uiso   1.00
C405   C     0.16648   0.91322   0.24959   0.00000  Uiso   1.00
O406   O     0.10947   0.83333   0.32681   0.00000  Uiso   1.00
O407   O     0.18591   0.83332   0.32681   0.00000  Uiso   1.00
C408   C     0.13997   0.83075   0.35200   0.00000  Uiso   1.00
Zn409  Zn    0.11562   0.83334   0.25000   0.00000  Uiso   1.00
Zn410  Zn    0.21771   0.83333   0.25000   0.00000  Uiso   1.00
O411   O     0.12843   0.77226   0.24999   0.00000  Uiso   1.00
O412   O     0.20488   0.77225   0.24999   0.00000  Uiso   1.00
O413   O     0.14742   0.83335   0.17319   0.00000  Uiso   1.00
O414   O     0.22387   0.83334   0.17319   0.00000  Uiso   1.00
C415   C     0.16661   0.75338   0.25086   0.00000  Uiso   1.00
C416   C     0.19344   0.83372   0.14772   0.00000  Uiso   1.00
C417   C     0.26269   0.79832   0.00516   0.00000  Uiso   1.00
H418   H     0.28261   0.80838   0.07487   0.00000  Uiso   1.00
H419   H     0.26578   0.76780   0.40944   0.00000  Uiso   1.00
H420   H     0.29731   0.78414   0.48191   0.00000  Uiso   1.00
C421   C     0.20956   0.82965   0.08884   0.00000  Uiso   1.00
C422   C     0.07598   0.84077   0.44159   0.00000  Uiso   1.00
C423   C     0.06228   0.84483   0.49752   0.00000  Uiso   1.00
C424   C     0.09585   0.83750   0.02270   0.00000  Uiso   1.00
C425   C     0.14343   0.82363   0.49217   0.00000  Uiso   1.00
C426   C     0.15434   0.81282   0.43715   0.00000  Uiso   1.00
C427   C     0.18071   0.82037   0.01407   0.00000  Uiso   1.00
C428   C     0.22562   0.80107   0.48358   0.00000  Uiso   1.00
C429   C     0.23259   0.78436   0.43236   0.00000  Uiso   1.00
C430   C     0.19715   0.78968   0.40963   0.00000  Uiso   1.00
C431   C     0.17492   0.83673   0.06511   0.00000  Uiso   1.00
C432   C     0.25455   0.81239   0.05794   0.00000  Uiso   1.00
C433   C     0.12254   0.82631   0.41090   0.00000  Uiso   1.00
H434   H     0.14272   0.85411   0.08826   0.00000  Uiso   1.00
H435   H     0.05067   0.85015   0.42223   0.00000  Uiso   1.00
H436   H     0.08326   0.84206   0.06609   0.00000  Uiso   1.00
H437   H     0.02616   0.85560   0.02121   0.00000  Uiso   1.00
H438   H     0.20365   0.77534   0.37029   0.00000  Uiso   1.00
C439   C     0.20693   0.97764   0.21511   0.00000  Uiso   1.00
C440   C     0.20628   0.68749   0.21640   0.00000  Uiso   1.00
H441   H     0.23582   0.70408   0.18861   0.00000  Uiso   1.00
C442   C     0.16640   0.70917   0.25174   0.00000  Uiso   1.00
C443   C     0.12528   0.68874   0.28476   0.00000  Uiso   1.00
C444   C     0.12588   0.97884   0.28359   0.00000  Uiso   1.00
H445   H     0.09570   0.96202   0.31062   0.00000  Uiso   1.00
C446   C     0.16621   0.95730   0.24875   0.00000  Uiso   1.00
C447   C     0.31809   0.80118   0.22615   0.00000  Uiso   1.00
C448   C     0.03233   0.80136   0.22652   0.00000  Uiso   1.00
H449   H     0.05746   0.77618   0.20710   0.00000  Uiso   1.00
N450   N     0.04760   0.83334   0.25001   0.00000  Uiso   1.00
C451   C     0.01579   0.86524   0.27416   0.00000  Uiso   1.00
H452   H     0.02731   0.89082   0.29349   0.00000  Uiso   1.00
C453   C     0.30124   0.86520   0.27422   0.00000  Uiso   1.00
H454   H     0.27674   0.89074   0.29361   0.00000  Uiso   1.00
N455   N     0.28573   0.83331   0.25000   0.00000  Uiso   1.00
O456   O     0.08714   0.71131   0.32125   0.00000  Uiso   1.00
C457   C     0.04498   0.70513   0.30900   0.00000  Uiso   1.00
H458   H     0.05140   0.70875   0.26496   0.00000  Uiso   1.00
H459   H     0.01771   0.72926   0.33111   0.00000  Uiso   1.00
H460   H     0.02959   0.67408   0.32293   0.00000  Uiso   1.00
C461   C     0.30567   0.76601   0.19802   0.00000  Uiso   1.00
O462   O     0.31048   0.73030   0.21182   0.00000  Uiso   1.00
O463   O     0.29285   0.77324   0.15271   0.00000  Uiso   1.00
H464   H     0.29077   0.74659   0.13267   0.00000  Uiso   1.00
O465   O     0.24419   0.95485   0.17749   0.00000  Uiso   1.00
C466   C     0.28831   0.96305   0.18450   0.00000  Uiso   1.00
H467   H     0.31401   0.93700   0.16549   0.00000  Uiso   1.00
H468   H     0.28484   0.96472   0.22807   0.00000  Uiso   1.00
H469   H     0.30393   0.99213   0.16338   0.00000  Uiso   1.00
O470   O     0.46179   0.89442   0.25000   0.00000  Uiso   1.00
O471   O     0.53823   0.89441   0.25000   0.00000  Uiso   1.00
C472   C     0.49981   0.91322   0.24959   0.00000  Uiso   1.00
O473   O     0.44280   0.83333   0.32681   0.00000  Uiso   1.00
O474   O     0.51924   0.83332   0.32681   0.00000  Uiso   1.00
C475   C     0.47330   0.83075   0.35200   0.00000  Uiso   1.00
Zn476  Zn    0.44896   0.83334   0.25000   0.00000  Uiso   1.00
Zn477  Zn    0.55104   0.83333   0.25000   0.00000  Uiso   1.00
O478   O     0.46177   0.77226   0.24999   0.00000  Uiso   1.00
O479   O     0.53821   0.77225   0.24999   0.00000  Uiso   1.00
O480   O     0.48076   0.83335   0.17319   0.00000  Uiso   1.00
O481   O     0.55720   0.83334   0.17319   0.00000  Uiso   1.00
C482   C     0.49994   0.75338   0.25086   0.00000  Uiso   1.00
C483   C     0.52677   0.83372   0.14772   0.00000  Uiso   1.00
C484   C     0.59603   0.79832   0.00516   0.00000  Uiso   1.00
H485   H     0.61595   0.80838   0.07487   0.00000  Uiso   1.00
H486   H     0.59911   0.76780   0.40944   0.00000  Uiso   1.00
H487   H     0.63064   0.78414   0.48191   0.00000  Uiso   1.00
C488   C     0.54289   0.82965   0.08884   0.00000  Uiso   1.00
C489   C     0.40931   0.84077   0.44159   0.00000  Uiso   1.00
C490   C     0.39561   0.84483   0.49752   0.00000  Uiso   1.00
C491   C     0.42918   0.83750   0.02270   0.00000  Uiso   1.00
C492   C     0.47676   0.82363   0.49217   0.00000  Uiso   1.00
C493   C     0.48768   0.81282   0.43715   0.00000  Uiso   1.00
C494   C     0.51404   0.82037   0.01407   0.00000  Uiso   1.00
C495   C     0.55895   0.80107   0.48358   0.00000  Uiso   1.00
C496   C     0.56593   0.78436   0.43236   0.00000  Uiso   1.00
C497   C     0.53049   0.78968   0.40963   0.00000  Uiso   1.00
C498   C     0.50825   0.83673   0.06511   0.00000  Uiso   1.00
C499   C     0.58789   0.81239   0.05794   0.00000  Uiso   1.00
C500   C     0.45587   0.82631   0.41090   0.00000  Uiso   1.00
H501   H     0.47605   0.85411   0.08826   0.00000  Uiso   1.00
H502   H     0.38400   0.85015   0.42223   0.00000  Uiso   1.00
H503   H     0.41659   0.84206   0.06609   0.00000  Uiso   1.00
H504   H     0.35949   0.85560   0.02121   0.00000  Uiso   1.00
H505   H     0.53698   0.77534   0.37029   0.00000  Uiso   1.00
C506   C     0.54027   0.97764   0.21511   0.00000  Uiso   1.00
C507   C     0.53961   0.68749   0.21640   0.00000  Uiso   1.00
H508   H     0.56916   0.70408   0.18861   0.00000  Uiso   1.00
C509   C     0.49973   0.70917   0.25174   0.00000  Uiso   1.00
C510   C     0.45861   0.68874   0.28476   0.00000  Uiso   1.00
C511   C     0.45921   0.97884   0.28359   0.00000  Uiso   1.00
H512   H     0.42903   0.96202   0.31062   0.00000  Uiso   1.00
C513   C     0.49954   0.95730   0.24875   0.00000  Uiso   1.00
C514   C     0.65142   0.80118   0.22615   0.00000  Uiso   1.00
C515   C     0.36567   0.80136   0.22652   0.00000  Uiso   1.00
H516   H     0.39080   0.77618   0.20710   0.00000  Uiso   1.00
N517   N     0.38093   0.83334   0.25001   0.00000  Uiso   1.00
C518   C     0.34912   0.86524   0.27416   0.00000  Uiso   1.00
H519   H     0.36065   0.89082   0.29349   0.00000  Uiso   1.00
C520   C     0.63457   0.86520   0.27422   0.00000  Uiso   1.00
H521   H     0.61007   0.89074   0.29361   0.00000  Uiso   1.00
N522   N     0.61906   0.83331   0.25000   0.00000  Uiso   1.00
O523   O     0.42047   0.71131   0.32125   0.00000  Uiso   1.00
C524   C     0.37831   0.70513   0.30900   0.00000  Uiso   1.00
H525   H     0.38473   0.70875   0.26496   0.00000  Uiso   1.00
H526   H     0.35104   0.72926   0.33111   0.00000  Uiso   1.00
H527   H     0.36292   0.67408   0.32293   0.00000  Uiso   1.00
C528   C     0.63900   0.76601   0.19802   0.00000  Uiso   1.00
O529   O     0.64381   0.73030   0.21182   0.00000  Uiso   1.00
O530   O     0.62619   0.77324   0.15271   0.00000  Uiso   1.00
H531   H     0.62410   0.74659   0.13267   0.00000  Uiso   1.00
O532   O     0.57752   0.95485   0.17749   0.00000  Uiso   1.00
C533   C     0.62164   0.96305   0.18450   0.00000  Uiso   1.00
H534   H     0.64735   0.93700   0.16549   0.00000  Uiso   1.00
H535   H     0.61817   0.96472   0.22807   0.00000  Uiso   1.00
H536   H     0.63726   0.99213   0.16338   0.00000  Uiso   1.00
O537   O     0.79512   0.89442   0.25000   0.00000  Uiso   1.00
O538   O     0.87157   0.89441   0.25000   0.00000  Uiso   1.00
C539   C     0.83315   0.91322   0.24959   0.00000  Uiso   1.00
O540   O     0.77613   0.83333   0.32681   0.00000  Uiso   1.00
O541   O     0.85258   0.83332   0.32681   0.00000  Uiso   1.00
C542   C     0.80664   0.83075   0.35200   0.00000  Uiso   1.00
Zn543  Zn    0.78229   0.83334   0.25000   0.00000  Uiso   1.00
Zn544  Zn    0.88438   0.83333   0.25000   0.00000  Uiso   1.00
O545   O     0.79510   0.77226   0.24999   0.00000  Uiso   1.00
O546   O     0.87154   0.77225   0.24999   0.00000  Uiso   1.00
O547   O     0.81409   0.83335   0.17319   0.00000  Uiso   1.00
O548   O     0.89053   0.83334   0.17319   0.00000  Uiso   1.00
C549   C     0.83328   0.75338   0.25086   0.00000  Uiso   1.00
C550   C     0.86010   0.83372   0.14772   0.00000  Uiso   1.00
C551   C     0.92936   0.79832   0.00516   0.00000  Uiso   1.00
H552   H     0.94928   0.80838   0.07487   0.00000  Uiso   1.00
H553   H     0.93244   0.76780   0.40944   0.00000  Uiso   1.00
H554   H     0.96398   0.78414   0.48191   0.00000  Uiso   1.00
C555   C     0.87623   0.82965   0.08884   0.00000  Uiso   1.00
C556   C     0.74264   0.84077   0.44159   0.00000  Uiso   1.00
C557   C     0.72895   0.84483   0.49752   0.00000  Uiso   1.00
C558   C     0.76252   0.83750   0.02270   0.00000  Uiso   1.00
C559   C     0.81009   0.82363   0.49217   0.00000  Uiso   1.00
C560   C     0.82101   0.81282   0.43715   0.00000  Uiso   1.00
C561   C     0.84737   0.82037   0.01407   0.00000  Uiso   1.00
C562   C     0.89229   0.80107   0.48358   0.00000  Uiso   1.00
C563   C     0.89926   0.78436   0.43236   0.00000  Uiso   1.00
C564   C     0.86382   0.78968   0.40963   0.00000  Uiso   1.00
C565   C     0.84158   0.83673   0.06511   0.00000  Uiso   1.00
C566   C     0.92122   0.81239   0.05794   0.00000  Uiso   1.00
C567   C     0.78920   0.82631   0.41090   0.00000  Uiso   1.00
H568   H     0.80939   0.85411   0.08826   0.00000  Uiso   1.00
H569   H     0.71733   0.85015   0.42223   0.00000  Uiso   1.00
H570   H     0.74993   0.84206   0.06609   0.00000  Uiso   1.00
H571   H     0.69282   0.85560   0.02121   0.00000  Uiso   1.00
H572   H     0.87031   0.77534   0.37029   0.00000  Uiso   1.00
C573   C     0.87360   0.97764   0.21511   0.00000  Uiso   1.00
C574   C     0.87295   0.68749   0.21640   0.00000  Uiso   1.00
H575   H     0.90249   0.70408   0.18861   0.00000  Uiso   1.00
C576   C     0.83307   0.70917   0.25174   0.00000  Uiso   1.00
C577   C     0.79194   0.68874   0.28476   0.00000  Uiso   1.00
C578   C     0.79255   0.97884   0.28359   0.00000  Uiso   1.00
H579   H     0.76237   0.96202   0.31062   0.00000  Uiso   1.00
C580   C     0.83287   0.95730   0.24875   0.00000  Uiso   1.00
C581   C     0.98475   0.80118   0.22615   0.00000  Uiso   1.00
C582   C     0.69900   0.80136   0.22652   0.00000  Uiso   1.00
H583   H     0.72413   0.77618   0.20710   0.00000  Uiso   1.00
N584   N     0.71426   0.83334   0.25001   0.00000  Uiso   1.00
C585   C     0.68246   0.86524   0.27416   0.00000  Uiso   1.00
H586   H     0.69398   0.89082   0.29349   0.00000  Uiso   1.00
C587   C     0.96790   0.86520   0.27422   0.00000  Uiso   1.00
H588   H     0.94340   0.89074   0.29361   0.00000  Uiso   1.00
N589   N     0.95239   0.83331   0.25000   0.00000  Uiso   1.00
O590   O     0.75380   0.71131   0.32125   0.00000  Uiso   1.00
C591   C     0.71165   0.70513   0.30900   0.00000  Uiso   1.00
H592   H     0.71806   0.70875   0.26496   0.00000  Uiso   1.00
H593   H     0.68437   0.72926   0.33111   0.00000  Uiso   1.00
H594   H     0.69626   0.67408   0.32293   0.00000  Uiso   1.00
C595   C     0.97233   0.76601   0.19802   0.00000  Uiso   1.00
O596   O     0.97714   0.73030   0.21182   0.00000  Uiso   1.00
O597   O     0.95952   0.77324   0.15271   0.00000  Uiso   1.00
H598   H     0.95744   0.74659   0.13267   0.00000  Uiso   1.00
O599   O     0.91085   0.95485   0.17749   0.00000  Uiso   1.00
C600   C     0.95497   0.96305   0.18450   0.00000  Uiso   1.00
H601   H     0.98068   0.93700   0.16549   0.00000  Uiso   1.00
H602   H     0.95150   0.96472   0.22807   0.00000  Uiso   1.00
H603   H     0.97059   0.99213   0.16338   0.00000  Uiso   1.00
O604   O     0.12846   0.22775   0.75000   0.00000  Uiso   1.00
O605   O     0.20490   0.22774   0.75000   0.00000  Uiso   1.00
C606   C     0.16648   0.24655   0.74959   0.00000  Uiso   1.00
O607   O     0.10947   0.16666   0.82681   0.00000  Uiso   1.00
O608   O     0.18591   0.16665   0.82681   0.00000  Uiso   1.00
C609   C     0.13997   0.16408   0.85200   0.00000  Uiso   1.00
Zn610  Zn    0.11562   0.16667   0.75000   0.00000  Uiso   1.00
Zn611  Zn    0.21771   0.16666   0.75000   0.00000  Uiso   1.00
O612   O     0.12843   0.10559   0.74999   0.00000  Uiso   1.00
O613   O     0.20488   0.10558   0.74999   0.00000  Uiso   1.00
O614   O     0.14742   0.16668   0.67319   0.00000  Uiso   1.00
O615   O     0.22387   0.16667   0.67319   0.00000  Uiso   1.00
C616   C     0.16661   0.08671   0.75086   0.00000  Uiso   1.00
C617   C     0.19344   0.16706   0.64772   0.00000  Uiso   1.00
C618   C     0.26269   0.13165   0.50516   0.00000  Uiso   1.00
H619   H     0.28261   0.14171   0.57487   0.00000  Uiso   1.00
H620   H     0.26578   0.10113   0.90944   0.00000  Uiso   1.00
H621   H     0.29731   0.11748   0.98191   0.00000  Uiso   1.00
C622   C     0.20956   0.16298   0.58884   0.00000  Uiso   1.00
C623   C     0.07598   0.17411   0.94159   0.00000  Uiso   1.00
C624   C     0.06228   0.17817   0.99752   0.00000  Uiso   1.00
C625   C     0.09585   0.17083   0.52270   0.00000  Uiso   1.00
C626   C     0.14343   0.15696   0.99217   0.00000  Uiso   1.00
C627   C     0.15434   0.14616   0.93715   0.00000  Uiso   1.00
C628   C     0.18071   0.15370   0.51407   0.00000  Uiso   1.00
C629   C     0.22562   0.13440   0.98358   0.00000  Uiso   1.00
C630   C     0.23259   0.11769   0.93236   0.00000  Uiso   1.00
C631   C     0.19715   0.12301   0.90963   0.00000  Uiso   1.00
C632   C     0.17492   0.17007   0.56511   0.00000  Uiso   1.00
C633   C     0.25455   0.14572   0.55794   0.00000  Uiso   1.00
C634   C     0.12254   0.15964   0.91090   0.00000  Uiso   1.00
H635   H     0.14272   0.18745   0.58826   0.00000  Uiso   1.00
H636   H     0.05067   0.18348   0.92223   0.00000  Uiso   1.00
H637   H     0.08326   0.17539   0.56609   0.00000  Uiso   1.00
H638   H     0.02616   0.18893   0.52121   0.00000  Uiso   1.00
H639   H     0.20365   0.10867   0.87029   0.00000  Uiso   1.00
C640   C     0.20693   0.31098   0.71511   0.00000  Uiso   1.00
C641   C     0.20628   0.02082   0.71640   0.00000  Uiso   1.00
H642   H     0.23582   0.03742   0.68861   0.00000  Uiso   1.00
C643   C     0.16640   0.04250   0.75174   0.00000  Uiso   1.00
C644   C     0.12528   0.02207   0.78476   0.00000  Uiso   1.00
C645   C     0.12588   0.31217   0.78359   0.00000  Uiso   1.00
H646   H     0.09570   0.29535   0.81062   0.00000  Uiso   1.00
C647   C     0.16621   0.29064   0.74875   0.00000  Uiso   1.00
C648   C     0.31809   0.13452   0.72615   0.00000  Uiso   1.00
C649   C     0.03233   0.13470   0.72652   0.00000  Uiso   1.00
H650   H     0.05746   0.10951   0.70710   0.00000  Uiso   1.00
N651   N     0.04760   0.16668   0.75001   0.00000  Uiso   1.00
C652   C     0.01579   0.19857   0.77416   0.00000  Uiso   1.00
H653   H     0.02731   0.22416   0.79349   0.00000  Uiso   1.00
C654   C     0.30124   0.19854   0.77422   0.00000  Uiso   1.00
H655   H     0.27674   0.22407   0.79361   0.00000  Uiso   1.00
N656   N     0.28573   0.16665   0.75000   0.00000  Uiso   1.00
O657   O     0.08714   0.04464   0.82125   0.00000  Uiso   1.00
C658   C     0.04498   0.03846   0.80900   0.00000  Uiso   1.00
H659   H     0.05140   0.04208   0.76496   0.00000  Uiso   1.00
H660   H     0.01771   0.06259   0.83111   0.00000  Uiso   1.00
H661   H     0.02959   0.00741   0.82293   0.00000  Uiso   1.00
C662   C     0.30567   0.09935   0.69802   0.00000  Uiso   1.00
O663   O     0.31048   0.06364   0.71182   0.00000  Uiso   1.00
O664   O     0.29285   0.10657   0.65271   0.00000  Uiso   1.00
H665   H     0.29077   0.07992   0.63267   0.00000  Uiso   1.00
O666   O     0.24419   0.28819   0.67749   0.00000  Uiso   1.00
C667   C     0.28831   0.29638   0.68450   0.00000  Uiso   1.00
H668   H     0.31401   0.27033   0.66549   0.00000  Uiso   1.00
H669   H     0.28484   0.29805   0.72807   0.00000  Uiso   1.00
H670   H     0.30393   0.32546   0.66338   0.00000  Uiso   1.00
O671   O     0.46179   0.22775   0.75000   0.00000  Uiso   1.00
O672   O     0.53823   0.22774   0.75000   0.00000  Uiso   1.00
C673   C     0.49981   0.24655   0.74959   0.00000  Uiso   1.00
O674   O     0.44280   0.16666   0.82681   0.00000  Uiso   1.00
O675   O     0.51924   0.16665   0.82681   0.00000  Uiso   1.00
C676   C     0.47330   0.16408   0.85200   0.00000  Uiso   1.00
Zn677  Zn    0.44896   0.16667   0.75000   0.00000  Uiso   1.00
Zn678  Zn    0.55104   0.16666   0.75000   0.00000  Uiso   1.00
O679   O     0.46177   0.10559   0.74999   0.00000  Uiso   1.00
O680   O     0.53821   0.10558   0.74999   0.00000  Uiso   1.00
O681   O     0.48076   0.16668   0.67319   0.00000  Uiso   1.00
O682   O     0.55720   0.16667   0.67319   0.00000  Uiso   1.00
C683   C     0.49994   0.08671   0.75086   0.00000  Uiso   1.00
C684   C     0.52677   0.16706   0.64772   0.00000  Uiso   1.00
C685   C     0.59603   0.13165   0.50516   0.00000  Uiso   1.00
H686   H     0.61595   0.14171   0.57487   0.00000  Uiso   1.00
H687   H     0.59911   0.10113   0.90944   0.00000  Uiso   1.00
H688   H     0.63064   0.11748   0.98191   0.00000  Uiso   1.00
C689   C     0.54289   0.16298   0.58884   0.00000  Uiso   1.00
C690   C     0.40931   0.17411   0.94159   0.00000  Uiso   1.00
C691   C     0.39561   0.17817   0.99752   0.00000  Uiso   1.00
C692   C     0.42918   0.17083   0.52270   0.00000  Uiso   1.00
C693   C     0.47676   0.15696   0.99217   0.00000  Uiso   1.00
C694   C     0.48768   0.14616   0.93715   0.00000  Uiso   1.00
C695   C     0.51404   0.15370   0.51407   0.00000  Uiso   1.00
C696   C     0.55895   0.13440   0.98358   0.00000  Uiso   1.00
C697   C     0.56593   0.11769   0.93236   0.00000  Uiso   1.00
C698   C     0.53049   0.12301   0.90963   0.00000  Uiso   1.00
C699   C     0.50825   0.17007   0.56511   0.00000  Uiso   1.00
C700   C     0.58789   0.14572   0.55794   0.00000  Uiso   1.00
C701   C     0.45587   0.15964   0.91090   0.00000  Uiso   1.00
H702   H     0.47605   0.18745   0.58826   0.00000  Uiso   1.00
H703   H     0.38400   0.18348   0.92223   0.00000  Uiso   1.00
H704   H     0.41659   0.17539   0.56609   0.00000  Uiso   1.00
H705   H     0.35949   0.18893   0.52121   0.00000  Uiso   1.00
H706   H     0.53698   0.10867   0.87029   0.00000  Uiso   1.00
C707   C     0.54027   0.31098   0.71511   0.00000  Uiso   1.00
C708   C     0.53961   0.02082   0.71640   0.00000  Uiso   1.00
H709   H     0.56916   0.03742   0.68861   0.00000  Uiso   1.00
C710   C     0.49973   0.04250   0.75174   0.00000  Uiso   1.00
C711   C     0.45861   0.02207   0.78476   0.00000  Uiso   1.00
C712   C     0.45921   0.31217   0.78359   0.00000  Uiso   1.00
H713   H     0.42903   0.29535   0.81062   0.00000  Uiso   1.00
C714   C     0.49954   0.29064   0.74875   0.00000  Uiso   1.00
C715   C     0.65142   0.13452   0.72615   0.00000  Uiso   1.00
C716   C     0.36567   0.13470   0.72652   0.00000  Uiso   1.00
H717   H     0.39080   0.10951   0.70710   0.00000  Uiso   1.00
N718   N     0.38093   0.16668   0.75001   0.00000  Uiso   1.00
C719   C     0.34912   0.19857   0.77416   0.00000  Uiso   1.00
H720   H     0.36065   0.22416   0.79349   0.00000  Uiso   1.00
C721   C     0.63457   0.19854   0.77422   0.00000  Uiso   1.00
H722   H     0.61007   0.22407   0.79361   0.00000  Uiso   1.00
N723   N     0.61906   0.16665   0.75000   0.00000  Uiso   1.00
O724   O     0.42047   0.04464   0.82125   0.00000  Uiso   1.00
C725   C     0.37831   0.03846   0.80900   0.00000  Uiso   1.00
H726   H     0.38473   0.04208   0.76496   0.00000  Uiso   1.00
H727   H     0.35104   0.06259   0.83111   0.00000  Uiso   1.00
H728   H     0.36292   0.00741   0.82293   0.00000  Uiso   1.00
C729   C     0.63900   0.09935   0.69802   0.00000  Uiso   1.00
O730   O     0.64381   0.06364   0.71182   0.00000  Uiso   1.00
O731   O     0.62619   0.10657   0.65271   0.00000  Uiso   1.00
H732   H     0.62410   0.07992   0.63267   0.00000  Uiso   1.00
O733   O     0.57752   0.28819   0.67749   0.00000  Uiso   1.00
C734   C     0.62164   0.29638   0.68450   0.00000  Uiso   1.00
H735   H     0.64735   0.27033   0.66549   0.00000  Uiso   1.00
H736   H     0.61817   0.29805   0.72807   0.00000  Uiso   1.00
H737   H     0.63726   0.32546   0.66338   0.00000  Uiso   1.00
O738   O     0.79512   0.22775   0.75000   0.00000  Uiso   1.00
O739   O     0.87157   0.22774   0.75000   0.00000  Uiso   1.00
C740   C     0.83315   0.24655   0.74959   0.00000  Uiso   1.00
O741   O     0.77613   0.16666   0.82681   0.00000  Uiso   1.00
O742   O     0.85258   0.16665   0.82681   0.00000  Uiso   1.00
C743   C     0.80664   0.16408   0.85200   0.00000  Uiso   1.00
Zn744  Zn    0.78229   0.16667   0.75000   0.00000  Uiso   1.00
Zn745  Zn    0.88438   0.16666   0.75000   0.00000  Uiso   1.00
O746   O     0.79510   0.10559   0.74999   0.00000  Uiso   1.00
O747   O     0.87154   0.10558   0.74999   0.00000  Uiso   1.00
O748   O     0.81409   0.16668   0.67319   0.00000  Uiso   1.00
O749   O     0.89053   0.16667   0.67319   0.00000  Uiso   1.00
C750   C     0.83328   0.08671   0.75086   0.00000  Uiso   1.00
C751   C     0.86010   0.16706   0.64772   0.00000  Uiso   1.00
C752   C     0.92936   0.13165   0.50516   0.00000  Uiso   1.00
H753   H     0.94928   0.14171   0.57487   0.00000  Uiso   1.00
H754   H     0.93244   0.10113   0.90944   0.00000  Uiso   1.00
H755   H     0.96398   0.11748   0.98191   0.00000  Uiso   1.00
C756   C     0.87623   0.16298   0.58884   0.00000  Uiso   1.00
C757   C     0.74264   0.17411   0.94159   0.00000  Uiso   1.00
C758   C     0.72895   0.17817   0.99752   0.00000  Uiso   1.00
C759   C     0.76252   0.17083   0.52270   0.00000  Uiso   1.00
C760   C     0.81009   0.15696   0.99217   0.00000  Uiso   1.00
C761   C     0.82101   0.14616   0.93715   0.00000  Uiso   1.00
C762   C     0.84737   0.15370   0.51407   0.00000  Uiso   1.00
C763   C     0.89229   0.13440   0.98358   0.00000  Uiso   1.00
C764   C     0.89926   0.11769   0.93236   0.00000  Uiso   1.00
C765   C     0.86382   0.12301   0.90963   0.00000  Uiso   1.00
C766   C     0.84158   0.17007   0.56511   0.00000  Uiso   1.00
C767   C     0.92122   0.14572   0.55794   0.00000  Uiso   1.00
C768   C     0.78920   0.15964   0.91090   0.00000  Uiso   1.00
H769   H     0.80939   0.18745   0.58826   0.00000  Uiso   1.00
H770   H     0.71733   0.18348   0.92223   0.00000  Uiso   1.00
H771   H     0.74993   0.17539   0.56609   0.00000  Uiso   1.00
H772   H     0.69282   0.18893   0.52121   0.00000  Uiso   1.00
H773   H     0.87031   0.10867   0.87029   0.00000  Uiso   1.00
C774   C     0.87360   0.31098   0.71511   0.00000  Uiso   1.00
C775   C     0.87295   0.02082   0.71640   0.00000  Uiso   1.00
H776   H     0.90249   0.03742   0.68861   0.00000  Uiso   1.00
C777   C     0.83307   0.04250   0.75174   0.00000  Uiso   1.00
C778   C     0.79194   0.02207   0.78476   0.00000  Uiso   1.00
C779   C     0.79255   0.31217   0.78359   0.00000  Uiso   1.00
H780   H     0.76237   0.29535   0.81062   0.00000  Uiso   1.00
C781   C     0.83287   0.29064   0.74875   0.00000  Uiso   1.00
C782   C     0.98475   0.13452   0.72615   0.00000  Uiso   1.00
C783   C     0.69900   0.13470   0.72652   0.00000  Uiso   1.00
H784   H     0.72413   0.10951   0.70710   0.00000  Uiso   1.00
N785   N     0.71426   0.16668   0.75001   0.00000  Uiso   1.00
C786   C     0.68246   0.19857   0.77416   0.00000  Uiso   1.00
H787   H     0.69398   0.22416   0.79349   0.00000  Uiso   1.00
C788   C     0.96790   0.19854   0.77422   0.00000  Uiso   1.00
H789   H     0.94340   0.22407   0.79361   0.00000  Uiso   1.00
N790   N     0.95239   0.16665   0.75000   0.00000  Uiso   1.00
O791   O     0.75380   0.04464   0.82125   0.00000  Uiso   1.00
C792   C     0.71165   0.03846   0.80900   0.00000  Uiso   1.00
H793   H     0.71806   0.04208   0.76496   0.00000  Uiso   1.00
H794   H     0.68437   0.06259   0.83111   0.00000  Uiso   1.00
H795   H     0.69626   0.00741   0.82293   0.00000  Uiso   1.00
C796   C     0.97233   0.09935   0.69802   0.00000  Uiso   1.00
O797   O     0.97714   0.06364   0.71182   0.00000  Uiso   1.00
O798   O     0.95952   0.10657   0.65271   0.00000  Uiso   1.00
H799   H     0.95744   0.07992   0.63267   0.00000  Uiso   1.00
O800   O     0.91085   0.28819   0.67749   0.00000  Uiso   1.00
C801   C     0.95497   0.29638   0.68450   0.00000  Uiso   1.00
H802   H     0.98068   0.27033   0.66549   0.00000  Uiso   1.00
H803   H     0.95150   0.29805   0.72807   0.00000  Uiso   1.00
H804   H     0.97059   0.32546   0.66338   0.00000  Uiso   1.00
O805   O     0.12846   0.56108   0.75000   0.00000  Uiso   1.00
O806   O     0.20490   0.56107   0.75000   0.00000  Uiso   1.00
C807   C     0.16648   0.57989   0.74959   0.00000  Uiso   1.00
O808   O     0.10947   0.50000   0.82681   0.00000  Uiso   1.00
O809   O     0.18591   0.49999   0.82681   0.00000  Uiso   1.00
C810   C     0.13997   0.49742   0.85200   0.00000  Uiso   1.00
Zn811  Zn    0.11562   0.50001   0.75000   0.00000  Uiso   1.00
Zn812  Zn    0.21771   0.49999   0.75000   0.00000  Uiso   1.00
O813   O     0.12843   0.43893   0.74999   0.00000  Uiso   1.00
O814   O     0.20488   0.43892   0.74999   0.00000  Uiso   1.00
O815   O     0.14742   0.50001   0.67319   0.00000  Uiso   1.00
O816   O     0.22387   0.50000   0.67319   0.00000  Uiso   1.00
C817   C     0.16661   0.42005   0.75086   0.00000  Uiso   1.00
C818   C     0.19344   0.50039   0.64772   0.00000  Uiso   1.00
C819   C     0.26269   0.46499   0.50516   0.00000  Uiso   1.00
H820   H     0.28261   0.47505   0.57487   0.00000  Uiso   1.00
H821   H     0.26578   0.43447   0.90944   0.00000  Uiso   1.00
H822   H     0.29731   0.45081   0.98191   0.00000  Uiso   1.00
C823   C     0.20956   0.49631   0.58884   0.00000  Uiso   1.00
C824   C     0.07598   0.50744   0.94159   0.00000  Uiso   1.00
C825   C     0.06228   0.51150   0.99752   0.00000  Uiso   1.00
C826   C     0.09585   0.50417   0.52270   0.00000  Uiso   1.00
C827   C     0.14343   0.49029   0.99217   0.00000  Uiso   1.00
C828   C     0.15434   0.47949   0.93715   0.00000  Uiso   1.00
C829   C     0.18071   0.48703   0.51407   0.00000  Uiso   1.00
C830   C     0.22562   0.46774   0.98358   0.00000  Uiso   1.00
C831   C     0.23259   0.45103   0.93236   0.00000  Uiso   1.00
C832   C     0.19715   0.45634   0.90963   0.00000  Uiso   1.00
C833   C     0.17492   0.50340   0.56511   0.00000  Uiso   1.00
C834   C     0.25455   0.47905   0.55794   0.00000  Uiso   1.00
C835   C     0.12254   0.49297   0.91090   0.00000  Uiso   1.00
H836   H     0.14272   0.52078   0.58826   0.00000  Uiso   1.00
H837   H     0.05067   0.51682   0.92223   0.00000  Uiso   1.00
H838   H     0.08326   0.50872   0.56609   0.00000  Uiso   1.00
H839   H     0.02616   0.52227   0.52121   0.00000  Uiso   1.00
H840   H     0.20365   0.44200   0.87029   0.00000  Uiso   1.00
C841   C     0.20693   0.64431   0.71511   0.00000  Uiso   1.00
C842   C     0.20628   0.35416   0.71640   0.00000  Uiso   1.00
H843   H     0.23582   0.37075   0.68861   0.00000  Uiso   1.00
C844   C     0.16640   0.37583   0.75174   0.00000  Uiso   1.00
C845   C     0.12528   0.35541   0.78476   0.00000  Uiso   1.00
C846   C     0.12588   0.64551   0.78359   0.00000  Uiso   1.00
H847   H     0.09570   0.62869   0.81062   0.00000  Uiso   1.00
C848   C     0.16621   0.62397   0.74875   0.00000  Uiso   1.00
C849   C     0.31809   0.46785   0.72615   0.00000  Uiso   1.00
C850   C     0.03233   0.46803   0.72652   0.00000  Uiso   1.00
H851   H     0.05746   0.44284   0.70710   0.00000  Uiso   1.00
N852   N     0.04760   0.50001   0.75001   0.00000  Uiso   1.00
C853   C     0.01579   0.53190   0.77416   0.00000  Uiso   1.00
H854   H     0.02731   0.55749   0.79349   0.00000  Uiso   1.00
C855   C     0.30124   0.53187   0.77422   0.00000  Uiso   1.00
H856   H     0.27674   0.55741   0.79361   0.00000  Uiso   1.00
N857   N     0.28573   0.49998   0.75000   0.00000  Uiso   1.00
O858   O     0.08714   0.37797   0.82125   0.00000  Uiso   1.00
C859   C     0.04498   0.37179   0.80900   0.00000  Uiso   1.00
H860   H     0.05140   0.37541   0.76496   0.00000  Uiso   1.00
H861   H     0.01771   0.39592   0.83111   0.00000  Uiso   1.00
H862   H     0.02959   0.34075   0.82293   0.00000  Uiso   1.00
C863   C     0.30567   0.43268   0.69802   0.00000  Uiso   1.00
O864   O     0.31048   0.39697   0.71182   0.00000  Uiso   1.00
O865   O     0.29285   0.43990   0.65271   0.00000  Uiso   1.00
H866   H     0.29077   0.41326   0.63267   0.00000  Uiso   1.00
O867   O     0.24419   0.62152   0.67749   0.00000  Uiso   1.00
C868   C     0.28831   0.62971   0.68450   0.00000  Uiso   1.00
H869   H     0.31401   0.60367   0.66549   0.00000  Uiso   1.00
H870   H     0.28484   0.63138   0.72807   0.00000  Uiso   1.00
H871   H     0.30393   0.65879   0.66338   0.00000  Uiso   1.00
O872   O     0.46179   0.56108   0.75000   0.00000  Uiso   1.00
O873   O     0.53823   0.56107   0.75000   0.00000  Uiso   1.00
C874   C     0.49981   0.57989   0.74959   0.00000  Uiso   1.00
O875   O     0.44280   0.50000   0.82681   0.00000  Uiso   1.00
O876   O     0.51924   0.49999   0.82681   0.00000  Uiso   1.00
C877   C     0.47330   0.49742   0.85200   0.00000  Uiso   1.00
Zn878  Zn    0.44896   0.50001   0.75000   0.00000  Uiso   1.00
Zn879  Zn    0.55104   0.49999   0.75000   0.00000  Uiso   1.00
O880   O     0.46177   0.43893   0.74999   0.00000  Uiso   1.00
O881   O     0.53821   0.43892   0.74999   0.00000  Uiso   1.00
O882   O     0.48076   0.50001   0.67319   0.00000  Uiso   1.00
O883   O     0.55720   0.50000   0.67319   0.00000  Uiso   1.00
C884   C     0.49994   0.42005   0.75086   0.00000  Uiso   1.00
C885   C     0.52677   0.50039   0.64772   0.00000  Uiso   1.00
C886   C     0.59603   0.46499   0.50516   0.00000  Uiso   1.00
H887   H     0.61595   0.47505   0.57487   0.00000  Uiso   1.00
H888   H     0.59911   0.43447   0.90944   0.00000  Uiso   1.00
H889   H     0.63064   0.45081   0.98191   0.00000  Uiso   1.00
C890   C     0.54289   0.49631   0.58884   0.00000  Uiso   1.00
C891   C     0.40931   0.50744   0.94159   0.00000  Uiso   1.00
C892   C     0.39561   0.51150   0.99752   0.00000  Uiso   1.00
C893   C     0.42918   0.50417   0.52270   0.00000  Uiso   1.00
C894   C     0.47676   0.49029   0.99217   0.00000  Uiso   1.00
C895   C     0.48768   0.47949   0.93715   0.00000  Uiso   1.00
C896   C     0.51404   0.48703   0.51407   0.00000  Uiso   1.00
C897   C     0.55895   0.46774   0.98358   0.00000  Uiso   1.00
C898   C     0.56593   0.45103   0.93236   0.00000  Uiso   1.00
C899   C     0.53049   0.45634   0.90963   0.00000  Uiso   1.00
C900   C     0.50825   0.50340   0.56511   0.00000  Uiso   1.00
C901   C     0.58789   0.47905   0.55794   0.00000  Uiso   1.00
C902   C     0.45587   0.49297   0.91090   0.00000  Uiso   1.00
H903   H     0.47605   0.52078   0.58826   0.00000  Uiso   1.00
H904   H     0.38400   0.51682   0.92223   0.00000  Uiso   1.00
H905   H     0.41659   0.50872   0.56609   0.00000  Uiso   1.00
H906   H     0.35949   0.52227   0.52121   0.00000  Uiso   1.00
H907   H     0.53698   0.44200   0.87029   0.00000  Uiso   1.00
C908   C     0.54027   0.64431   0.71511   0.00000  Uiso   1.00
C909   C     0.53961   0.35416   0.71640   0.00000  Uiso   1.00
H910   H     0.56916   0.37075   0.68861   0.00000  Uiso   1.00
C911   C     0.49973   0.37583   0.75174   0.00000  Uiso   1.00
C912   C     0.45861   0.35541   0.78476   0.00000  Uiso   1.00
C913   C     0.45921   0.64551   0.78359   0.00000  Uiso   1.00
H914   H     0.42903   0.62869   0.81062   0.00000  Uiso   1.00
C915   C     0.49954   0.62397   0.74875   0.00000  Uiso   1.00
C916   C     0.65142   0.46785   0.72615   0.00000  Uiso   1.00
C917   C     0.36567   0.46803   0.72652   0.00000  Uiso   1.00
H918   H     0.39080   0.44284   0.70710   0.00000  Uiso   1.00
N919   N     0.38093   0.50001   0.75001   0.00000  Uiso   1.00
C920   C     0.34912   0.53190   0.77416   0.00000  Uiso   1.00
H921   H     0.36065   0.55749   0.79349   0.00000  Uiso   1.00
C922   C     0.63457   0.53187   0.77422   0.00000  Uiso   1.00
H923   H     0.61007   0.55741   0.79361   0.00000  Uiso   1.00
N924   N     0.61906   0.49998   0.75000   0.00000  Uiso   1.00
O925   O     0.42047   0.37797   0.82125   0.00000  Uiso   1.00
C926   C     0.37831   0.37179   0.80900   0.00000  Uiso   1.00
H927   H     0.38473   0.37541   0.76496   0.00000  Uiso   1.00
H928   H     0.35104   0.39592   0.83111   0.00000  Uiso   1.00
H929   H     0.36292   0.34075   0.82293   0.00000  Uiso   1.00
C930   C     0.63900   0.43268   0.69802   0.00000  Uiso   1.00
O931   O     0.64381   0.39697   0.71182   0.00000  Uiso   1.00
O932   O     0.62619   0.43990   0.65271   0.00000  Uiso   1.00
H933   H     0.62410   0.41326   0.63267   0.00000  Uiso   1.00
O934   O     0.57752   0.62152   0.67749   0.00000  Uiso   1.00
C935   C     0.62164   0.62971   0.68450   0.00000  Uiso   1.00
H936   H     0.64735   0.60367   0.66549   0.00000  Uiso   1.00
H937   H     0.61817   0.63138   0.72807   0.00000  Uiso   1.00
H938   H     0.63726   0.65879   0.66338   0.00000  Uiso   1.00
O939   O     0.79512   0.56108   0.75000   0.00000  Uiso   1.00
O940   O     0.87157   0.56107   0.75000   0.00000  Uiso   1.00
C941   C     0.83315   0.57989   0.74959   0.00000  Uiso   1.00
O942   O     0.77613   0.50000   0.82681   0.00000  Uiso   1.00
O943   O     0.85258   0.49999   0.82681   0.00000  Uiso   1.00
C944   C     0.80664   0.49742   0.85200   0.00000  Uiso   1.00
Zn945  Zn    0.78229   0.50001   0.75000   0.00000  Uiso   1.00
Zn946  Zn    0.88438   0.49999   0.75000   0.00000  Uiso   1.00
O947   O     0.79510   0.43893   0.74999   0.00000  Uiso   1.00
O948   O     0.87154   0.43892   0.74999   0.00000  Uiso   1.00
O949   O     0.81409   0.50001   0.67319   0.00000  Uiso   1.00
O950   O     0.89053   0.50000   0.67319   0.00000  Uiso   1.00
C951   C     0.83328   0.42005   0.75086   0.00000  Uiso   1.00
C952   C     0.86010   0.50039   0.64772   0.00000  Uiso   1.00
C953   C     0.92936   0.46499   0.50516   0.00000  Uiso   1.00
H954   H     0.94928   0.47505   0.57487   0.00000  Uiso   1.00
H955   H     0.93244   0.43447   0.90944   0.00000  Uiso   1.00
H956   H     0.96398   0.45081   0.98191   0.00000  Uiso   1.00
C957   C     0.87623   0.49631   0.58884   0.00000  Uiso   1.00
C958   C     0.74264   0.50744   0.94159   0.00000  Uiso   1.00
C959   C     0.72895   0.51150   0.99752   0.00000  Uiso   1.00
C960   C     0.76252   0.50417   0.52270   0.00000  Uiso   1.00
C961   C     0.81009   0.49029   0.99217   0.00000  Uiso   1.00
C962   C     0.82101   0.47949   0.93715   0.00000  Uiso   1.00
C963   C     0.84737   0.48703   0.51407   0.00000  Uiso   1.00
C964   C     0.89229   0.46774   0.98358   0.00000  Uiso   1.00
C965   C     0.89926   0.45103   0.93236   0.00000  Uiso   1.00
C966   C     0.86382   0.45634   0.90963   0.00000  Uiso   1.00
C967   C     0.84158   0.50340   0.56511   0.00000  Uiso   1.00
C968   C     0.92122   0.47905   0.55794   0.00000  Uiso   1.00
C969   C     0.78920   0.49297   0.91090   0.00000  Uiso   1.00
H970   H     0.80939   0.52078   0.58826   0.00000  Uiso   1.00
H971   H     0.71733   0.51682   0.92223   0.00000  Uiso   1.00
H972   H     0.74993   0.50872   0.56609   0.00000  Uiso   1.00
H973   H     0.69282   0.52227   0.52121   0.00000  Uiso   1.00
H974   H     0.87031   0.44200   0.87029   0.00000  Uiso   1.00
C975   C     0.87360   0.64431   0.71511   0.00000  Uiso   1.00
C976   C     0.87295   0.35416   0.71640   0.00000  Uiso   1.00
H977   H     0.90249   0.37075   0.68861   0.00000  Uiso   1.00
C978   C     0.83307   0.37583   0.75174   0.00000  Uiso   1.00
C979   C     0.79194   0.35541   0.78476   0.00000  Uiso   1.00
C980   C     0.79255   0.64551   0.78359   0.00000  Uiso   1.00
H981   H     0.76237   0.62869   0.81062   0.00000  Uiso   1.00
C982   C     0.83287   0.62397   0.74875   0.00000  Uiso   1.00
C983   C     0.98475   0.46785   0.72615   0.00000  Uiso   1.00
C984   C     0.69900   0.46803   0.72652   0.00000  Uiso   1.00
H985   H     0.72413   0.44284   0.70710   0.00000  Uiso   1.00
N986   N     0.71426   0.50001   0.75001   0.00000  Uiso   1.00
C987   C     0.68246   0.53190   0.77416   0.00000  Uiso   1.00
H988   H     0.69398   0.55749   0.79349   0.00000  Uiso   1.00
C989   C     0.96790   0.53187   0.77422   0.00000  Uiso   1.00
H990   H     0.94340   0.55741   0.79361   0.00000  Uiso   1.00
N991   N     0.95239   0.49998   0.75000   0.00000  Uiso   1.00
O992   O     0.75380   0.37797   0.82125   0.00000  Uiso   1.00
C993   C     0.71165   0.37179   0.80900   0.00000  Uiso   1.00
H994   H     0.71806   0.37541   0.76496   0.00000  Uiso   1.00
H995   H     0.68437   0.39592   0.83111   0.00000  Uiso   1.00
H996   H     0.69626   0.34075   0.82293   0.00000  Uiso   1.00
C997   C     0.97233   0.43268   0.69802   0.00000  Uiso   1.00
O998   O     0.97714   0.39697   0.71182   0.00000  Uiso   1.00
O999   O     0.95952   0.43990   0.65271   0.00000  Uiso   1.00
H1000  H     0.95744   0.41326   0.63267   0.00000  Uiso   1.00
O1001  O     0.91085   0.62152   0.67749   0.00000  Uiso   1.00
C1002  C     0.95497   0.62971   0.68450   0.00000  Uiso   1.00
H1003  H     0.98068   0.60367   0.66549   0.00000  Uiso   1.00
H1004  H     0.95150   0.63138   0.72807   0.00000  Uiso   1.00
H1005  H     0.97059   0.65879   0.66338   0.00000  Uiso   1.00
O1006  O     0.12846   0.89442   0.75000   0.00000  Uiso   1.00
O1007  O     0.20490   0.89441   0.75000   0.00000  Uiso   1.00
C1008  C     0.16648   0.91322   0.74959   0.00000  Uiso   1.00
O1009  O     0.10947   0.83333   0.82681   0.00000  Uiso   1.00
O1010  O     0.18591   0.83332   0.82681   0.00000  Uiso   1.00
C1011  C     0.13997   0.83075   0.85200   0.00000  Uiso   1.00
Zn1012 Zn    0.11562   0.83334   0.75000   0.00000  Uiso   1.00
Zn1013 Zn    0.21771   0.83333   0.75000   0.00000  Uiso   1.00
O1014  O     0.12843   0.77226   0.74999   0.00000  Uiso   1.00
O1015  O     0.20488   0.77225   0.74999   0.00000  Uiso   1.00
O1016  O     0.14742   0.83335   0.67319   0.00000  Uiso   1.00
O1017  O     0.22387   0.83334   0.67319   0.00000  Uiso   1.00
C1018  C     0.16661   0.75338   0.75086   0.00000  Uiso   1.00
C1019  C     0.19344   0.83372   0.64772   0.00000  Uiso   1.00
C1020  C     0.26269   0.79832   0.50516   0.00000  Uiso   1.00
H1021  H     0.28261   0.80838   0.57487   0.00000  Uiso   1.00
H1022  H     0.26578   0.76780   0.90944   0.00000  Uiso   1.00
H1023  H     0.29731   0.78414   0.98191   0.00000  Uiso   1.00
C1024  C     0.20956   0.82965   0.58884   0.00000  Uiso   1.00
C1025  C     0.07598   0.84077   0.94159   0.00000  Uiso   1.00
C1026  C     0.06228   0.84483   0.99752   0.00000  Uiso   1.00
C1027  C     0.09585   0.83750   0.52270   0.00000  Uiso   1.00
C1028  C     0.14343   0.82363   0.99217   0.00000  Uiso   1.00
C1029  C     0.15434   0.81282   0.93715   0.00000  Uiso   1.00
C1030  C     0.18071   0.82037   0.51407   0.00000  Uiso   1.00
C1031  C     0.22562   0.80107   0.98358   0.00000  Uiso   1.00
C1032  C     0.23259   0.78436   0.93236   0.00000  Uiso   1.00
C1033  C     0.19715   0.78968   0.90963   0.00000  Uiso   1.00
C1034  C     0.17492   0.83673   0.56511   0.00000  Uiso   1.00
C1035  C     0.25455   0.81239   0.55794   0.00000  Uiso   1.00
C1036  C     0.12254   0.82631   0.91090   0.00000  Uiso   1.00
H1037  H     0.14272   0.85411   0.58826   0.00000  Uiso   1.00
H1038  H     0.05067   0.85015   0.92223   0.00000  Uiso   1.00
H1039  H     0.08326   0.84206   0.56609   0.00000  Uiso   1.00
H1040  H     0.02616   0.85560   0.52121   0.00000  Uiso   1.00
H1041  H     0.20365   0.77534   0.87029   0.00000  Uiso   1.00
C1042  C     0.20693   0.97764   0.71511   0.00000  Uiso   1.00
C1043  C     0.20628   0.68749   0.71640   0.00000  Uiso   1.00
H1044  H     0.23582   0.70408   0.68861   0.00000  Uiso   1.00
C1045  C     0.16640   0.70917   0.75174   0.00000  Uiso   1.00
C1046  C     0.12528   0.68874   0.78476   0.00000  Uiso   1.00
C1047  C     0.12588   0.97884   0.78359   0.00000  Uiso   1.00
H1048  H     0.09570   0.96202   0.81062   0.00000  Uiso   1.00
C1049  C     0.16621   0.95730   0.74875   0.00000  Uiso   1.00
C1050  C     0.31809   0.80118   0.72615   0.00000  Uiso   1.00
C1051  C     0.03233   0.80136   0.72652   0.00000  Uiso   1.00
H1052  H     0.05746   0.77618   0.70710   0.00000  Uiso   1.00
N1053  N     0.04760   0.83334   0.75001   0.00000  Uiso   1.00
C1054  C     0.01579   0.86524   0.77416   0.00000  Uiso   1.00
H1055  H     0.02731   0.89082   0.79349   0.00000  Uiso   1.00
C1056  C     0.30124   0.86520   0.77422   0.00000  Uiso   1.00
H1057  H     0.27674   0.89074   0.79361   0.00000  Uiso   1.00
N1058  N     0.28573   0.83331   0.75000   0.00000  Uiso   1.00
O1059  O     0.08714   0.71131   0.82125   0.00000  Uiso   1.00
C1060  C     0.04498   0.70513   0.80900   0.00000  Uiso   1.00
H1061  H     0.05140   0.70875   0.76496   0.00000  Uiso   1.00
H1062  H     0.01771   0.72926   0.83111   0.00000  Uiso   1.00
H1063  H     0.02959   0.67408   0.82293   0.00000  Uiso   1.00
C1064  C     0.30567   0.76601   0.69802   0.00000  Uiso   1.00
O1065  O     0.31048   0.73030   0.71182   0.00000  Uiso   1.00
O1066  O     0.29285   0.77324   0.65271   0.00000  Uiso   1.00
H1067  H     0.29077   0.74659   0.63267   0.00000  Uiso   1.00
O1068  O     0.24419   0.95485   0.67749   0.00000  Uiso   1.00
C1069  C     0.28831   0.96305   0.68450   0.00000  Uiso   1.00
H1070  H     0.31401   0.93700   0.66549   0.00000  Uiso   1.00
H1071  H     0.28484   0.96472   0.72807   0.00000  Uiso   1.00
H1072  H     0.30393   0.99213   0.66338   0.00000  Uiso   1.00
O1073  O     0.46179   0.89442   0.75000   0.00000  Uiso   1.00
O1074  O     0.53823   0.89441   0.75000   0.00000  Uiso   1.00
C1075  C     0.49981   0.91322   0.74959   0.00000  Uiso   1.00
O1076  O     0.44280   0.83333   0.82681   0.00000  Uiso   1.00
O1077  O     0.51924   0.83332   0.82681   0.00000  Uiso   1.00
C1078  C     0.47330   0.83075   0.85200   0.00000  Uiso   1.00
Zn1079 Zn    0.44896   0.83334   0.75000   0.00000  Uiso   1.00
Zn1080 Zn    0.55104   0.83333   0.75000   0.00000  Uiso   1.00
O1081  O     0.46177   0.77226   0.74999   0.00000  Uiso   1.00
O1082  O     0.53821   0.77225   0.74999   0.00000  Uiso   1.00
O1083  O     0.48076   0.83335   0.67319   0.00000  Uiso   1.00
O1084  O     0.55720   0.83334   0.67319   0.00000  Uiso   1.00
C1085  C     0.49994   0.75338   0.75086   0.00000  Uiso   1.00
C1086  C     0.52677   0.83372   0.64772   0.00000  Uiso   1.00
C1087  C     0.59603   0.79832   0.50516   0.00000  Uiso   1.00
H1088  H     0.61595   0.80838   0.57487   0.00000  Uiso   1.00
H1089  H     0.59911   0.76780   0.90944   0.00000  Uiso   1.00
H1090  H     0.63064   0.78414   0.98191   0.00000  Uiso   1.00
C1091  C     0.54289   0.82965   0.58884   0.00000  Uiso   1.00
C1092  C     0.40931   0.84077   0.94159   0.00000  Uiso   1.00
C1093  C     0.39561   0.84483   0.99752   0.00000  Uiso   1.00
C1094  C     0.42918   0.83750   0.52270   0.00000  Uiso   1.00
C1095  C     0.47676   0.82363   0.99217   0.00000  Uiso   1.00
C1096  C     0.48768   0.81282   0.93715   0.00000  Uiso   1.00
C1097  C     0.51404   0.82037   0.51407   0.00000  Uiso   1.00
C1098  C     0.55895   0.80107   0.98358   0.00000  Uiso   1.00
C1099  C     0.56593   0.78436   0.93236   0.00000  Uiso   1.00
C1100  C     0.53049   0.78968   0.90963   0.00000  Uiso   1.00
C1101  C     0.50825   0.83673   0.56511   0.00000  Uiso   1.00
C1102  C     0.58789   0.81239   0.55794   0.00000  Uiso   1.00
C1103  C     0.45587   0.82631   0.91090   0.00000  Uiso   1.00
H1104  H     0.47605   0.85411   0.58826   0.00000  Uiso   1.00
H1105  H     0.38400   0.85015   0.92223   0.00000  Uiso   1.00
H1106  H     0.41659   0.84206   0.56609   0.00000  Uiso   1.00
H1107  H     0.35949   0.85560   0.52121   0.00000  Uiso   1.00
H1108  H     0.53698   0.77534   0.87029   0.00000  Uiso   1.00
C1109  C     0.54027   0.97764   0.71511   0.00000  Uiso   1.00
C1110  C     0.53961   0.68749   0.71640   0.00000  Uiso   1.00
H1111  H     0.56916   0.70408   0.68861   0.00000  Uiso   1.00
C1112  C     0.49973   0.70917   0.75174   0.00000  Uiso   1.00
C1113  C     0.45861   0.68874   0.78476   0.00000  Uiso   1.00
C1114  C     0.45921   0.97884   0.78359   0.00000  Uiso   1.00
H1115  H     0.42903   0.96202   0.81062   0.00000  Uiso   1.00
C1116  C     0.49954   0.95730   0.74875   0.00000  Uiso   1.00
C1117  C     0.65142   0.80118   0.72615   0.00000  Uiso   1.00
C1118  C     0.36567   0.80136   0.72652   0.00000  Uiso   1.00
H1119  H     0.39080   0.77618   0.70710   0.00000  Uiso   1.00
N1120  N     0.38093   0.83334   0.75001   0.00000  Uiso   1.00
C1121  C     0.34912   0.86524   0.77416   0.00000  Uiso   1.00
H1122  H     0.36065   0.89082   0.79349   0.00000  Uiso   1.00
C1123  C     0.63457   0.86520   0.77422   0.00000  Uiso   1.00
H1124  H     0.61007   0.89074   0.79361   0.00000  Uiso   1.00
N1125  N     0.61906   0.83331   0.75000   0.00000  Uiso   1.00
O1126  O     0.42047   0.71131   0.82125   0.00000  Uiso   1.00
C1127  C     0.37831   0.70513   0.80900   0.00000  Uiso   1.00
H1128  H     0.38473   0.70875   0.76496   0.00000  Uiso   1.00
H1129  H     0.35104   0.72926   0.83111   0.00000  Uiso   1.00
H1130  H     0.36292   0.67408   0.82293   0.00000  Uiso   1.00
C1131  C     0.63900   0.76601   0.69802   0.00000  Uiso   1.00
O1132  O     0.64381   0.73030   0.71182   0.00000  Uiso   1.00
O1133  O     0.62619   0.77324   0.65271   0.00000  Uiso   1.00
H1134  H     0.62410   0.74659   0.63267   0.00000  Uiso   1.00
O1135  O     0.57752   0.95485   0.67749   0.00000  Uiso   1.00
C1136  C     0.62164   0.96305   0.68450   0.00000  Uiso   1.00
H1137  H     0.64735   0.93700   0.66549   0.00000  Uiso   1.00
H1138  H     0.61817   0.96472   0.72807   0.00000  Uiso   1.00
H1139  H     0.63726   0.99213   0.66338   0.00000  Uiso   1.00
O1140  O     0.79512   0.89442   0.75000   0.00000  Uiso   1.00
O1141  O     0.87157   0.89441   0.75000   0.00000  Uiso   1.00
C1142  C     0.83315   0.91322   0.74959   0.00000  Uiso   1.00
O1143  O     0.77613   0.83333   0.82681   0.00000  Uiso   1.00
O1144  O     0.85258   0.83332   0.82681   0.00000  Uiso   1.00
C1145  C     0.80664   0.83075   0.85200   0.00000  Uiso   1.00
Zn1146 Zn    0.78229   0.83334   0.75000   0.00000  Uiso   1.00
Zn1147 Zn    0.88438   0.83333   0.75000   0.00000  Uiso   1.00
O1148  O     0.79510   0.77226   0.74999   0.00000  Uiso   1.00
O1149  O     0.87154   0.77225   0.74999   0.00000  Uiso   1.00
O1150  O     0.81409   0.83335   0.67319   0.00000  Uiso   1.00
O1151  O     0.89053   0.83334   0.67319   0.00000  Uiso   1.00
C1152  C     0.83328   0.75338   0.75086   0.00000  Uiso   1.00
C1153  C     0.86010   0.83372   0.64772   0.00000  Uiso   1.00
C1154  C     0.92936   0.79832   0.50516   0.00000  Uiso   1.00
H1155  H     0.94928   0.80838   0.57487   0.00000  Uiso   1.00
H1156  H     0.93244   0.76780   0.90944   0.00000  Uiso   1.00
H1157  H     0.96398   0.78414   0.98191   0.00000  Uiso   1.00
C1158  C     0.87623   0.82965   0.58884   0.00000  Uiso   1.00
C1159  C     0.74264   0.84077   0.94159   0.00000  Uiso   1.00
C1160  C     0.72895   0.84483   0.99752   0.00000  Uiso   1.00
C1161  C     0.76252   0.83750   0.52270   0.00000  Uiso   1.00
C1162  C     0.81009   0.82363   0.99217   0.00000  Uiso   1.00
C1163  C     0.82101   0.81282   0.93715   0.00000  Uiso   1.00
C1164  C     0.84737   0.82037   0.51407   0.00000  Uiso   1.00
C1165  C     0.89229   0.80107   0.98358   0.00000  Uiso   1.00
C1166  C     0.89926   0.78436   0.93236   0.00000  Uiso   1.00
C1167  C     0.86382   0.78968   0.90963   0.00000  Uiso   1.00
C1168  C     0.84158   0.83673   0.56511   0.00000  Uiso   1.00
C1169  C     0.92122   0.81239   0.55794   0.00000  Uiso   1.00
C1170  C     0.78920   0.82631   0.91090   0.00000  Uiso   1.00
H1171  H     0.80939   0.85411   0.58826   0.00000  Uiso   1.00
H1172  H     0.71733   0.85015   0.92223   0.00000  Uiso   1.00
H1173  H     0.74993   0.84206   0.56609   0.00000  Uiso   1.00
H1174  H     0.69282   0.85560   0.52121   0.00000  Uiso   1.00
H1175  H     0.87031   0.77534   0.87029   0.00000  Uiso   1.00
C1176  C     0.87360   0.97764   0.71511   0.00000  Uiso   1.00
C1177  C     0.87295   0.68749   0.71640   0.00000  Uiso   1.00
H1178  H     0.90249   0.70408   0.68861   0.00000  Uiso   1.00
C1179  C     0.83307   0.70917   0.75174   0.00000  Uiso   1.00
C1180  C     0.79194   0.68874   0.78476   0.00000  Uiso   1.00
C1181  C     0.79255   0.97884   0.78359   0.00000  Uiso   1.00
H1182  H     0.76237   0.96202   0.81062   0.00000  Uiso   1.00
C1183  C     0.83287   0.95730   0.74875   0.00000  Uiso   1.00
C1184  C     0.98475   0.80118   0.72615   0.00000  Uiso   1.00
C1185  C     0.69900   0.80136   0.72652   0.00000  Uiso   1.00
H1186  H     0.72413   0.77618   0.70710   0.00000  Uiso   1.00
N1187  N     0.71426   0.83334   0.75001   0.00000  Uiso   1.00
C1188  C     0.68246   0.86524   0.77416   0.00000  Uiso   1.00
H1189  H     0.69398   0.89082   0.79349   0.00000  Uiso   1.00
C1190  C     0.96790   0.86520   0.77422   0.00000  Uiso   1.00
H1191  H     0.94340   0.89074   0.79361   0.00000  Uiso   1.00
N1192  N     0.95239   0.83331   0.75000   0.00000  Uiso   1.00
O1193  O     0.75380   0.71131   0.82125   0.00000  Uiso   1.00
C1194  C     0.71165   0.70513   0.80900   0.00000  Uiso   1.00
H1195  H     0.71806   0.70875   0.76496   0.00000  Uiso   1.00
H1196  H     0.68437   0.72926   0.83111   0.00000  Uiso   1.00
H1197  H     0.69626   0.67408   0.82293   0.00000  Uiso   1.00
C1198  C     0.97233   0.76601   0.69802   0.00000  Uiso   1.00
O1199  O     0.97714   0.73030   0.71182   0.00000  Uiso   1.00
O1200  O     0.95952   0.77324   0.65271   0.00000  Uiso   1.00
H1201  H     0.95744   0.74659   0.63267   0.00000  Uiso   1.00
O1202  O     0.91085   0.95485   0.67749   0.00000  Uiso   1.00
C1203  C     0.95497   0.96305   0.68450   0.00000  Uiso   1.00
H1204  H     0.98068   0.93700   0.66549   0.00000  Uiso   1.00
H1205  H     0.95150   0.96472   0.72807   0.00000  Uiso   1.00
H1206  H     0.97059   0.99213   0.66338   0.00000  Uiso   1.00
loop_
_geom_bond_atom_site_label_1
_geom_bond_atom_site_label_2
_geom_bond_distance
_geom_bond_site_symmetry_2
_ccdc_geom_bond_type
O1     Zn7     1.997   .     S
O1     C3      1.284   .     A
O2     C3      1.282   .     A
O2     Zn8     1.984   .     S
C3     C44     1.410   .     S
O4     Zn7     1.965   .     S
O4     C6      1.296   .     A
O5     Zn8     1.909   .     S
O5     C6      1.295   .     A
C6     C31     1.462   .     S
Zn7    O11     1.909   .     S
Zn7    N48     2.017   .     S
Zn7    O9      1.984   .     S
Zn8    N53     2.017   .     S
Zn8    O12     1.965   .     S
Zn8    O10     1.997   .     S
O9     C13     1.281   .     A
O10    C13     1.288   .     A
O11    C14     1.294   .     A
O12    C14     1.298   .     A
C13    C40     1.415   .     S
C14    C19     1.458   .     S
C15    C30     1.394   .     A
C15    H621    1.084   1_554 S
C15    C629    1.404   1_554 S
H16    C30     1.078   .     S
H17    C27     1.084   .     S
H18    C618    1.084   .     S
C19    C29     1.392   .     A
C19    C30     1.399   .     A
C20    H33     1.083   .     S
C20    C21     1.388   .     A
C20    C31     1.402   .     A
C21    C625    1.392   .     S
C21    H638    1.083   .     S
C22    H34     1.078   .     S
C22    C624    1.392   1_554 S
C22    C626    1.419   1_554 S
C23    C24     1.408   .     A
C23    C625    1.419   .     S
C23    C628    1.416   .     S
C24    C31     1.413   .     A
C24    C28     1.415   .     A
C25    C29     1.390   .     A
C25    C626    1.416   1_554 S
C25    C629    1.420   1_554 S
C26    C27     1.391   .     A
C26    C618    1.404   .     S
C26    C628    1.420   .     S
C27    C28     1.387   .     A
C28    H36     1.082   .     S
C29    H32     1.078   .     S
H35    C624    1.083   1_554 S
C37    C44     1.399   .     A
C37    O63     1.389   .     S
C37    C239    1.381   .     S
C38    C40     1.392   .     A
C38    H39     1.077   .     S
C38    C439    1.381   1_545 S
C40    C41     1.402   .     A
C41    O54     1.388   .     S
C41    C444    1.383   1_545 S
C42    C44     1.393   .     A
C42    H43     1.084   .     S
C42    C242    1.383   .     S
C45    N53     1.381   .     A
C45    C59     1.463   .     S
C45    C113    1.414   .     S
C46    N48     1.355   .     A
C46    H47     1.083   .     S
C46    C179    1.414   1_455 S
N48    C49     1.368   .     A
C49    H50     1.082   .     S
C49    C185    1.419   1_455 S
C51    N53     1.367   .     A
C51    H52     1.082   .     S
C51    C116    1.419   .     S
O54    C55     1.412   .     S
C55    H57     1.110   .     S
C55    H56     1.114   .     S
C55    H58     1.111   .     S
C59    O60     1.222   .     D
C59    O61     1.392   .     S
O61    H62     1.013   .     S
O63    C64     1.412   .     S
C64    H65     1.109   .     S
C64    H67     1.110   .     S
C64    H66     1.116   .     S
O68    Zn74    1.997   .     S
O68    C70     1.284   .     A
O69    C70     1.282   .     A
O69    Zn75    1.984   .     S
C70    C111    1.410   .     S
O71    Zn74    1.965   .     S
O71    C73     1.296   .     A
O72    Zn75    1.909   .     S
O72    C73     1.295   .     A
C73    C98     1.462   .     S
Zn74   O78     1.909   .     S
Zn74   N115    2.017   .     S
Zn74   O76     1.984   .     S
Zn75   N120    2.017   .     S
Zn75   O79     1.965   .     S
Zn75   O77     1.997   .     S
O76    C80     1.281   .     A
O77    C80     1.288   .     A
O78    C81     1.294   .     A
O79    C81     1.298   .     A
C80    C107    1.415   .     S
C81    C86     1.458   .     S
C82    C97     1.394   .     A
C82    H688    1.084   1_554 S
C82    C696    1.404   1_554 S
H83    C97     1.078   .     S
H84    C94     1.084   .     S
H85    C685    1.084   .     S
C86    C96     1.392   .     A
C86    C97     1.399   .     A
C87    H100    1.083   .     S
C87    C88     1.388   .     A
C87    C98     1.402   .     A
C88    C692    1.392   .     S
C88    H705    1.083   .     S
C89    H101    1.078   .     S
C89    C691    1.392   1_554 S
C89    C693    1.419   1_554 S
C90    C91     1.408   .     A
C90    C692    1.419   .     S
C90    C695    1.416   .     S
C91    C98     1.413   .     A
C91    C95     1.415   .     A
C92    C96     1.390   .     A
C92    C693    1.416   1_554 S
C92    C696    1.420   1_554 S
C93    C94     1.391   .     A
C93    C685    1.404   .     S
C93    C695    1.420   .     S
C94    C95     1.387   .     A
C95    H103    1.082   .     S
C96    H99     1.078   .     S
H102   C691    1.083   1_554 S
C104   C111    1.399   .     A
C104   O130    1.389   .     S
C104   C306    1.381   .     S
C105   C107    1.392   .     A
C105   H106    1.077   .     S
C105   C506    1.381   1_545 S
C107   C108    1.402   .     A
C108   O121    1.388   .     S
C108   C511    1.383   1_545 S
C109   C111    1.393   .     A
C109   H110    1.084   .     S
C109   C309    1.383   .     S
C112   N120    1.381   .     A
C112   C126    1.463   .     S
C112   C180    1.414   .     S
C113   N115    1.355   .     A
C113   H114    1.083   .     S
N115   C116    1.368   .     A
C116   H117    1.082   .     S
C118   N120    1.367   .     A
C118   H119    1.082   .     S
C118   C183    1.419   .     S
O121   C122    1.412   .     S
C122   H124    1.110   .     S
C122   H123    1.114   .     S
C122   H125    1.111   .     S
C126   O127    1.222   .     D
C126   O128    1.392   .     S
O128   H129    1.013   .     S
O130   C131    1.412   .     S
C131   H132    1.109   .     S
C131   H134    1.110   .     S
C131   H133    1.116   .     S
O135   Zn141   1.997   .     S
O135   C137    1.284   .     A
O136   C137    1.282   .     A
O136   Zn142   1.984   .     S
C137   C178    1.410   .     S
O138   Zn141   1.965   .     S
O138   C140    1.296   .     A
O139   Zn142   1.909   .     S
O139   C140    1.295   .     A
C140   C165    1.462   .     S
Zn141  O145    1.909   .     S
Zn141  N182    2.017   .     S
Zn141  O143    1.984   .     S
Zn142  N187    2.017   .     S
Zn142  O146    1.965   .     S
Zn142  O144    1.997   .     S
O143   C147    1.281   .     A
O144   C147    1.288   .     A
O145   C148    1.294   .     A
O146   C148    1.298   .     A
C147   C174    1.415   .     S
C148   C153    1.458   .     S
C149   C164    1.394   .     A
C149   H755    1.084   1_554 S
C149   C763    1.404   1_554 S
H150   C164    1.078   .     S
H151   C161    1.084   .     S
H152   C752    1.084   .     S
C153   C163    1.392   .     A
C153   C164    1.399   .     A
C154   H167    1.083   .     S
C154   C155    1.388   .     A
C154   C165    1.402   .     A
C155   C759    1.392   .     S
C155   H772    1.083   .     S
C156   H168    1.078   .     S
C156   C758    1.392   1_554 S
C156   C760    1.419   1_554 S
C157   C158    1.408   .     A
C157   C759    1.419   .     S
C157   C762    1.416   .     S
C158   C165    1.413   .     A
C158   C162    1.415   .     A
C159   C163    1.390   .     A
C159   C760    1.416   1_554 S
C159   C763    1.420   1_554 S
C160   C161    1.391   .     A
C160   C752    1.404   .     S
C160   C762    1.420   .     S
C161   C162    1.387   .     A
C162   H170    1.082   .     S
C163   H166    1.078   .     S
H169   C758    1.083   1_554 S
C171   C178    1.399   .     A
C171   O197    1.389   .     S
C171   C373    1.381   .     S
C172   C174    1.392   .     A
C172   H173    1.077   .     S
C172   C573    1.381   1_545 S
C174   C175    1.402   .     A
C175   O188    1.388   .     S
C175   C578    1.383   1_545 S
C176   C178    1.393   .     A
C176   H177    1.084   .     S
C176   C376    1.383   .     S
C179   N187    1.381   .     A
C179   C193    1.463   .     S
C179   C46     1.414   1_655 S
C180   N182    1.355   .     A
C180   H181    1.083   .     S
N182   C183    1.368   .     A
C183   H184    1.082   .     S
C185   N187    1.367   .     A
C185   H186    1.082   .     S
C185   C49     1.419   1_655 S
O188   C189    1.412   .     S
C189   H191    1.110   .     S
C189   H190    1.114   .     S
C189   H192    1.111   .     S
C193   O194    1.222   .     D
C193   O195    1.392   .     S
O195   H196    1.013   .     S
O197   C198    1.412   .     S
C198   H199    1.109   .     S
C198   H201    1.110   .     S
C198   H200    1.116   .     S
O202   Zn208   1.997   .     S
O202   C204    1.284   .     A
O203   C204    1.282   .     A
O203   Zn209   1.984   .     S
C204   C245    1.410   .     S
O205   Zn208   1.965   .     S
O205   C207    1.296   .     A
O206   Zn209   1.909   .     S
O206   C207    1.295   .     A
C207   C232    1.462   .     S
Zn208  O212    1.909   .     S
Zn208  N249    2.017   .     S
Zn208  O210    1.984   .     S
Zn209  N254    2.017   .     S
Zn209  O213    1.965   .     S
Zn209  O211    1.997   .     S
O210   C214    1.281   .     A
O211   C214    1.288   .     A
O212   C215    1.294   .     A
O213   C215    1.298   .     A
C214   C241    1.415   .     S
C215   C220    1.458   .     S
C216   C231    1.394   .     A
C216   H822    1.084   1_554 S
C216   C830    1.404   1_554 S
H217   C231    1.078   .     S
H218   C228    1.084   .     S
H219   C819    1.084   .     S
C220   C230    1.392   .     A
C220   C231    1.399   .     A
C221   H234    1.083   .     S
C221   C222    1.388   .     A
C221   C232    1.402   .     A
C222   C826    1.392   .     S
C222   H839    1.083   .     S
C223   H235    1.078   .     S
C223   C825    1.392   1_554 S
C223   C827    1.419   1_554 S
C224   C225    1.408   .     A
C224   C826    1.419   .     S
C224   C829    1.416   .     S
C225   C232    1.413   .     A
C225   C229    1.415   .     A
C226   C230    1.390   .     A
C226   C827    1.416   1_554 S
C226   C830    1.420   1_554 S
C227   C228    1.391   .     A
C227   C819    1.404   .     S
C227   C829    1.420   .     S
C228   C229    1.387   .     A
C229   H237    1.082   .     S
C230   H233    1.078   .     S
H236   C825    1.083   1_554 S
C238   C245    1.399   .     A
C238   O264    1.389   .     S
C238   C440    1.381   .     S
C239   C241    1.392   .     A
C239   H240    1.077   .     S
C241   C242    1.402   .     A
C242   O255    1.388   .     S
C243   C245    1.393   .     A
C243   H244    1.084   .     S
C243   C443    1.383   .     S
C246   N254    1.381   .     A
C246   C260    1.463   .     S
C246   C314    1.414   .     S
C247   N249    1.355   .     A
C247   H248    1.083   .     S
C247   C380    1.414   1_455 S
N249   C250    1.368   .     A
C250   H251    1.082   .     S
C250   C386    1.419   1_455 S
C252   N254    1.367   .     A
C252   H253    1.082   .     S
C252   C317    1.419   .     S
O255   C256    1.412   .     S
C256   H258    1.110   .     S
C256   H257    1.114   .     S
C256   H259    1.111   .     S
C260   O261    1.222   .     D
C260   O262    1.392   .     S
O262   H263    1.013   .     S
O264   C265    1.412   .     S
C265   H266    1.109   .     S
C265   H268    1.110   .     S
C265   H267    1.116   .     S
O269   Zn275   1.997   .     S
O269   C271    1.284   .     A
O270   C271    1.282   .     A
O270   Zn276   1.984   .     S
C271   C312    1.410   .     S
O272   Zn275   1.965   .     S
O272   C274    1.296   .     A
O273   Zn276   1.909   .     S
O273   C274    1.295   .     A
C274   C299    1.462   .     S
Zn275  O279    1.909   .     S
Zn275  N316    2.017   .     S
Zn275  O277    1.984   .     S
Zn276  N321    2.017   .     S
Zn276  O280    1.965   .     S
Zn276  O278    1.997   .     S
O277   C281    1.281   .     A
O278   C281    1.288   .     A
O279   C282    1.294   .     A
O280   C282    1.298   .     A
C281   C308    1.415   .     S
C282   C287    1.458   .     S
C283   C298    1.394   .     A
C283   H889    1.084   1_554 S
C283   C897    1.404   1_554 S
H284   C298    1.078   .     S
H285   C295    1.084   .     S
H286   C886    1.084   .     S
C287   C297    1.392   .     A
C287   C298    1.399   .     A
C288   H301    1.083   .     S
C288   C289    1.388   .     A
C288   C299    1.402   .     A
C289   C893    1.392   .     S
C289   H906    1.083   .     S
C290   H302    1.078   .     S
C290   C892    1.392   1_554 S
C290   C894    1.419   1_554 S
C291   C292    1.408   .     A
C291   C893    1.419   .     S
C291   C896    1.416   .     S
C292   C299    1.413   .     A
C292   C296    1.415   .     A
C293   C297    1.390   .     A
C293   C894    1.416   1_554 S
C293   C897    1.420   1_554 S
C294   C295    1.391   .     A
C294   C886    1.404   .     S
C294   C896    1.420   .     S
C295   C296    1.387   .     A
C296   H304    1.082   .     S
C297   H300    1.078   .     S
H303   C892    1.083   1_554 S
C305   C312    1.399   .     A
C305   O331    1.389   .     S
C305   C507    1.381   .     S
C306   C308    1.392   .     A
C306   H307    1.077   .     S
C308   C309    1.402   .     A
C309   O322    1.388   .     S
C310   C312    1.393   .     A
C310   H311    1.084   .     S
C310   C510    1.383   .     S
C313   N321    1.381   .     A
C313   C327    1.463   .     S
C313   C381    1.414   .     S
C314   N316    1.355   .     A
C314   H315    1.083   .     S
N316   C317    1.368   .     A
C317   H318    1.082   .     S
C319   N321    1.367   .     A
C319   H320    1.082   .     S
C319   C384    1.419   .     S
O322   C323    1.412   .     S
C323   H325    1.110   .     S
C323   H324    1.114   .     S
C323   H326    1.111   .     S
C327   O328    1.222   .     D
C327   O329    1.392   .     S
O329   H330    1.013   .     S
O331   C332    1.412   .     S
C332   H333    1.109   .     S
C332   H335    1.110   .     S
C332   H334    1.116   .     S
O336   Zn342   1.997   .     S
O336   C338    1.284   .     A
O337   C338    1.282   .     A
O337   Zn343   1.984   .     S
C338   C379    1.410   .     S
O339   Zn342   1.965   .     S
O339   C341    1.296   .     A
O340   Zn343   1.909   .     S
O340   C341    1.295   .     A
C341   C366    1.462   .     S
Zn342  O346    1.909   .     S
Zn342  N383    2.017   .     S
Zn342  O344    1.984   .     S
Zn343  N388    2.017   .     S
Zn343  O347    1.965   .     S
Zn343  O345    1.997   .     S
O344   C348    1.281   .     A
O345   C348    1.288   .     A
O346   C349    1.294   .     A
O347   C349    1.298   .     A
C348   C375    1.415   .     S
C349   C354    1.458   .     S
C350   C365    1.394   .     A
C350   H956    1.084   1_554 S
C350   C964    1.404   1_554 S
H351   C365    1.078   .     S
H352   C362    1.084   .     S
H353   C953    1.084   .     S
C354   C364    1.392   .     A
C354   C365    1.399   .     A
C355   H368    1.083   .     S
C355   C356    1.388   .     A
C355   C366    1.402   .     A
C356   C960    1.392   .     S
C356   H973    1.083   .     S
C357   H369    1.078   .     S
C357   C959    1.392   1_554 S
C357   C961    1.419   1_554 S
C358   C359    1.408   .     A
C358   C960    1.419   .     S
C358   C963    1.416   .     S
C359   C366    1.413   .     A
C359   C363    1.415   .     A
C360   C364    1.390   .     A
C360   C961    1.416   1_554 S
C360   C964    1.420   1_554 S
C361   C362    1.391   .     A
C361   C953    1.404   .     S
C361   C963    1.420   .     S
C362   C363    1.387   .     A
C363   H371    1.082   .     S
C364   H367    1.078   .     S
H370   C959    1.083   1_554 S
C372   C379    1.399   .     A
C372   O398    1.389   .     S
C372   C574    1.381   .     S
C373   C375    1.392   .     A
C373   H374    1.077   .     S
C375   C376    1.402   .     A
C376   O389    1.388   .     S
C377   C379    1.393   .     A
C377   H378    1.084   .     S
C377   C577    1.383   .     S
C380   N388    1.381   .     A
C380   C394    1.463   .     S
C380   C247    1.414   1_655 S
C381   N383    1.355   .     A
C381   H382    1.083   .     S
N383   C384    1.368   .     A
C384   H385    1.082   .     S
C386   N388    1.367   .     A
C386   H387    1.082   .     S
C386   C250    1.419   1_655 S
O389   C390    1.412   .     S
C390   H392    1.110   .     S
C390   H391    1.114   .     S
C390   H393    1.111   .     S
C394   O395    1.222   .     D
C394   O396    1.392   .     S
O396   H397    1.013   .     S
O398   C399    1.412   .     S
C399   H400    1.109   .     S
C399   H402    1.110   .     S
C399   H401    1.116   .     S
O403   Zn409   1.997   .     S
O403   C405    1.284   .     A
O404   C405    1.282   .     A
O404   Zn410   1.984   .     S
C405   C446    1.410   .     S
O406   Zn409   1.965   .     S
O406   C408    1.296   .     A
O407   Zn410   1.909   .     S
O407   C408    1.295   .     A
C408   C433    1.462   .     S
Zn409  O413    1.909   .     S
Zn409  N450    2.017   .     S
Zn409  O411    1.984   .     S
Zn410  N455    2.017   .     S
Zn410  O414    1.965   .     S
Zn410  O412    1.997   .     S
O411   C415    1.281   .     A
O412   C415    1.288   .     A
O413   C416    1.294   .     A
O414   C416    1.298   .     A
C415   C442    1.415   .     S
C416   C421    1.458   .     S
C417   C432    1.394   .     A
C417   H1023   1.084   1_554 S
C417   C1031   1.404   1_554 S
H418   C432    1.078   .     S
H419   C429    1.084   .     S
H420   C1020   1.084   .     S
C421   C431    1.392   .     A
C421   C432    1.399   .     A
C422   H435    1.083   .     S
C422   C423    1.388   .     A
C422   C433    1.402   .     A
C423   C1027   1.392   .     S
C423   H1040   1.083   .     S
C424   H436    1.078   .     S
C424   C1026   1.392   1_554 S
C424   C1028   1.419   1_554 S
C425   C426    1.408   .     A
C425   C1027   1.419   .     S
C425   C1030   1.416   .     S
C426   C433    1.413   .     A
C426   C430    1.415   .     A
C427   C431    1.390   .     A
C427   C1028   1.416   1_554 S
C427   C1031   1.420   1_554 S
C428   C429    1.391   .     A
C428   C1020   1.404   .     S
C428   C1030   1.420   .     S
C429   C430    1.387   .     A
C430   H438    1.082   .     S
C431   H434    1.078   .     S
H437   C1026   1.083   1_554 S
C439   C446    1.399   .     A
C439   O465    1.389   .     S
C439   C38     1.381   1_565 S
C440   C442    1.392   .     A
C440   H441    1.077   .     S
C442   C443    1.402   .     A
C443   O456    1.388   .     S
C444   C446    1.393   .     A
C444   H445    1.084   .     S
C444   C41     1.383   1_565 S
C447   N455    1.381   .     A
C447   C461    1.463   .     S
C447   C515    1.414   .     S
C448   N450    1.355   .     A
C448   H449    1.083   .     S
C448   C581    1.414   1_455 S
N450   C451    1.368   .     A
C451   H452    1.082   .     S
C451   C587    1.419   1_455 S
C453   N455    1.367   .     A
C453   H454    1.082   .     S
C453   C518    1.419   .     S
O456   C457    1.412   .     S
C457   H459    1.110   .     S
C457   H458    1.114   .     S
C457   H460    1.111   .     S
C461   O462    1.222   .     D
C461   O463    1.392   .     S
O463   H464    1.013   .     S
O465   C466    1.412   .     S
C466   H467    1.109   .     S
C466   H469    1.110   .     S
C466   H468    1.116   .     S
O470   Zn476   1.997   .     S
O470   C472    1.284   .     A
O471   C472    1.282   .     A
O471   Zn477   1.984   .     S
C472   C513    1.410   .     S
O473   Zn476   1.965   .     S
O473   C475    1.296   .     A
O474   Zn477   1.909   .     S
O474   C475    1.295   .     A
C475   C500    1.462   .     S
Zn476  O480    1.909   .     S
Zn476  N517    2.017   .     S
Zn476  O478    1.984   .     S
Zn477  N522    2.017   .     S
Zn477  O481    1.965   .     S
Zn477  O479    1.997   .     S
O478   C482    1.281   .     A
O479   C482    1.288   .     A
O480   C483    1.294   .     A
O481   C483    1.298   .     A
C482   C509    1.415   .     S
C483   C488    1.458   .     S
C484   C499    1.394   .     A
C484   H1090   1.084   1_554 S
C484   C1098   1.404   1_554 S
H485   C499    1.078   .     S
H486   C496    1.084   .     S
H487   C1087   1.084   .     S
C488   C498    1.392   .     A
C488   C499    1.399   .     A
C489   H502    1.083   .     S
C489   C490    1.388   .     A
C489   C500    1.402   .     A
C490   C1094   1.392   .     S
C490   H1107   1.083   .     S
C491   H503    1.078   .     S
C491   C1093   1.392   1_554 S
C491   C1095   1.419   1_554 S
C492   C493    1.408   .     A
C492   C1094   1.419   .     S
C492   C1097   1.416   .     S
C493   C500    1.413   .     A
C493   C497    1.415   .     A
C494   C498    1.390   .     A
C494   C1095   1.416   1_554 S
C494   C1098   1.420   1_554 S
C495   C496    1.391   .     A
C495   C1087   1.404   .     S
C495   C1097   1.420   .     S
C496   C497    1.387   .     A
C497   H505    1.082   .     S
C498   H501    1.078   .     S
H504   C1093   1.083   1_554 S
C506   C513    1.399   .     A
C506   O532    1.389   .     S
C506   C105    1.381   1_565 S
C507   C509    1.392   .     A
C507   H508    1.077   .     S
C509   C510    1.402   .     A
C510   O523    1.388   .     S
C511   C513    1.393   .     A
C511   H512    1.084   .     S
C511   C108    1.383   1_565 S
C514   N522    1.381   .     A
C514   C528    1.463   .     S
C514   C582    1.414   .     S
C515   N517    1.355   .     A
C515   H516    1.083   .     S
N517   C518    1.368   .     A
C518   H519    1.082   .     S
C520   N522    1.367   .     A
C520   H521    1.082   .     S
C520   C585    1.419   .     S
O523   C524    1.412   .     S
C524   H526    1.110   .     S
C524   H525    1.114   .     S
C524   H527    1.111   .     S
C528   O529    1.222   .     D
C528   O530    1.392   .     S
O530   H531    1.013   .     S
O532   C533    1.412   .     S
C533   H534    1.109   .     S
C533   H536    1.110   .     S
C533   H535    1.116   .     S
O537   Zn543   1.997   .     S
O537   C539    1.284   .     A
O538   C539    1.282   .     A
O538   Zn544   1.984   .     S
C539   C580    1.410   .     S
O540   Zn543   1.965   .     S
O540   C542    1.296   .     A
O541   Zn544   1.909   .     S
O541   C542    1.295   .     A
C542   C567    1.462   .     S
Zn543  O547    1.909   .     S
Zn543  N584    2.017   .     S
Zn543  O545    1.984   .     S
Zn544  N589    2.017   .     S
Zn544  O548    1.965   .     S
Zn544  O546    1.997   .     S
O545   C549    1.281   .     A
O546   C549    1.288   .     A
O547   C550    1.294   .     A
O548   C550    1.298   .     A
C549   C576    1.415   .     S
C550   C555    1.458   .     S
C551   C566    1.394   .     A
C551   H1157   1.084   1_554 S
C551   C1165   1.404   1_554 S
H552   C566    1.078   .     S
H553   C563    1.084   .     S
H554   C1154   1.084   .     S
C555   C565    1.392   .     A
C555   C566    1.399   .     A
C556   H569    1.083   .     S
C556   C557    1.388   .     A
C556   C567    1.402   .     A
C557   C1161   1.392   .     S
C557   H1174   1.083   .     S
C558   H570    1.078   .     S
C558   C1160   1.392   1_554 S
C558   C1162   1.419   1_554 S
C559   C560    1.408   .     A
C559   C1161   1.419   .     S
C559   C1164   1.416   .     S
C560   C567    1.413   .     A
C560   C564    1.415   .     A
C561   C565    1.390   .     A
C561   C1162   1.416   1_554 S
C561   C1165   1.420   1_554 S
C562   C563    1.391   .     A
C562   C1154   1.404   .     S
C562   C1164   1.420   .     S
C563   C564    1.387   .     A
C564   H572    1.082   .     S
C565   H568    1.078   .     S
H571   C1160   1.083   1_554 S
C573   C580    1.399   .     A
C573   O599    1.389   .     S
C573   C172    1.381   1_565 S
C574   C576    1.392   .     A
C574   H575    1.077   .     S
C576   C577    1.402   .     A
C577   O590    1.388   .     S
C578   C580    1.393   .     A
C578   H579    1.084   .     S
C578   C175    1.383   1_565 S
C581   N589    1.381   .     A
C581   C595    1.463   .     S
C581   C448    1.414   1_655 S
C582   N584    1.355   .     A
C582   H583    1.083   .     S
N584   C585    1.368   .     A
C585   H586    1.082   .     S
C587   N589    1.367   .     A
C587   H588    1.082   .     S
C587   C451    1.419   1_655 S
O590   C591    1.412   .     S
C591   H593    1.110   .     S
C591   H592    1.114   .     S
C591   H594    1.111   .     S
C595   O596    1.222   .     D
C595   O597    1.392   .     S
O597   H598    1.013   .     S
O599   C600    1.412   .     S
C600   H601    1.109   .     S
C600   H603    1.110   .     S
C600   H602    1.116   .     S
O604   Zn610   1.997   .     S
O604   C606    1.284   .     A
O605   C606    1.282   .     A
O605   Zn611   1.984   .     S
C606   C647    1.410   .     S
O607   Zn610   1.965   .     S
O607   C609    1.296   .     A
O608   Zn611   1.909   .     S
O608   C609    1.295   .     A
C609   C634    1.462   .     S
Zn610  O614    1.909   .     S
Zn610  N651    2.017   .     S
Zn610  O612    1.984   .     S
Zn611  N656    2.017   .     S
Zn611  O615    1.965   .     S
Zn611  O613    1.997   .     S
O612   C616    1.281   .     A
O613   C616    1.288   .     A
O614   C617    1.294   .     A
O615   C617    1.298   .     A
C616   C643    1.415   .     S
C617   C622    1.458   .     S
C618   C633    1.394   .     A
H619   C633    1.078   .     S
H620   C630    1.084   .     S
H621   C15     1.084   1_556 S
C622   C632    1.392   .     A
C622   C633    1.399   .     A
C623   H636    1.083   .     S
C623   C624    1.388   .     A
C623   C634    1.402   .     A
C624   C22     1.392   1_556 S
C624   H35     1.083   1_556 S
C625   H637    1.078   .     S
C626   C627    1.408   .     A
C626   C22     1.419   1_556 S
C626   C25     1.416   1_556 S
C627   C634    1.413   .     A
C627   C631    1.415   .     A
C628   C632    1.390   .     A
C629   C630    1.391   .     A
C629   C15     1.404   1_556 S
C629   C25     1.420   1_556 S
C630   C631    1.387   .     A
C631   H639    1.082   .     S
C632   H635    1.078   .     S
C640   C647    1.399   .     A
C640   O666    1.389   .     S
C640   C842    1.381   .     S
C641   C643    1.392   .     A
C641   H642    1.077   .     S
C641   C1042   1.381   1_545 S
C643   C644    1.402   .     A
C644   O657    1.388   .     S
C644   C1047   1.383   1_545 S
C645   C647    1.393   .     A
C645   H646    1.084   .     S
C645   C845    1.383   .     S
C648   N656    1.381   .     A
C648   C662    1.463   .     S
C648   C716    1.414   .     S
C649   N651    1.355   .     A
C649   H650    1.083   .     S
C649   C782    1.414   1_455 S
N651   C652    1.368   .     A
C652   H653    1.082   .     S
C652   C788    1.419   1_455 S
C654   N656    1.367   .     A
C654   H655    1.082   .     S
C654   C719    1.419   .     S
O657   C658    1.412   .     S
C658   H660    1.110   .     S
C658   H659    1.114   .     S
C658   H661    1.111   .     S
C662   O663    1.222   .     D
C662   O664    1.392   .     S
O664   H665    1.013   .     S
O666   C667    1.412   .     S
C667   H668    1.109   .     S
C667   H670    1.110   .     S
C667   H669    1.116   .     S
O671   Zn677   1.997   .     S
O671   C673    1.284   .     A
O672   C673    1.282   .     A
O672   Zn678   1.984   .     S
C673   C714    1.410   .     S
O674   Zn677   1.965   .     S
O674   C676    1.296   .     A
O675   Zn678   1.909   .     S
O675   C676    1.295   .     A
C676   C701    1.462   .     S
Zn677  O681    1.909   .     S
Zn677  N718    2.017   .     S
Zn677  O679    1.984   .     S
Zn678  N723    2.017   .     S
Zn678  O682    1.965   .     S
Zn678  O680    1.997   .     S
O679   C683    1.281   .     A
O680   C683    1.288   .     A
O681   C684    1.294   .     A
O682   C684    1.298   .     A
C683   C710    1.415   .     S
C684   C689    1.458   .     S
C685   C700    1.394   .     A
H686   C700    1.078   .     S
H687   C697    1.084   .     S
H688   C82     1.084   1_556 S
C689   C699    1.392   .     A
C689   C700    1.399   .     A
C690   H703    1.083   .     S
C690   C691    1.388   .     A
C690   C701    1.402   .     A
C691   C89     1.392   1_556 S
C691   H102    1.083   1_556 S
C692   H704    1.078   .     S
C693   C694    1.408   .     A
C693   C89     1.419   1_556 S
C693   C92     1.416   1_556 S
C694   C701    1.413   .     A
C694   C698    1.415   .     A
C695   C699    1.390   .     A
C696   C697    1.391   .     A
C696   C82     1.404   1_556 S
C696   C92     1.420   1_556 S
C697   C698    1.387   .     A
C698   H706    1.082   .     S
C699   H702    1.078   .     S
C707   C714    1.399   .     A
C707   O733    1.389   .     S
C707   C909    1.381   .     S
C708   C710    1.392   .     A
C708   H709    1.077   .     S
C708   C1109   1.381   1_545 S
C710   C711    1.402   .     A
C711   O724    1.388   .     S
C711   C1114   1.383   1_545 S
C712   C714    1.393   .     A
C712   H713    1.084   .     S
C712   C912    1.383   .     S
C715   N723    1.381   .     A
C715   C729    1.463   .     S
C715   C783    1.414   .     S
C716   N718    1.355   .     A
C716   H717    1.083   .     S
N718   C719    1.368   .     A
C719   H720    1.082   .     S
C721   N723    1.367   .     A
C721   H722    1.082   .     S
C721   C786    1.419   .     S
O724   C725    1.412   .     S
C725   H727    1.110   .     S
C725   H726    1.114   .     S
C725   H728    1.111   .     S
C729   O730    1.222   .     D
C729   O731    1.392   .     S
O731   H732    1.013   .     S
O733   C734    1.412   .     S
C734   H735    1.109   .     S
C734   H737    1.110   .     S
C734   H736    1.116   .     S
O738   Zn744   1.997   .     S
O738   C740    1.284   .     A
O739   C740    1.282   .     A
O739   Zn745   1.984   .     S
C740   C781    1.410   .     S
O741   Zn744   1.965   .     S
O741   C743    1.296   .     A
O742   Zn745   1.909   .     S
O742   C743    1.295   .     A
C743   C768    1.462   .     S
Zn744  O748    1.909   .     S
Zn744  N785    2.017   .     S
Zn744  O746    1.984   .     S
Zn745  N790    2.017   .     S
Zn745  O749    1.965   .     S
Zn745  O747    1.997   .     S
O746   C750    1.281   .     A
O747   C750    1.288   .     A
O748   C751    1.294   .     A
O749   C751    1.298   .     A
C750   C777    1.415   .     S
C751   C756    1.458   .     S
C752   C767    1.394   .     A
H753   C767    1.078   .     S
H754   C764    1.084   .     S
H755   C149    1.084   1_556 S
C756   C766    1.392   .     A
C756   C767    1.399   .     A
C757   H770    1.083   .     S
C757   C758    1.388   .     A
C757   C768    1.402   .     A
C758   C156    1.392   1_556 S
C758   H169    1.083   1_556 S
C759   H771    1.078   .     S
C760   C761    1.408   .     A
C760   C156    1.419   1_556 S
C760   C159    1.416   1_556 S
C761   C768    1.413   .     A
C761   C765    1.415   .     A
C762   C766    1.390   .     A
C763   C764    1.391   .     A
C763   C149    1.404   1_556 S
C763   C159    1.420   1_556 S
C764   C765    1.387   .     A
C765   H773    1.082   .     S
C766   H769    1.078   .     S
C774   C781    1.399   .     A
C774   O800    1.389   .     S
C774   C976    1.381   .     S
C775   C777    1.392   .     A
C775   H776    1.077   .     S
C775   C1176   1.381   1_545 S
C777   C778    1.402   .     A
C778   O791    1.388   .     S
C778   C1181   1.383   1_545 S
C779   C781    1.393   .     A
C779   H780    1.084   .     S
C779   C979    1.383   .     S
C782   N790    1.381   .     A
C782   C796    1.463   .     S
C782   C649    1.414   1_655 S
C783   N785    1.355   .     A
C783   H784    1.083   .     S
N785   C786    1.368   .     A
C786   H787    1.082   .     S
C788   N790    1.367   .     A
C788   H789    1.082   .     S
C788   C652    1.419   1_655 S
O791   C792    1.412   .     S
C792   H794    1.110   .     S
C792   H793    1.114   .     S
C792   H795    1.111   .     S
C796   O797    1.222   .     D
C796   O798    1.392   .     S
O798   H799    1.013   .     S
O800   C801    1.412   .     S
C801   H802    1.109   .     S
C801   H804    1.110   .     S
C801   H803    1.116   .     S
O805   Zn811   1.997   .     S
O805   C807    1.284   .     A
O806   C807    1.282   .     A
O806   Zn812   1.984   .     S
C807   C848    1.410   .     S
O808   Zn811   1.965   .     S
O808   C810    1.296   .     A
O809   Zn812   1.909   .     S
O809   C810    1.295   .     A
C810   C835    1.462   .     S
Zn811  O815    1.909   .     S
Zn811  N852    2.017   .     S
Zn811  O813    1.984   .     S
Zn812  N857    2.017   .     S
Zn812  O816    1.965   .     S
Zn812  O814    1.997   .     S
O813   C817    1.281   .     A
O814   C817    1.288   .     A
O815   C818    1.294   .     A
O816   C818    1.298   .     A
C817   C844    1.415   .     S
C818   C823    1.458   .     S
C819   C834    1.394   .     A
H820   C834    1.078   .     S
H821   C831    1.084   .     S
H822   C216    1.084   1_556 S
C823   C833    1.392   .     A
C823   C834    1.399   .     A
C824   H837    1.083   .     S
C824   C825    1.388   .     A
C824   C835    1.402   .     A
C825   C223    1.392   1_556 S
C825   H236    1.083   1_556 S
C826   H838    1.078   .     S
C827   C828    1.408   .     A
C827   C223    1.419   1_556 S
C827   C226    1.416   1_556 S
C828   C835    1.413   .     A
C828   C832    1.415   .     A
C829   C833    1.390   .     A
C830   C831    1.391   .     A
C830   C216    1.404   1_556 S
C830   C226    1.420   1_556 S
C831   C832    1.387   .     A
C832   H840    1.082   .     S
C833   H836    1.078   .     S
C841   C848    1.399   .     A
C841   O867    1.389   .     S
C841   C1043   1.381   .     S
C842   C844    1.392   .     A
C842   H843    1.077   .     S
C844   C845    1.402   .     A
C845   O858    1.388   .     S
C846   C848    1.393   .     A
C846   H847    1.084   .     S
C846   C1046   1.383   .     S
C849   N857    1.381   .     A
C849   C863    1.463   .     S
C849   C917    1.414   .     S
C850   N852    1.355   .     A
C850   H851    1.083   .     S
C850   C983    1.414   1_455 S
N852   C853    1.368   .     A
C853   H854    1.082   .     S
C853   C989    1.419   1_455 S
C855   N857    1.367   .     A
C855   H856    1.082   .     S
C855   C920    1.419   .     S
O858   C859    1.412   .     S
C859   H861    1.110   .     S
C859   H860    1.114   .     S
C859   H862    1.111   .     S
C863   O864    1.222   .     D
C863   O865    1.392   .     S
O865   H866    1.013   .     S
O867   C868    1.412   .     S
C868   H869    1.109   .     S
C868   H871    1.110   .     S
C868   H870    1.116   .     S
O872   Zn878   1.997   .     S
O872   C874    1.284   .     A
O873   C874    1.282   .     A
O873   Zn879   1.984   .     S
C874   C915    1.410   .     S
O875   Zn878   1.965   .     S
O875   C877    1.296   .     A
O876   Zn879   1.909   .     S
O876   C877    1.295   .     A
C877   C902    1.462   .     S
Zn878  O882    1.909   .     S
Zn878  N919    2.017   .     S
Zn878  O880    1.984   .     S
Zn879  N924    2.017   .     S
Zn879  O883    1.965   .     S
Zn879  O881    1.997   .     S
O880   C884    1.281   .     A
O881   C884    1.288   .     A
O882   C885    1.294   .     A
O883   C885    1.298   .     A
C884   C911    1.415   .     S
C885   C890    1.458   .     S
C886   C901    1.394   .     A
H887   C901    1.078   .     S
H888   C898    1.084   .     S
H889   C283    1.084   1_556 S
C890   C900    1.392   .     A
C890   C901    1.399   .     A
C891   H904    1.083   .     S
C891   C892    1.388   .     A
C891   C902    1.402   .     A
C892   C290    1.392   1_556 S
C892   H303    1.083   1_556 S
C893   H905    1.078   .     S
C894   C895    1.408   .     A
C894   C290    1.419   1_556 S
C894   C293    1.416   1_556 S
C895   C902    1.413   .     A
C895   C899    1.415   .     A
C896   C900    1.390   .     A
C897   C898    1.391   .     A
C897   C283    1.404   1_556 S
C897   C293    1.420   1_556 S
C898   C899    1.387   .     A
C899   H907    1.082   .     S
C900   H903    1.078   .     S
C908   C915    1.399   .     A
C908   O934    1.389   .     S
C908   C1110   1.381   .     S
C909   C911    1.392   .     A
C909   H910    1.077   .     S
C911   C912    1.402   .     A
C912   O925    1.388   .     S
C913   C915    1.393   .     A
C913   H914    1.084   .     S
C913   C1113   1.383   .     S
C916   N924    1.381   .     A
C916   C930    1.463   .     S
C916   C984    1.414   .     S
C917   N919    1.355   .     A
C917   H918    1.083   .     S
N919   C920    1.368   .     A
C920   H921    1.082   .     S
C922   N924    1.367   .     A
C922   H923    1.082   .     S
C922   C987    1.419   .     S
O925   C926    1.412   .     S
C926   H928    1.110   .     S
C926   H927    1.114   .     S
C926   H929    1.111   .     S
C930   O931    1.222   .     D
C930   O932    1.392   .     S
O932   H933    1.013   .     S
O934   C935    1.412   .     S
C935   H936    1.109   .     S
C935   H938    1.110   .     S
C935   H937    1.116   .     S
O939   Zn945   1.997   .     S
O939   C941    1.284   .     A
O940   C941    1.282   .     A
O940   Zn946   1.984   .     S
C941   C982    1.410   .     S
O942   Zn945   1.965   .     S
O942   C944    1.296   .     A
O943   Zn946   1.909   .     S
O943   C944    1.295   .     A
C944   C969    1.462   .     S
Zn945  O949    1.909   .     S
Zn945  N986    2.017   .     S
Zn945  O947    1.984   .     S
Zn946  N991    2.017   .     S
Zn946  O950    1.965   .     S
Zn946  O948    1.997   .     S
O947   C951    1.281   .     A
O948   C951    1.288   .     A
O949   C952    1.294   .     A
O950   C952    1.298   .     A
C951   C978    1.415   .     S
C952   C957    1.458   .     S
C953   C968    1.394   .     A
H954   C968    1.078   .     S
H955   C965    1.084   .     S
H956   C350    1.084   1_556 S
C957   C967    1.392   .     A
C957   C968    1.399   .     A
C958   H971    1.083   .     S
C958   C959    1.388   .     A
C958   C969    1.402   .     A
C959   C357    1.392   1_556 S
C959   H370    1.083   1_556 S
C960   H972    1.078   .     S
C961   C962    1.408   .     A
C961   C357    1.419   1_556 S
C961   C360    1.416   1_556 S
C962   C969    1.413   .     A
C962   C966    1.415   .     A
C963   C967    1.390   .     A
C964   C965    1.391   .     A
C964   C350    1.404   1_556 S
C964   C360    1.420   1_556 S
C965   C966    1.387   .     A
C966   H974    1.082   .     S
C967   H970    1.078   .     S
C975   C982    1.399   .     A
C975   O1001   1.389   .     S
C975   C1177   1.381   .     S
C976   C978    1.392   .     A
C976   H977    1.077   .     S
C978   C979    1.402   .     A
C979   O992    1.388   .     S
C980   C982    1.393   .     A
C980   H981    1.084   .     S
C980   C1180   1.383   .     S
C983   N991    1.381   .     A
C983   C997    1.463   .     S
C983   C850    1.414   1_655 S
C984   N986    1.355   .     A
C984   H985    1.083   .     S
N986   C987    1.368   .     A
C987   H988    1.082   .     S
C989   N991    1.367   .     A
C989   H990    1.082   .     S
C989   C853    1.419   1_655 S
O992   C993    1.412   .     S
C993   H995    1.110   .     S
C993   H994    1.114   .     S
C993   H996    1.111   .     S
C997   O998    1.222   .     D
C997   O999    1.392   .     S
O999   H1000   1.013   .     S
O1001  C1002   1.412   .     S
C1002  H1003   1.109   .     S
C1002  H1005   1.110   .     S
C1002  H1004   1.116   .     S
O1006  Zn1012  1.997   .     S
O1006  C1008   1.284   .     A
O1007  C1008   1.282   .     A
O1007  Zn1013  1.984   .     S
C1008  C1049   1.410   .     S
O1009  Zn1012  1.965   .     S
O1009  C1011   1.296   .     A
O1010  Zn1013  1.909   .     S
O1010  C1011   1.295   .     A
C1011  C1036   1.462   .     S
Zn1012 O1016   1.909   .     S
Zn1012 N1053   2.017   .     S
Zn1012 O1014   1.984   .     S
Zn1013 N1058   2.017   .     S
Zn1013 O1017   1.965   .     S
Zn1013 O1015   1.997   .     S
O1014  C1018   1.281   .     A
O1015  C1018   1.288   .     A
O1016  C1019   1.294   .     A
O1017  C1019   1.298   .     A
C1018  C1045   1.415   .     S
C1019  C1024   1.458   .     S
C1020  C1035   1.394   .     A
H1021  C1035   1.078   .     S
H1022  C1032   1.084   .     S
H1023  C417    1.084   1_556 S
C1024  C1034   1.392   .     A
C1024  C1035   1.399   .     A
C1025  H1038   1.083   .     S
C1025  C1026   1.388   .     A
C1025  C1036   1.402   .     A
C1026  C424    1.392   1_556 S
C1026  H437    1.083   1_556 S
C1027  H1039   1.078   .     S
C1028  C1029   1.408   .     A
C1028  C424    1.419   1_556 S
C1028  C427    1.416   1_556 S
C1029  C1036   1.413   .     A
C1029  C1033   1.415   .     A
C1030  C1034   1.390   .     A
C1031  C1032   1.391   .     A
C1031  C417    1.404   1_556 S
C1031  C427    1.420   1_556 S
C1032  C1033   1.387   .     A
C1033  H1041   1.082   .     S
C1034  H1037   1.078   .     S
C1042  C1049   1.399   .     A
C1042  O1068   1.389   .     S
C1042  C641    1.381   1_565 S
C1043  C1045   1.392   .     A
C1043  H1044   1.077   .     S
C1045  C1046   1.402   .     A
C1046  O1059   1.388   .     S
C1047  C1049   1.393   .     A
C1047  H1048   1.084   .     S
C1047  C644    1.383   1_565 S
C1050  N1058   1.381   .     A
C1050  C1064   1.463   .     S
C1050  C1118   1.414   .     S
C1051  N1053   1.355   .     A
C1051  H1052   1.083   .     S
C1051  C1184   1.414   1_455 S
N1053  C1054   1.368   .     A
C1054  H1055   1.082   .     S
C1054  C1190   1.419   1_455 S
C1056  N1058   1.367   .     A
C1056  H1057   1.082   .     S
C1056  C1121   1.419   .     S
O1059  C1060   1.412   .     S
C1060  H1062   1.110   .     S
C1060  H1061   1.114   .     S
C1060  H1063   1.111   .     S
C1064  O1065   1.222   .     D
C1064  O1066   1.392   .     S
O1066  H1067   1.013   .     S
O1068  C1069   1.412   .     S
C1069  H1070   1.109   .     S
C1069  H1072   1.110   .     S
C1069  H1071   1.116   .     S
O1073  Zn1079  1.997   .     S
O1073  C1075   1.284   .     A
O1074  C1075   1.282   .     A
O1074  Zn1080  1.984   .     S
C1075  C1116   1.410   .     S
O1076  Zn1079  1.965   .     S
O1076  C1078   1.296   .     A
O1077  Zn1080  1.909   .     S
O1077  C1078   1.295   .     A
C1078  C1103   1.462   .     S
Zn1079 O1083   1.909   .     S
Zn1079 N1120   2.017   .     S
Zn1079 O1081   1.984   .     S
Zn1080 N1125   2.017   .     S
Zn1080 O1084   1.965   .     S
Zn1080 O1082   1.997   .     S
O1081  C1085   1.281   .     A
O1082  C1085   1.288   .     A
O1083  C1086   1.294   .     A
O1084  C1086   1.298   .     A
C1085  C1112   1.415   .     S
C1086  C1091   1.458   .     S
C1087  C1102   1.394   .     A
H1088  C1102   1.078   .     S
H1089  C1099   1.084   .     S
H1090  C484    1.084   1_556 S
C1091  C1101   1.392   .     A
C1091  C1102   1.399   .     A
C1092  H1105   1.083   .     S
C1092  C1093   1.388   .     A
C1092  C1103   1.402   .     A
C1093  C491    1.392   1_556 S
C1093  H504    1.083   1_556 S
C1094  H1106   1.078   .     S
C1095  C1096   1.408   .     A
C1095  C491    1.419   1_556 S
C1095  C494    1.416   1_556 S
C1096  C1103   1.413   .     A
C1096  C1100   1.415   .     A
C1097  C1101   1.390   .     A
C1098  C1099   1.391   .     A
C1098  C484    1.404   1_556 S
C1098  C494    1.420   1_556 S
C1099  C1100   1.387   .     A
C1100  H1108   1.082   .     S
C1101  H1104   1.078   .     S
C1109  C1116   1.399   .     A
C1109  O1135   1.389   .     S
C1109  C708    1.381   1_565 S
C1110  C1112   1.392   .     A
C1110  H1111   1.077   .     S
C1112  C1113   1.402   .     A
C1113  O1126   1.388   .     S
C1114  C1116   1.393   .     A
C1114  H1115   1.084   .     S
C1114  C711    1.383   1_565 S
C1117  N1125   1.381   .     A
C1117  C1131   1.463   .     S
C1117  C1185   1.414   .     S
C1118  N1120   1.355   .     A
C1118  H1119   1.083   .     S
N1120  C1121   1.368   .     A
C1121  H1122   1.082   .     S
C1123  N1125   1.367   .     A
C1123  H1124   1.082   .     S
C1123  C1188   1.419   .     S
O1126  C1127   1.412   .     S
C1127  H1129   1.110   .     S
C1127  H1128   1.114   .     S
C1127  H1130   1.111   .     S
C1131  O1132   1.222   .     D
C1131  O1133   1.392   .     S
O1133  H1134   1.013   .     S
O1135  C1136   1.412   .     S
C1136  H1137   1.109   .     S
C1136  H1139   1.110   .     S
C1136  H1138   1.116   .     S
O1140  Zn1146  1.997   .     S
O1140  C1142   1.284   .     A
O1141  C1142   1.282   .     A
O1141  Zn1147  1.984   .     S
C1142  C1183   1.410   .     S
O1143  Zn1146  1.965   .     S
O1143  C1145   1.296   .     A
O1144  Zn1147  1.909   .     S
O1144  C1145   1.295   .     A
C1145  C1170   1.462   .     S
Zn1146 O1150   1.909   .     S
Zn1146 N1187   2.017   .     S
Zn1146 O1148   1.984   .     S
Zn1147 N1192   2.017   .     S
Zn1147 O1151   1.965   .     S
Zn1147 O1149   1.997   .     S
O1148  C1152   1.281   .     A
O1149  C1152   1.288   .     A
O1150  C1153   1.294   .     A
O1151  C1153   1.298   .     A
C1152  C1179   1.415   .     S
C1153  C1158   1.458   .     S
C1154  C1169   1.394   .     A
H1155  C1169   1.078   .     S
H1156  C1166   1.084   .     S
H1157  C551    1.084   1_556 S
C1158  C1168   1.392   .     A
C1158  C1169   1.399   .     A
C1159  H1172   1.083   .     S
C1159  C1160   1.388   .     A
C1159  C1170   1.402   .     A
C1160  C558    1.392   1_556 S
C1160  H571    1.083   1_556 S
C1161  H1173   1.078   .     S
C1162  C1163   1.408   .     A
C1162  C558    1.419   1_556 S
C1162  C561    1.416   1_556 S
C1163  C1170   1.413   .     A
C1163  C1167   1.415   .     A
C1164  C1168   1.390   .     A
C1165  C1166   1.391   .     A
C1165  C551    1.404   1_556 S
C1165  C561    1.420   1_556 S
C1166  C1167   1.387   .     A
C1167  H1175   1.082   .     S
C1168  H1171   1.078   .     S
C1176  C1183   1.399   .     A
C1176  O1202   1.389   .     S
C1176  C775    1.381   1_565 S
C1177  C1179   1.392   .     A
C1177  H1178   1.077   .     S
C1179  C1180   1.402   .     A
C1180  O1193   1.388   .     S
C1181  C1183   1.393   .     A
C1181  H1182   1.084   .     S
C1181  C778    1.383   1_565 S
C1184  N1192   1.381   .     A
C1184  C1198   1.463   .     S
C1184  C1051   1.414   1_655 S
C1185  N1187   1.355   .     A
C1185  H1186   1.083   .     S
N1187  C1188   1.368   .     A
C1188  H1189   1.082   .     S
C1190  N1192   1.367   .     A
C1190  H1191   1.082   .     S
C1190  C1054   1.419   1_655 S
O1193  C1194   1.412   .     S
C1194  H1196   1.110   .     S
C1194  H1195   1.114   .     S
C1194  H1197   1.111   .     S
C1198  O1199   1.222   .     D
C1198  O1200   1.392   .     S
O1200  H1201   1.013   .     S
O1202  C1203   1.412   .     S
C1203  H1204   1.109   .     S
C1203  H1206   1.110   .     S
C1203  H1205   1.116   .     S
