data_str_m3_o2_o10_pcu_sym.111
_audit_creation_date              2020-01-03
_audit_creation_method            'Materials Studio'
_symmetry_space_group_name_H-M    'P1'
_symmetry_Int_Tables_number       1
_symmetry_cell_setting            triclinic
loop_
_symmetry_equiv_pos_as_xyz
  x,y,z
_cell_length_a                    25.9429
_cell_length_b                    30.0237
_cell_length_c                    28.5047
_cell_angle_alpha                 92.0413
_cell_angle_beta                  98.0949
_cell_angle_gamma                 89.1972
loop_
_atom_site_label
_atom_site_type_symbol
_atom_site_fract_x
_atom_site_fract_y
_atom_site_fract_z
_atom_site_U_iso_or_equiv
_atom_site_adp_type
_atom_site_occupancy
O1     O     0.16667   0.18453   0.28974   0.00000  Uiso   1.00
O2     O     0.16666   0.31546   0.21026   0.00000  Uiso   1.00
O3     O     0.16667   0.18453   0.21026   0.00000  Uiso   1.00
O4     O     0.16666   0.31547   0.28974   0.00000  Uiso   1.00
C5     C     0.16723   0.16375   0.24937   0.00000  Uiso   1.00
C6     C     0.16629   0.33578   0.25075   0.00000  Uiso   1.00
O7     O     0.09058   0.25000   0.28045   0.00000  Uiso   1.00
O8     O     0.24275   0.25000   0.21956   0.00000  Uiso   1.00
O9     O     0.09058   0.24999   0.20097   0.00000  Uiso   1.00
O10    O     0.24275   0.25000   0.29904   0.00000  Uiso   1.00
C11    C     0.06722   0.25054   0.23812   0.00000  Uiso   1.00
C12    C     0.26614   0.24980   0.26204   0.00000  Uiso   1.00
Zn13   Zn    0.16667   0.25000   0.30307   0.00000  Uiso   1.00
Zn14   Zn    0.16667   0.24999   0.19693   0.00000  Uiso   1.00
C15    C     0.01348   0.25953   0.23460   0.00000  Uiso   1.00
C16    C     0.32012   0.24172   0.26639   0.00000  Uiso   1.00
C17    C     0.14866   0.04925   0.28901   0.00000  Uiso   1.00
C18    C     0.21139   0.45063   0.24280   0.00000  Uiso   1.00
H19    H     0.13475   0.03428   0.31883   0.00000  Uiso   1.00
H20    H     0.24546   0.46704   0.23388   0.00000  Uiso   1.00
C21    C     0.14735   0.09504   0.28613   0.00000  Uiso   1.00
C22    C     0.20975   0.40468   0.24047   0.00000  Uiso   1.00
H23    H     0.13144   0.11451   0.31355   0.00000  Uiso   1.00
H24    H     0.24230   0.38584   0.22969   0.00000  Uiso   1.00
C25    C     0.16694   0.11543   0.24883   0.00000  Uiso   1.00
C26    C     0.16660   0.38322   0.25288   0.00000  Uiso   1.00
C27    C     0.18724   0.08907   0.21370   0.00000  Uiso   1.00
C28    C     0.12504   0.40725   0.26823   0.00000  Uiso   1.00
C29    C     0.18670   0.04320   0.21604   0.00000  Uiso   1.00
C30    C     0.12604   0.45327   0.26901   0.00000  Uiso   1.00
H31    H     0.20122   0.02308   0.18833   0.00000  Uiso   1.00
H32    H     0.09282   0.47188   0.27868   0.00000  Uiso   1.00
C33    C     0.16830   0.02323   0.25389   0.00000  Uiso   1.00
C34    C     0.16895   0.47506   0.25598   0.00000  Uiso   1.00
C35    C     0.12765   0.22947   0.04598   0.00000  Uiso   1.00
C36    C     0.19049   0.28366   0.45222   0.00000  Uiso   1.00
H37    H     0.09574   0.21377   0.02300   0.00000  Uiso   1.00
H38    H     0.20846   0.31121   0.47377   0.00000  Uiso   1.00
C39    C     0.12769   0.22953   0.09531   0.00000  Uiso   1.00
C40    C     0.19048   0.28349   0.40286   0.00000  Uiso   1.00
N41    N     0.16667   0.24999   0.12624   0.00000  Uiso   1.00
N42    N     0.16667   0.25001   0.37377   0.00000  Uiso   1.00
C43    C     0.20533   0.27093   0.10804   0.00000  Uiso   1.00
C44    C     0.14366   0.21604   0.39340   0.00000  Uiso   1.00
H45    H     0.23519   0.28795   0.13168   0.00000  Uiso   1.00
H46    H     0.12530   0.18944   0.37077   0.00000  Uiso   1.00
C47    C     0.20722   0.27048   0.05879   0.00000  Uiso   1.00
C48    C     0.14404   0.21472   0.44287   0.00000  Uiso   1.00
H49    H     0.23976   0.28626   0.04638   0.00000  Uiso   1.00
H50    H     0.12647   0.18654   0.45688   0.00000  Uiso   1.00
C51    C     0.16786   0.24945   0.02659   0.00000  Uiso   1.00
C52    C     0.16763   0.24904   0.47341   0.00000  Uiso   1.00
Br53   Br    0.32252   0.30898   0.19555   0.00000  Uiso   1.00
Br54   Br    0.01219   0.19457   0.30856   0.00000  Uiso   1.00
Br55   Br    0.22034   0.11184   0.16390   0.00000  Uiso   1.00
Br56   Br    0.06566   0.37893   0.28666   0.00000  Uiso   1.00
C57    C     0.08570   0.20533   0.11237   0.00000  Uiso   1.00
C58    C     0.09430   0.16146   0.12651   0.00000  Uiso   1.00
C59    C     0.05718   0.13962   0.14788   0.00000  Uiso   1.00
C60    C     0.01002   0.16088   0.15260   0.00000  Uiso   1.00
C61    C     0.33174   0.20247   0.13299   0.00000  Uiso   1.00
C62    C     0.03620   0.22480   0.11254   0.00000  Uiso   1.00
H63    H     0.13006   0.14468   0.12162   0.00000  Uiso   1.00
H64    H     0.06524   0.10660   0.16134   0.00000  Uiso   1.00
H65    H     0.31627   0.14514   0.17174   0.00000  Uiso   1.00
H66    H     0.29440   0.21807   0.13548   0.00000  Uiso   1.00
H67    H     0.02795   0.25789   0.09929   0.00000  Uiso   1.00
C68    C     0.21872   0.31951   0.38435   0.00000  Uiso   1.00
C69    C     0.27062   0.31281   0.37703   0.00000  Uiso   1.00
C70    C     0.29902   0.34790   0.36292   0.00000  Uiso   1.00
C71    C     0.27619   0.39016   0.35711   0.00000  Uiso   1.00
C72    C     0.22508   0.39747   0.36607   0.00000  Uiso   1.00
C73    C     0.19648   0.36235   0.38006   0.00000  Uiso   1.00
H74    H     0.28921   0.28053   0.38267   0.00000  Uiso   1.00
H75    H     0.00561   0.34235   0.35718   0.00000  Uiso   1.00
H76    H     0.29824   0.41733   0.34617   0.00000  Uiso   1.00
H77    H     0.20762   0.43032   0.36211   0.00000  Uiso   1.00
H78    H     0.15705   0.36841   0.38728   0.00000  Uiso   1.00
O79    O     0.50000   0.18453   0.28974   0.00000  Uiso   1.00
O80    O     0.50000   0.31546   0.21026   0.00000  Uiso   1.00
O81    O     0.50000   0.18453   0.21026   0.00000  Uiso   1.00
O82    O     0.50000   0.31547   0.28974   0.00000  Uiso   1.00
C83    C     0.50056   0.16375   0.24937   0.00000  Uiso   1.00
C84    C     0.49962   0.33578   0.25075   0.00000  Uiso   1.00
O85    O     0.42392   0.25000   0.28045   0.00000  Uiso   1.00
O86    O     0.57608   0.25000   0.21956   0.00000  Uiso   1.00
O87    O     0.42392   0.24999   0.20097   0.00000  Uiso   1.00
O88    O     0.57608   0.25000   0.29904   0.00000  Uiso   1.00
C89    C     0.40056   0.25054   0.23812   0.00000  Uiso   1.00
C90    C     0.59948   0.24980   0.26204   0.00000  Uiso   1.00
Zn91   Zn    0.50000   0.25000   0.30307   0.00000  Uiso   1.00
Zn92   Zn    0.50000   0.24999   0.19693   0.00000  Uiso   1.00
C93    C     0.34682   0.25953   0.23460   0.00000  Uiso   1.00
C94    C     0.65345   0.24172   0.26639   0.00000  Uiso   1.00
C95    C     0.48199   0.04925   0.28901   0.00000  Uiso   1.00
C96    C     0.54472   0.45063   0.24280   0.00000  Uiso   1.00
H97    H     0.46808   0.03428   0.31883   0.00000  Uiso   1.00
H98    H     0.57879   0.46704   0.23388   0.00000  Uiso   1.00
C99    C     0.48068   0.09504   0.28613   0.00000  Uiso   1.00
C100   C     0.54308   0.40468   0.24047   0.00000  Uiso   1.00
H101   H     0.46478   0.11451   0.31355   0.00000  Uiso   1.00
H102   H     0.57563   0.38584   0.22969   0.00000  Uiso   1.00
C103   C     0.50027   0.11543   0.24883   0.00000  Uiso   1.00
C104   C     0.49993   0.38322   0.25288   0.00000  Uiso   1.00
C105   C     0.52057   0.08907   0.21370   0.00000  Uiso   1.00
C106   C     0.45838   0.40725   0.26823   0.00000  Uiso   1.00
C107   C     0.52004   0.04320   0.21604   0.00000  Uiso   1.00
C108   C     0.45937   0.45327   0.26901   0.00000  Uiso   1.00
H109   H     0.53456   0.02308   0.18833   0.00000  Uiso   1.00
H110   H     0.42616   0.47188   0.27868   0.00000  Uiso   1.00
C111   C     0.50163   0.02323   0.25389   0.00000  Uiso   1.00
C112   C     0.50229   0.47506   0.25598   0.00000  Uiso   1.00
C113   C     0.46099   0.22947   0.04598   0.00000  Uiso   1.00
C114   C     0.52383   0.28366   0.45222   0.00000  Uiso   1.00
H115   H     0.42908   0.21377   0.02300   0.00000  Uiso   1.00
H116   H     0.54179   0.31121   0.47377   0.00000  Uiso   1.00
C117   C     0.46102   0.22953   0.09531   0.00000  Uiso   1.00
C118   C     0.52381   0.28349   0.40286   0.00000  Uiso   1.00
N119   N     0.50000   0.24999   0.12624   0.00000  Uiso   1.00
N120   N     0.50000   0.25001   0.37377   0.00000  Uiso   1.00
C121   C     0.53867   0.27093   0.10804   0.00000  Uiso   1.00
C122   C     0.47699   0.21604   0.39340   0.00000  Uiso   1.00
H123   H     0.56852   0.28795   0.13168   0.00000  Uiso   1.00
H124   H     0.45863   0.18944   0.37077   0.00000  Uiso   1.00
C125   C     0.54055   0.27048   0.05879   0.00000  Uiso   1.00
C126   C     0.47738   0.21472   0.44287   0.00000  Uiso   1.00
H127   H     0.57309   0.28626   0.04638   0.00000  Uiso   1.00
H128   H     0.45981   0.18654   0.45688   0.00000  Uiso   1.00
C129   C     0.50120   0.24945   0.02659   0.00000  Uiso   1.00
C130   C     0.50096   0.24904   0.47341   0.00000  Uiso   1.00
Br131  Br    0.65585   0.30898   0.19555   0.00000  Uiso   1.00
Br132  Br    0.34553   0.19457   0.30856   0.00000  Uiso   1.00
Br133  Br    0.55368   0.11184   0.16390   0.00000  Uiso   1.00
Br134  Br    0.39899   0.37893   0.28666   0.00000  Uiso   1.00
C135   C     0.41904   0.20533   0.11237   0.00000  Uiso   1.00
C136   C     0.42763   0.16146   0.12651   0.00000  Uiso   1.00
C137   C     0.39051   0.13962   0.14788   0.00000  Uiso   1.00
C138   C     0.34335   0.16088   0.15260   0.00000  Uiso   1.00
C139   C     0.66508   0.20247   0.13299   0.00000  Uiso   1.00
C140   C     0.36954   0.22480   0.11254   0.00000  Uiso   1.00
H141   H     0.46340   0.14468   0.12162   0.00000  Uiso   1.00
H142   H     0.39858   0.10660   0.16134   0.00000  Uiso   1.00
H143   H     0.64960   0.14514   0.17174   0.00000  Uiso   1.00
H144   H     0.62773   0.21807   0.13548   0.00000  Uiso   1.00
H145   H     0.36128   0.25789   0.09929   0.00000  Uiso   1.00
C146   C     0.55205   0.31951   0.38435   0.00000  Uiso   1.00
C147   C     0.60395   0.31281   0.37703   0.00000  Uiso   1.00
C148   C     0.63236   0.34790   0.36292   0.00000  Uiso   1.00
C149   C     0.60952   0.39016   0.35711   0.00000  Uiso   1.00
C150   C     0.55842   0.39747   0.36607   0.00000  Uiso   1.00
C151   C     0.52981   0.36235   0.38006   0.00000  Uiso   1.00
H152   H     0.62255   0.28053   0.38267   0.00000  Uiso   1.00
H153   H     0.33895   0.34235   0.35718   0.00000  Uiso   1.00
H154   H     0.63158   0.41733   0.34617   0.00000  Uiso   1.00
H155   H     0.54096   0.43032   0.36211   0.00000  Uiso   1.00
H156   H     0.49038   0.36841   0.38728   0.00000  Uiso   1.00
O157   O     0.83334   0.18453   0.28974   0.00000  Uiso   1.00
O158   O     0.83333   0.31546   0.21026   0.00000  Uiso   1.00
O159   O     0.83334   0.18453   0.21026   0.00000  Uiso   1.00
O160   O     0.83333   0.31547   0.28974   0.00000  Uiso   1.00
C161   C     0.83390   0.16375   0.24937   0.00000  Uiso   1.00
C162   C     0.83295   0.33578   0.25075   0.00000  Uiso   1.00
O163   O     0.75725   0.25000   0.28045   0.00000  Uiso   1.00
O164   O     0.90942   0.25000   0.21956   0.00000  Uiso   1.00
O165   O     0.75725   0.24999   0.20097   0.00000  Uiso   1.00
O166   O     0.90942   0.25000   0.29904   0.00000  Uiso   1.00
C167   C     0.73389   0.25054   0.23812   0.00000  Uiso   1.00
C168   C     0.93281   0.24980   0.26204   0.00000  Uiso   1.00
Zn169  Zn    0.83333   0.25000   0.30307   0.00000  Uiso   1.00
Zn170  Zn    0.83333   0.24999   0.19693   0.00000  Uiso   1.00
C171   C     0.68015   0.25953   0.23460   0.00000  Uiso   1.00
C172   C     0.98679   0.24172   0.26639   0.00000  Uiso   1.00
C173   C     0.81533   0.04925   0.28901   0.00000  Uiso   1.00
C174   C     0.87806   0.45063   0.24280   0.00000  Uiso   1.00
H175   H     0.80142   0.03428   0.31883   0.00000  Uiso   1.00
H176   H     0.91213   0.46704   0.23388   0.00000  Uiso   1.00
C177   C     0.81401   0.09504   0.28613   0.00000  Uiso   1.00
C178   C     0.87641   0.40468   0.24047   0.00000  Uiso   1.00
H179   H     0.79811   0.11451   0.31355   0.00000  Uiso   1.00
H180   H     0.90896   0.38584   0.22969   0.00000  Uiso   1.00
C181   C     0.83360   0.11543   0.24883   0.00000  Uiso   1.00
C182   C     0.83326   0.38322   0.25288   0.00000  Uiso   1.00
C183   C     0.85390   0.08907   0.21370   0.00000  Uiso   1.00
C184   C     0.79171   0.40725   0.26823   0.00000  Uiso   1.00
C185   C     0.85337   0.04320   0.21604   0.00000  Uiso   1.00
C186   C     0.79271   0.45327   0.26901   0.00000  Uiso   1.00
H187   H     0.86789   0.02308   0.18833   0.00000  Uiso   1.00
H188   H     0.75949   0.47188   0.27868   0.00000  Uiso   1.00
C189   C     0.83496   0.02323   0.25389   0.00000  Uiso   1.00
C190   C     0.83562   0.47506   0.25598   0.00000  Uiso   1.00
C191   C     0.79432   0.22947   0.04598   0.00000  Uiso   1.00
C192   C     0.85716   0.28366   0.45222   0.00000  Uiso   1.00
H193   H     0.76241   0.21377   0.02300   0.00000  Uiso   1.00
H194   H     0.87512   0.31121   0.47377   0.00000  Uiso   1.00
C195   C     0.79436   0.22953   0.09531   0.00000  Uiso   1.00
C196   C     0.85715   0.28349   0.40286   0.00000  Uiso   1.00
N197   N     0.83333   0.24999   0.12624   0.00000  Uiso   1.00
N198   N     0.83333   0.25001   0.37377   0.00000  Uiso   1.00
C199   C     0.87200   0.27093   0.10804   0.00000  Uiso   1.00
C200   C     0.81032   0.21604   0.39340   0.00000  Uiso   1.00
H201   H     0.90185   0.28795   0.13168   0.00000  Uiso   1.00
H202   H     0.79196   0.18944   0.37077   0.00000  Uiso   1.00
C203   C     0.87388   0.27048   0.05879   0.00000  Uiso   1.00
C204   C     0.81071   0.21472   0.44287   0.00000  Uiso   1.00
H205   H     0.90642   0.28626   0.04638   0.00000  Uiso   1.00
H206   H     0.79314   0.18654   0.45688   0.00000  Uiso   1.00
C207   C     0.83453   0.24945   0.02659   0.00000  Uiso   1.00
C208   C     0.83430   0.24904   0.47341   0.00000  Uiso   1.00
Br209  Br    0.98919   0.30898   0.19555   0.00000  Uiso   1.00
Br210  Br    0.67886   0.19457   0.30856   0.00000  Uiso   1.00
Br211  Br    0.88701   0.11184   0.16390   0.00000  Uiso   1.00
Br212  Br    0.73233   0.37893   0.28666   0.00000  Uiso   1.00
C213   C     0.75237   0.20533   0.11237   0.00000  Uiso   1.00
C214   C     0.76097   0.16146   0.12651   0.00000  Uiso   1.00
C215   C     0.72384   0.13962   0.14788   0.00000  Uiso   1.00
C216   C     0.67669   0.16088   0.15260   0.00000  Uiso   1.00
C217   C     0.99841   0.20247   0.13299   0.00000  Uiso   1.00
C218   C     0.70287   0.22480   0.11254   0.00000  Uiso   1.00
H219   H     0.79673   0.14468   0.12162   0.00000  Uiso   1.00
H220   H     0.73191   0.10660   0.16134   0.00000  Uiso   1.00
H221   H     0.98293   0.14514   0.17174   0.00000  Uiso   1.00
H222   H     0.96106   0.21807   0.13548   0.00000  Uiso   1.00
H223   H     0.69462   0.25789   0.09929   0.00000  Uiso   1.00
C224   C     0.88539   0.31951   0.38435   0.00000  Uiso   1.00
C225   C     0.93729   0.31281   0.37703   0.00000  Uiso   1.00
C226   C     0.96569   0.34790   0.36292   0.00000  Uiso   1.00
C227   C     0.94286   0.39016   0.35711   0.00000  Uiso   1.00
C228   C     0.89175   0.39747   0.36607   0.00000  Uiso   1.00
C229   C     0.86315   0.36235   0.38006   0.00000  Uiso   1.00
H230   H     0.95588   0.28053   0.38267   0.00000  Uiso   1.00
H231   H     0.67228   0.34235   0.35718   0.00000  Uiso   1.00
H232   H     0.96491   0.41733   0.34617   0.00000  Uiso   1.00
H233   H     0.87429   0.43032   0.36211   0.00000  Uiso   1.00
H234   H     0.82372   0.36841   0.38728   0.00000  Uiso   1.00
O235   O     0.16667   0.68453   0.28974   0.00000  Uiso   1.00
O236   O     0.16666   0.81546   0.21026   0.00000  Uiso   1.00
O237   O     0.16667   0.68453   0.21026   0.00000  Uiso   1.00
O238   O     0.16666   0.81547   0.28974   0.00000  Uiso   1.00
C239   C     0.16723   0.66375   0.24937   0.00000  Uiso   1.00
C240   C     0.16629   0.83578   0.25075   0.00000  Uiso   1.00
O241   O     0.09058   0.75000   0.28045   0.00000  Uiso   1.00
O242   O     0.24275   0.75000   0.21956   0.00000  Uiso   1.00
O243   O     0.09058   0.74999   0.20097   0.00000  Uiso   1.00
O244   O     0.24275   0.75000   0.29904   0.00000  Uiso   1.00
C245   C     0.06722   0.75054   0.23812   0.00000  Uiso   1.00
C246   C     0.26614   0.74980   0.26204   0.00000  Uiso   1.00
Zn247  Zn    0.16667   0.75000   0.30307   0.00000  Uiso   1.00
Zn248  Zn    0.16667   0.74999   0.19693   0.00000  Uiso   1.00
C249   C     0.01348   0.75953   0.23460   0.00000  Uiso   1.00
C250   C     0.32012   0.74172   0.26639   0.00000  Uiso   1.00
C251   C     0.14866   0.54925   0.28901   0.00000  Uiso   1.00
C252   C     0.21139   0.95063   0.24280   0.00000  Uiso   1.00
H253   H     0.13475   0.53428   0.31883   0.00000  Uiso   1.00
H254   H     0.24546   0.96704   0.23388   0.00000  Uiso   1.00
C255   C     0.14735   0.59504   0.28613   0.00000  Uiso   1.00
C256   C     0.20975   0.90468   0.24047   0.00000  Uiso   1.00
H257   H     0.13144   0.61451   0.31355   0.00000  Uiso   1.00
H258   H     0.24230   0.88584   0.22969   0.00000  Uiso   1.00
C259   C     0.16694   0.61543   0.24883   0.00000  Uiso   1.00
C260   C     0.16660   0.88322   0.25288   0.00000  Uiso   1.00
C261   C     0.18724   0.58907   0.21370   0.00000  Uiso   1.00
C262   C     0.12504   0.90725   0.26823   0.00000  Uiso   1.00
C263   C     0.18670   0.54320   0.21604   0.00000  Uiso   1.00
C264   C     0.12604   0.95327   0.26901   0.00000  Uiso   1.00
H265   H     0.20122   0.52308   0.18833   0.00000  Uiso   1.00
H266   H     0.09282   0.97188   0.27868   0.00000  Uiso   1.00
C267   C     0.16830   0.52323   0.25389   0.00000  Uiso   1.00
C268   C     0.16895   0.97506   0.25598   0.00000  Uiso   1.00
C269   C     0.12765   0.72947   0.04598   0.00000  Uiso   1.00
C270   C     0.19049   0.78366   0.45222   0.00000  Uiso   1.00
H271   H     0.09574   0.71377   0.02300   0.00000  Uiso   1.00
H272   H     0.20846   0.81121   0.47377   0.00000  Uiso   1.00
C273   C     0.12769   0.72953   0.09531   0.00000  Uiso   1.00
C274   C     0.19048   0.78349   0.40286   0.00000  Uiso   1.00
N275   N     0.16667   0.74999   0.12624   0.00000  Uiso   1.00
N276   N     0.16667   0.75001   0.37377   0.00000  Uiso   1.00
C277   C     0.20533   0.77093   0.10804   0.00000  Uiso   1.00
C278   C     0.14366   0.71604   0.39340   0.00000  Uiso   1.00
H279   H     0.23519   0.78795   0.13168   0.00000  Uiso   1.00
H280   H     0.12530   0.68944   0.37077   0.00000  Uiso   1.00
C281   C     0.20722   0.77048   0.05879   0.00000  Uiso   1.00
C282   C     0.14404   0.71472   0.44287   0.00000  Uiso   1.00
H283   H     0.23976   0.78626   0.04638   0.00000  Uiso   1.00
H284   H     0.12647   0.68654   0.45688   0.00000  Uiso   1.00
C285   C     0.16786   0.74945   0.02659   0.00000  Uiso   1.00
C286   C     0.16763   0.74904   0.47341   0.00000  Uiso   1.00
Br287  Br    0.32252   0.80898   0.19555   0.00000  Uiso   1.00
Br288  Br    0.01219   0.69457   0.30856   0.00000  Uiso   1.00
Br289  Br    0.22034   0.61184   0.16390   0.00000  Uiso   1.00
Br290  Br    0.06566   0.87893   0.28666   0.00000  Uiso   1.00
C291   C     0.08570   0.70533   0.11237   0.00000  Uiso   1.00
C292   C     0.09430   0.66146   0.12651   0.00000  Uiso   1.00
C293   C     0.05718   0.63962   0.14788   0.00000  Uiso   1.00
C294   C     0.01002   0.66088   0.15260   0.00000  Uiso   1.00
C295   C     0.33174   0.70247   0.13299   0.00000  Uiso   1.00
C296   C     0.03620   0.72480   0.11254   0.00000  Uiso   1.00
H297   H     0.13006   0.64468   0.12162   0.00000  Uiso   1.00
H298   H     0.06524   0.60660   0.16134   0.00000  Uiso   1.00
H299   H     0.31627   0.64514   0.17174   0.00000  Uiso   1.00
H300   H     0.29440   0.71807   0.13548   0.00000  Uiso   1.00
H301   H     0.02795   0.75789   0.09929   0.00000  Uiso   1.00
C302   C     0.21872   0.81951   0.38435   0.00000  Uiso   1.00
C303   C     0.27062   0.81281   0.37703   0.00000  Uiso   1.00
C304   C     0.29902   0.84790   0.36292   0.00000  Uiso   1.00
C305   C     0.27619   0.89016   0.35711   0.00000  Uiso   1.00
C306   C     0.22508   0.89747   0.36607   0.00000  Uiso   1.00
C307   C     0.19648   0.86235   0.38006   0.00000  Uiso   1.00
H308   H     0.28921   0.78053   0.38267   0.00000  Uiso   1.00
H309   H     0.00561   0.84235   0.35718   0.00000  Uiso   1.00
H310   H     0.29824   0.91733   0.34617   0.00000  Uiso   1.00
H311   H     0.20762   0.93032   0.36211   0.00000  Uiso   1.00
H312   H     0.15705   0.86841   0.38728   0.00000  Uiso   1.00
O313   O     0.50000   0.68453   0.28974   0.00000  Uiso   1.00
O314   O     0.50000   0.81546   0.21026   0.00000  Uiso   1.00
O315   O     0.50000   0.68453   0.21026   0.00000  Uiso   1.00
O316   O     0.50000   0.81547   0.28974   0.00000  Uiso   1.00
C317   C     0.50056   0.66375   0.24937   0.00000  Uiso   1.00
C318   C     0.49962   0.83578   0.25075   0.00000  Uiso   1.00
O319   O     0.42392   0.75000   0.28045   0.00000  Uiso   1.00
O320   O     0.57608   0.75000   0.21956   0.00000  Uiso   1.00
O321   O     0.42392   0.74999   0.20097   0.00000  Uiso   1.00
O322   O     0.57608   0.75000   0.29904   0.00000  Uiso   1.00
C323   C     0.40056   0.75054   0.23812   0.00000  Uiso   1.00
C324   C     0.59948   0.74980   0.26204   0.00000  Uiso   1.00
Zn325  Zn    0.50000   0.75000   0.30307   0.00000  Uiso   1.00
Zn326  Zn    0.50000   0.74999   0.19693   0.00000  Uiso   1.00
C327   C     0.34682   0.75953   0.23460   0.00000  Uiso   1.00
C328   C     0.65345   0.74172   0.26639   0.00000  Uiso   1.00
C329   C     0.48199   0.54925   0.28901   0.00000  Uiso   1.00
C330   C     0.54472   0.95063   0.24280   0.00000  Uiso   1.00
H331   H     0.46808   0.53428   0.31883   0.00000  Uiso   1.00
H332   H     0.57879   0.96704   0.23388   0.00000  Uiso   1.00
C333   C     0.48068   0.59504   0.28613   0.00000  Uiso   1.00
C334   C     0.54308   0.90468   0.24047   0.00000  Uiso   1.00
H335   H     0.46478   0.61451   0.31355   0.00000  Uiso   1.00
H336   H     0.57563   0.88584   0.22969   0.00000  Uiso   1.00
C337   C     0.50027   0.61543   0.24883   0.00000  Uiso   1.00
C338   C     0.49993   0.88322   0.25288   0.00000  Uiso   1.00
C339   C     0.52057   0.58907   0.21370   0.00000  Uiso   1.00
C340   C     0.45838   0.90725   0.26823   0.00000  Uiso   1.00
C341   C     0.52004   0.54320   0.21604   0.00000  Uiso   1.00
C342   C     0.45937   0.95327   0.26901   0.00000  Uiso   1.00
H343   H     0.53456   0.52308   0.18833   0.00000  Uiso   1.00
H344   H     0.42616   0.97188   0.27868   0.00000  Uiso   1.00
C345   C     0.50163   0.52323   0.25389   0.00000  Uiso   1.00
C346   C     0.50229   0.97506   0.25598   0.00000  Uiso   1.00
C347   C     0.46099   0.72947   0.04598   0.00000  Uiso   1.00
C348   C     0.52383   0.78366   0.45222   0.00000  Uiso   1.00
H349   H     0.42908   0.71377   0.02300   0.00000  Uiso   1.00
H350   H     0.54179   0.81121   0.47377   0.00000  Uiso   1.00
C351   C     0.46102   0.72953   0.09531   0.00000  Uiso   1.00
C352   C     0.52381   0.78349   0.40286   0.00000  Uiso   1.00
N353   N     0.50000   0.74999   0.12624   0.00000  Uiso   1.00
N354   N     0.50000   0.75001   0.37377   0.00000  Uiso   1.00
C355   C     0.53867   0.77093   0.10804   0.00000  Uiso   1.00
C356   C     0.47699   0.71604   0.39340   0.00000  Uiso   1.00
H357   H     0.56852   0.78795   0.13168   0.00000  Uiso   1.00
H358   H     0.45863   0.68944   0.37077   0.00000  Uiso   1.00
C359   C     0.54055   0.77048   0.05879   0.00000  Uiso   1.00
C360   C     0.47738   0.71472   0.44287   0.00000  Uiso   1.00
H361   H     0.57309   0.78626   0.04638   0.00000  Uiso   1.00
H362   H     0.45981   0.68654   0.45688   0.00000  Uiso   1.00
C363   C     0.50120   0.74945   0.02659   0.00000  Uiso   1.00
C364   C     0.50096   0.74904   0.47341   0.00000  Uiso   1.00
Br365  Br    0.65585   0.80898   0.19555   0.00000  Uiso   1.00
Br366  Br    0.34553   0.69457   0.30856   0.00000  Uiso   1.00
Br367  Br    0.55368   0.61184   0.16390   0.00000  Uiso   1.00
Br368  Br    0.39899   0.87893   0.28666   0.00000  Uiso   1.00
C369   C     0.41904   0.70533   0.11237   0.00000  Uiso   1.00
C370   C     0.42763   0.66146   0.12651   0.00000  Uiso   1.00
C371   C     0.39051   0.63962   0.14788   0.00000  Uiso   1.00
C372   C     0.34335   0.66088   0.15260   0.00000  Uiso   1.00
C373   C     0.66508   0.70247   0.13299   0.00000  Uiso   1.00
C374   C     0.36954   0.72480   0.11254   0.00000  Uiso   1.00
H375   H     0.46340   0.64468   0.12162   0.00000  Uiso   1.00
H376   H     0.39858   0.60660   0.16134   0.00000  Uiso   1.00
H377   H     0.64960   0.64514   0.17174   0.00000  Uiso   1.00
H378   H     0.62773   0.71807   0.13548   0.00000  Uiso   1.00
H379   H     0.36128   0.75789   0.09929   0.00000  Uiso   1.00
C380   C     0.55205   0.81951   0.38435   0.00000  Uiso   1.00
C381   C     0.60395   0.81281   0.37703   0.00000  Uiso   1.00
C382   C     0.63236   0.84790   0.36292   0.00000  Uiso   1.00
C383   C     0.60952   0.89016   0.35711   0.00000  Uiso   1.00
C384   C     0.55842   0.89747   0.36607   0.00000  Uiso   1.00
C385   C     0.52981   0.86235   0.38006   0.00000  Uiso   1.00
H386   H     0.62255   0.78053   0.38267   0.00000  Uiso   1.00
H387   H     0.33895   0.84235   0.35718   0.00000  Uiso   1.00
H388   H     0.63158   0.91733   0.34617   0.00000  Uiso   1.00
H389   H     0.54096   0.93032   0.36211   0.00000  Uiso   1.00
H390   H     0.49038   0.86841   0.38728   0.00000  Uiso   1.00
O391   O     0.83334   0.68453   0.28974   0.00000  Uiso   1.00
O392   O     0.83333   0.81546   0.21026   0.00000  Uiso   1.00
O393   O     0.83334   0.68453   0.21026   0.00000  Uiso   1.00
O394   O     0.83333   0.81547   0.28974   0.00000  Uiso   1.00
C395   C     0.83390   0.66375   0.24937   0.00000  Uiso   1.00
C396   C     0.83295   0.83578   0.25075   0.00000  Uiso   1.00
O397   O     0.75725   0.75000   0.28045   0.00000  Uiso   1.00
O398   O     0.90942   0.75000   0.21956   0.00000  Uiso   1.00
O399   O     0.75725   0.74999   0.20097   0.00000  Uiso   1.00
O400   O     0.90942   0.75000   0.29904   0.00000  Uiso   1.00
C401   C     0.73389   0.75054   0.23812   0.00000  Uiso   1.00
C402   C     0.93281   0.74980   0.26204   0.00000  Uiso   1.00
Zn403  Zn    0.83333   0.75000   0.30307   0.00000  Uiso   1.00
Zn404  Zn    0.83333   0.74999   0.19693   0.00000  Uiso   1.00
C405   C     0.68015   0.75953   0.23460   0.00000  Uiso   1.00
C406   C     0.98679   0.74172   0.26639   0.00000  Uiso   1.00
C407   C     0.81533   0.54925   0.28901   0.00000  Uiso   1.00
C408   C     0.87806   0.95063   0.24280   0.00000  Uiso   1.00
H409   H     0.80142   0.53428   0.31883   0.00000  Uiso   1.00
H410   H     0.91213   0.96704   0.23388   0.00000  Uiso   1.00
C411   C     0.81401   0.59504   0.28613   0.00000  Uiso   1.00
C412   C     0.87641   0.90468   0.24047   0.00000  Uiso   1.00
H413   H     0.79811   0.61451   0.31355   0.00000  Uiso   1.00
H414   H     0.90896   0.88584   0.22969   0.00000  Uiso   1.00
C415   C     0.83360   0.61543   0.24883   0.00000  Uiso   1.00
C416   C     0.83326   0.88322   0.25288   0.00000  Uiso   1.00
C417   C     0.85390   0.58907   0.21370   0.00000  Uiso   1.00
C418   C     0.79171   0.90725   0.26823   0.00000  Uiso   1.00
C419   C     0.85337   0.54320   0.21604   0.00000  Uiso   1.00
C420   C     0.79271   0.95327   0.26901   0.00000  Uiso   1.00
H421   H     0.86789   0.52308   0.18833   0.00000  Uiso   1.00
H422   H     0.75949   0.97188   0.27868   0.00000  Uiso   1.00
C423   C     0.83496   0.52323   0.25389   0.00000  Uiso   1.00
C424   C     0.83562   0.97506   0.25598   0.00000  Uiso   1.00
C425   C     0.79432   0.72947   0.04598   0.00000  Uiso   1.00
C426   C     0.85716   0.78366   0.45222   0.00000  Uiso   1.00
H427   H     0.76241   0.71377   0.02300   0.00000  Uiso   1.00
H428   H     0.87512   0.81121   0.47377   0.00000  Uiso   1.00
C429   C     0.79436   0.72953   0.09531   0.00000  Uiso   1.00
C430   C     0.85715   0.78349   0.40286   0.00000  Uiso   1.00
N431   N     0.83333   0.74999   0.12624   0.00000  Uiso   1.00
N432   N     0.83333   0.75001   0.37377   0.00000  Uiso   1.00
C433   C     0.87200   0.77093   0.10804   0.00000  Uiso   1.00
C434   C     0.81032   0.71604   0.39340   0.00000  Uiso   1.00
H435   H     0.90185   0.78795   0.13168   0.00000  Uiso   1.00
H436   H     0.79196   0.68944   0.37077   0.00000  Uiso   1.00
C437   C     0.87388   0.77048   0.05879   0.00000  Uiso   1.00
C438   C     0.81071   0.71472   0.44287   0.00000  Uiso   1.00
H439   H     0.90642   0.78626   0.04638   0.00000  Uiso   1.00
H440   H     0.79314   0.68654   0.45688   0.00000  Uiso   1.00
C441   C     0.83453   0.74945   0.02659   0.00000  Uiso   1.00
C442   C     0.83430   0.74904   0.47341   0.00000  Uiso   1.00
Br443  Br    0.98919   0.80898   0.19555   0.00000  Uiso   1.00
Br444  Br    0.67886   0.69457   0.30856   0.00000  Uiso   1.00
Br445  Br    0.88701   0.61184   0.16390   0.00000  Uiso   1.00
Br446  Br    0.73233   0.87893   0.28666   0.00000  Uiso   1.00
C447   C     0.75237   0.70533   0.11237   0.00000  Uiso   1.00
C448   C     0.76097   0.66146   0.12651   0.00000  Uiso   1.00
C449   C     0.72384   0.63962   0.14788   0.00000  Uiso   1.00
C450   C     0.67669   0.66088   0.15260   0.00000  Uiso   1.00
C451   C     0.99841   0.70247   0.13299   0.00000  Uiso   1.00
C452   C     0.70287   0.72480   0.11254   0.00000  Uiso   1.00
H453   H     0.79673   0.64468   0.12162   0.00000  Uiso   1.00
H454   H     0.73191   0.60660   0.16134   0.00000  Uiso   1.00
H455   H     0.98293   0.64514   0.17174   0.00000  Uiso   1.00
H456   H     0.96106   0.71807   0.13548   0.00000  Uiso   1.00
H457   H     0.69462   0.75789   0.09929   0.00000  Uiso   1.00
C458   C     0.88539   0.81951   0.38435   0.00000  Uiso   1.00
C459   C     0.93729   0.81281   0.37703   0.00000  Uiso   1.00
C460   C     0.96569   0.84790   0.36292   0.00000  Uiso   1.00
C461   C     0.94286   0.89016   0.35711   0.00000  Uiso   1.00
C462   C     0.89175   0.89747   0.36607   0.00000  Uiso   1.00
C463   C     0.86315   0.86235   0.38006   0.00000  Uiso   1.00
H464   H     0.95588   0.78053   0.38267   0.00000  Uiso   1.00
H465   H     0.67228   0.84235   0.35718   0.00000  Uiso   1.00
H466   H     0.96491   0.91733   0.34617   0.00000  Uiso   1.00
H467   H     0.87429   0.93032   0.36211   0.00000  Uiso   1.00
H468   H     0.82372   0.86841   0.38728   0.00000  Uiso   1.00
O469   O     0.16667   0.18453   0.78974   0.00000  Uiso   1.00
O470   O     0.16666   0.31546   0.71026   0.00000  Uiso   1.00
O471   O     0.16667   0.18453   0.71026   0.00000  Uiso   1.00
O472   O     0.16666   0.31547   0.78974   0.00000  Uiso   1.00
C473   C     0.16723   0.16375   0.74937   0.00000  Uiso   1.00
C474   C     0.16629   0.33578   0.75075   0.00000  Uiso   1.00
O475   O     0.09058   0.25000   0.78045   0.00000  Uiso   1.00
O476   O     0.24275   0.25000   0.71956   0.00000  Uiso   1.00
O477   O     0.09058   0.24999   0.70097   0.00000  Uiso   1.00
O478   O     0.24275   0.25000   0.79904   0.00000  Uiso   1.00
C479   C     0.06722   0.25054   0.73812   0.00000  Uiso   1.00
C480   C     0.26614   0.24980   0.76204   0.00000  Uiso   1.00
Zn481  Zn    0.16667   0.25000   0.80307   0.00000  Uiso   1.00
Zn482  Zn    0.16667   0.24999   0.69693   0.00000  Uiso   1.00
C483   C     0.01348   0.25953   0.73460   0.00000  Uiso   1.00
C484   C     0.32012   0.24172   0.76639   0.00000  Uiso   1.00
C485   C     0.14866   0.04925   0.78901   0.00000  Uiso   1.00
C486   C     0.21139   0.45063   0.74280   0.00000  Uiso   1.00
H487   H     0.13475   0.03428   0.81883   0.00000  Uiso   1.00
H488   H     0.24546   0.46704   0.73388   0.00000  Uiso   1.00
C489   C     0.14735   0.09504   0.78613   0.00000  Uiso   1.00
C490   C     0.20975   0.40468   0.74047   0.00000  Uiso   1.00
H491   H     0.13144   0.11451   0.81355   0.00000  Uiso   1.00
H492   H     0.24230   0.38584   0.72969   0.00000  Uiso   1.00
C493   C     0.16694   0.11543   0.74883   0.00000  Uiso   1.00
C494   C     0.16660   0.38322   0.75288   0.00000  Uiso   1.00
C495   C     0.18724   0.08907   0.71370   0.00000  Uiso   1.00
C496   C     0.12504   0.40725   0.76823   0.00000  Uiso   1.00
C497   C     0.18670   0.04320   0.71604   0.00000  Uiso   1.00
C498   C     0.12604   0.45327   0.76901   0.00000  Uiso   1.00
H499   H     0.20122   0.02308   0.68833   0.00000  Uiso   1.00
H500   H     0.09282   0.47188   0.77868   0.00000  Uiso   1.00
C501   C     0.16830   0.02323   0.75389   0.00000  Uiso   1.00
C502   C     0.16895   0.47506   0.75598   0.00000  Uiso   1.00
C503   C     0.12765   0.22947   0.54598   0.00000  Uiso   1.00
C504   C     0.19049   0.28366   0.95222   0.00000  Uiso   1.00
H505   H     0.09574   0.21377   0.52300   0.00000  Uiso   1.00
H506   H     0.20846   0.31121   0.97377   0.00000  Uiso   1.00
C507   C     0.12769   0.22953   0.59531   0.00000  Uiso   1.00
C508   C     0.19048   0.28349   0.90286   0.00000  Uiso   1.00
N509   N     0.16667   0.24999   0.62624   0.00000  Uiso   1.00
N510   N     0.16667   0.25001   0.87377   0.00000  Uiso   1.00
C511   C     0.20533   0.27093   0.60804   0.00000  Uiso   1.00
C512   C     0.14366   0.21604   0.89340   0.00000  Uiso   1.00
H513   H     0.23519   0.28795   0.63168   0.00000  Uiso   1.00
H514   H     0.12530   0.18944   0.87077   0.00000  Uiso   1.00
C515   C     0.20722   0.27048   0.55879   0.00000  Uiso   1.00
C516   C     0.14404   0.21472   0.94287   0.00000  Uiso   1.00
H517   H     0.23976   0.28626   0.54638   0.00000  Uiso   1.00
H518   H     0.12647   0.18654   0.95688   0.00000  Uiso   1.00
C519   C     0.16786   0.24945   0.52659   0.00000  Uiso   1.00
C520   C     0.16763   0.24904   0.97341   0.00000  Uiso   1.00
Br521  Br    0.32252   0.30898   0.69555   0.00000  Uiso   1.00
Br522  Br    0.01219   0.19457   0.80856   0.00000  Uiso   1.00
Br523  Br    0.22034   0.11184   0.66390   0.00000  Uiso   1.00
Br524  Br    0.06566   0.37893   0.78666   0.00000  Uiso   1.00
C525   C     0.08570   0.20533   0.61237   0.00000  Uiso   1.00
C526   C     0.09430   0.16146   0.62651   0.00000  Uiso   1.00
C527   C     0.05718   0.13962   0.64788   0.00000  Uiso   1.00
C528   C     0.01002   0.16088   0.65260   0.00000  Uiso   1.00
C529   C     0.33174   0.20247   0.63299   0.00000  Uiso   1.00
C530   C     0.03620   0.22480   0.61254   0.00000  Uiso   1.00
H531   H     0.13006   0.14468   0.62162   0.00000  Uiso   1.00
H532   H     0.06524   0.10660   0.66134   0.00000  Uiso   1.00
H533   H     0.31627   0.14514   0.67174   0.00000  Uiso   1.00
H534   H     0.29440   0.21807   0.63548   0.00000  Uiso   1.00
H535   H     0.02795   0.25789   0.59929   0.00000  Uiso   1.00
C536   C     0.21872   0.31951   0.88435   0.00000  Uiso   1.00
C537   C     0.27062   0.31281   0.87703   0.00000  Uiso   1.00
C538   C     0.29902   0.34790   0.86292   0.00000  Uiso   1.00
C539   C     0.27619   0.39016   0.85711   0.00000  Uiso   1.00
C540   C     0.22508   0.39747   0.86607   0.00000  Uiso   1.00
C541   C     0.19648   0.36235   0.88006   0.00000  Uiso   1.00
H542   H     0.28921   0.28053   0.88267   0.00000  Uiso   1.00
H543   H     0.00561   0.34235   0.85718   0.00000  Uiso   1.00
H544   H     0.29824   0.41733   0.84617   0.00000  Uiso   1.00
H545   H     0.20762   0.43032   0.86211   0.00000  Uiso   1.00
H546   H     0.15705   0.36841   0.88728   0.00000  Uiso   1.00
O547   O     0.50000   0.18453   0.78974   0.00000  Uiso   1.00
O548   O     0.50000   0.31546   0.71026   0.00000  Uiso   1.00
O549   O     0.50000   0.18453   0.71026   0.00000  Uiso   1.00
O550   O     0.50000   0.31547   0.78974   0.00000  Uiso   1.00
C551   C     0.50056   0.16375   0.74937   0.00000  Uiso   1.00
C552   C     0.49962   0.33578   0.75075   0.00000  Uiso   1.00
O553   O     0.42392   0.25000   0.78045   0.00000  Uiso   1.00
O554   O     0.57608   0.25000   0.71956   0.00000  Uiso   1.00
O555   O     0.42392   0.24999   0.70097   0.00000  Uiso   1.00
O556   O     0.57608   0.25000   0.79904   0.00000  Uiso   1.00
C557   C     0.40056   0.25054   0.73812   0.00000  Uiso   1.00
C558   C     0.59948   0.24980   0.76204   0.00000  Uiso   1.00
Zn559  Zn    0.50000   0.25000   0.80307   0.00000  Uiso   1.00
Zn560  Zn    0.50000   0.24999   0.69693   0.00000  Uiso   1.00
C561   C     0.34682   0.25953   0.73460   0.00000  Uiso   1.00
C562   C     0.65345   0.24172   0.76639   0.00000  Uiso   1.00
C563   C     0.48199   0.04925   0.78901   0.00000  Uiso   1.00
C564   C     0.54472   0.45063   0.74280   0.00000  Uiso   1.00
H565   H     0.46808   0.03428   0.81883   0.00000  Uiso   1.00
H566   H     0.57879   0.46704   0.73388   0.00000  Uiso   1.00
C567   C     0.48068   0.09504   0.78613   0.00000  Uiso   1.00
C568   C     0.54308   0.40468   0.74047   0.00000  Uiso   1.00
H569   H     0.46478   0.11451   0.81355   0.00000  Uiso   1.00
H570   H     0.57563   0.38584   0.72969   0.00000  Uiso   1.00
C571   C     0.50027   0.11543   0.74883   0.00000  Uiso   1.00
C572   C     0.49993   0.38322   0.75288   0.00000  Uiso   1.00
C573   C     0.52057   0.08907   0.71370   0.00000  Uiso   1.00
C574   C     0.45838   0.40725   0.76823   0.00000  Uiso   1.00
C575   C     0.52004   0.04320   0.71604   0.00000  Uiso   1.00
C576   C     0.45937   0.45327   0.76901   0.00000  Uiso   1.00
H577   H     0.53456   0.02308   0.68833   0.00000  Uiso   1.00
H578   H     0.42616   0.47188   0.77868   0.00000  Uiso   1.00
C579   C     0.50163   0.02323   0.75389   0.00000  Uiso   1.00
C580   C     0.50229   0.47506   0.75598   0.00000  Uiso   1.00
C581   C     0.46099   0.22947   0.54598   0.00000  Uiso   1.00
C582   C     0.52383   0.28366   0.95222   0.00000  Uiso   1.00
H583   H     0.42908   0.21377   0.52300   0.00000  Uiso   1.00
H584   H     0.54179   0.31121   0.97377   0.00000  Uiso   1.00
C585   C     0.46102   0.22953   0.59531   0.00000  Uiso   1.00
C586   C     0.52381   0.28349   0.90286   0.00000  Uiso   1.00
N587   N     0.50000   0.24999   0.62624   0.00000  Uiso   1.00
N588   N     0.50000   0.25001   0.87377   0.00000  Uiso   1.00
C589   C     0.53867   0.27093   0.60804   0.00000  Uiso   1.00
C590   C     0.47699   0.21604   0.89340   0.00000  Uiso   1.00
H591   H     0.56852   0.28795   0.63168   0.00000  Uiso   1.00
H592   H     0.45863   0.18944   0.87077   0.00000  Uiso   1.00
C593   C     0.54055   0.27048   0.55879   0.00000  Uiso   1.00
C594   C     0.47738   0.21472   0.94287   0.00000  Uiso   1.00
H595   H     0.57309   0.28626   0.54638   0.00000  Uiso   1.00
H596   H     0.45981   0.18654   0.95688   0.00000  Uiso   1.00
C597   C     0.50120   0.24945   0.52659   0.00000  Uiso   1.00
C598   C     0.50096   0.24904   0.97341   0.00000  Uiso   1.00
Br599  Br    0.65585   0.30898   0.69555   0.00000  Uiso   1.00
Br600  Br    0.34553   0.19457   0.80856   0.00000  Uiso   1.00
Br601  Br    0.55368   0.11184   0.66390   0.00000  Uiso   1.00
Br602  Br    0.39899   0.37893   0.78666   0.00000  Uiso   1.00
C603   C     0.41904   0.20533   0.61237   0.00000  Uiso   1.00
C604   C     0.42763   0.16146   0.62651   0.00000  Uiso   1.00
C605   C     0.39051   0.13962   0.64788   0.00000  Uiso   1.00
C606   C     0.34335   0.16088   0.65260   0.00000  Uiso   1.00
C607   C     0.66508   0.20247   0.63299   0.00000  Uiso   1.00
C608   C     0.36954   0.22480   0.61254   0.00000  Uiso   1.00
H609   H     0.46340   0.14468   0.62162   0.00000  Uiso   1.00
H610   H     0.39858   0.10660   0.66134   0.00000  Uiso   1.00
H611   H     0.64960   0.14514   0.67174   0.00000  Uiso   1.00
H612   H     0.62773   0.21807   0.63548   0.00000  Uiso   1.00
H613   H     0.36128   0.25789   0.59929   0.00000  Uiso   1.00
C614   C     0.55205   0.31951   0.88435   0.00000  Uiso   1.00
C615   C     0.60395   0.31281   0.87703   0.00000  Uiso   1.00
C616   C     0.63236   0.34790   0.86292   0.00000  Uiso   1.00
C617   C     0.60952   0.39016   0.85711   0.00000  Uiso   1.00
C618   C     0.55842   0.39747   0.86607   0.00000  Uiso   1.00
C619   C     0.52981   0.36235   0.88006   0.00000  Uiso   1.00
H620   H     0.62255   0.28053   0.88267   0.00000  Uiso   1.00
H621   H     0.33895   0.34235   0.85718   0.00000  Uiso   1.00
H622   H     0.63158   0.41733   0.84617   0.00000  Uiso   1.00
H623   H     0.54096   0.43032   0.86211   0.00000  Uiso   1.00
H624   H     0.49038   0.36841   0.88728   0.00000  Uiso   1.00
O625   O     0.83334   0.18453   0.78974   0.00000  Uiso   1.00
O626   O     0.83333   0.31546   0.71026   0.00000  Uiso   1.00
O627   O     0.83334   0.18453   0.71026   0.00000  Uiso   1.00
O628   O     0.83333   0.31547   0.78974   0.00000  Uiso   1.00
C629   C     0.83390   0.16375   0.74937   0.00000  Uiso   1.00
C630   C     0.83295   0.33578   0.75075   0.00000  Uiso   1.00
O631   O     0.75725   0.25000   0.78045   0.00000  Uiso   1.00
O632   O     0.90942   0.25000   0.71956   0.00000  Uiso   1.00
O633   O     0.75725   0.24999   0.70097   0.00000  Uiso   1.00
O634   O     0.90942   0.25000   0.79904   0.00000  Uiso   1.00
C635   C     0.73389   0.25054   0.73812   0.00000  Uiso   1.00
C636   C     0.93281   0.24980   0.76204   0.00000  Uiso   1.00
Zn637  Zn    0.83333   0.25000   0.80307   0.00000  Uiso   1.00
Zn638  Zn    0.83333   0.24999   0.69693   0.00000  Uiso   1.00
C639   C     0.68015   0.25953   0.73460   0.00000  Uiso   1.00
C640   C     0.98679   0.24172   0.76639   0.00000  Uiso   1.00
C641   C     0.81533   0.04925   0.78901   0.00000  Uiso   1.00
C642   C     0.87806   0.45063   0.74280   0.00000  Uiso   1.00
H643   H     0.80142   0.03428   0.81883   0.00000  Uiso   1.00
H644   H     0.91213   0.46704   0.73388   0.00000  Uiso   1.00
C645   C     0.81401   0.09504   0.78613   0.00000  Uiso   1.00
C646   C     0.87641   0.40468   0.74047   0.00000  Uiso   1.00
H647   H     0.79811   0.11451   0.81355   0.00000  Uiso   1.00
H648   H     0.90896   0.38584   0.72969   0.00000  Uiso   1.00
C649   C     0.83360   0.11543   0.74883   0.00000  Uiso   1.00
C650   C     0.83326   0.38322   0.75288   0.00000  Uiso   1.00
C651   C     0.85390   0.08907   0.71370   0.00000  Uiso   1.00
C652   C     0.79171   0.40725   0.76823   0.00000  Uiso   1.00
C653   C     0.85337   0.04320   0.71604   0.00000  Uiso   1.00
C654   C     0.79271   0.45327   0.76901   0.00000  Uiso   1.00
H655   H     0.86789   0.02308   0.68833   0.00000  Uiso   1.00
H656   H     0.75949   0.47188   0.77868   0.00000  Uiso   1.00
C657   C     0.83496   0.02323   0.75389   0.00000  Uiso   1.00
C658   C     0.83562   0.47506   0.75598   0.00000  Uiso   1.00
C659   C     0.79432   0.22947   0.54598   0.00000  Uiso   1.00
C660   C     0.85716   0.28366   0.95222   0.00000  Uiso   1.00
H661   H     0.76241   0.21377   0.52300   0.00000  Uiso   1.00
H662   H     0.87512   0.31121   0.97377   0.00000  Uiso   1.00
C663   C     0.79436   0.22953   0.59531   0.00000  Uiso   1.00
C664   C     0.85715   0.28349   0.90286   0.00000  Uiso   1.00
N665   N     0.83333   0.24999   0.62624   0.00000  Uiso   1.00
N666   N     0.83333   0.25001   0.87377   0.00000  Uiso   1.00
C667   C     0.87200   0.27093   0.60804   0.00000  Uiso   1.00
C668   C     0.81032   0.21604   0.89340   0.00000  Uiso   1.00
H669   H     0.90185   0.28795   0.63168   0.00000  Uiso   1.00
H670   H     0.79196   0.18944   0.87077   0.00000  Uiso   1.00
C671   C     0.87388   0.27048   0.55879   0.00000  Uiso   1.00
C672   C     0.81071   0.21472   0.94287   0.00000  Uiso   1.00
H673   H     0.90642   0.28626   0.54638   0.00000  Uiso   1.00
H674   H     0.79314   0.18654   0.95688   0.00000  Uiso   1.00
C675   C     0.83453   0.24945   0.52659   0.00000  Uiso   1.00
C676   C     0.83430   0.24904   0.97341   0.00000  Uiso   1.00
Br677  Br    0.98919   0.30898   0.69555   0.00000  Uiso   1.00
Br678  Br    0.67886   0.19457   0.80856   0.00000  Uiso   1.00
Br679  Br    0.88701   0.11184   0.66390   0.00000  Uiso   1.00
Br680  Br    0.73233   0.37893   0.78666   0.00000  Uiso   1.00
C681   C     0.75237   0.20533   0.61237   0.00000  Uiso   1.00
C682   C     0.76097   0.16146   0.62651   0.00000  Uiso   1.00
C683   C     0.72384   0.13962   0.64788   0.00000  Uiso   1.00
C684   C     0.67669   0.16088   0.65260   0.00000  Uiso   1.00
C685   C     0.99841   0.20247   0.63299   0.00000  Uiso   1.00
C686   C     0.70287   0.22480   0.61254   0.00000  Uiso   1.00
H687   H     0.79673   0.14468   0.62162   0.00000  Uiso   1.00
H688   H     0.73191   0.10660   0.66134   0.00000  Uiso   1.00
H689   H     0.98293   0.14514   0.67174   0.00000  Uiso   1.00
H690   H     0.96106   0.21807   0.63548   0.00000  Uiso   1.00
H691   H     0.69462   0.25789   0.59929   0.00000  Uiso   1.00
C692   C     0.88539   0.31951   0.88435   0.00000  Uiso   1.00
C693   C     0.93729   0.31281   0.87703   0.00000  Uiso   1.00
C694   C     0.96569   0.34790   0.86292   0.00000  Uiso   1.00
C695   C     0.94286   0.39016   0.85711   0.00000  Uiso   1.00
C696   C     0.89175   0.39747   0.86607   0.00000  Uiso   1.00
C697   C     0.86315   0.36235   0.88006   0.00000  Uiso   1.00
H698   H     0.95588   0.28053   0.88267   0.00000  Uiso   1.00
H699   H     0.67228   0.34235   0.85718   0.00000  Uiso   1.00
H700   H     0.96491   0.41733   0.84617   0.00000  Uiso   1.00
H701   H     0.87429   0.43032   0.86211   0.00000  Uiso   1.00
H702   H     0.82372   0.36841   0.88728   0.00000  Uiso   1.00
O703   O     0.16667   0.68453   0.78974   0.00000  Uiso   1.00
O704   O     0.16666   0.81546   0.71026   0.00000  Uiso   1.00
O705   O     0.16667   0.68453   0.71026   0.00000  Uiso   1.00
O706   O     0.16666   0.81547   0.78974   0.00000  Uiso   1.00
C707   C     0.16723   0.66375   0.74937   0.00000  Uiso   1.00
C708   C     0.16629   0.83578   0.75075   0.00000  Uiso   1.00
O709   O     0.09058   0.75000   0.78045   0.00000  Uiso   1.00
O710   O     0.24275   0.75000   0.71956   0.00000  Uiso   1.00
O711   O     0.09058   0.74999   0.70097   0.00000  Uiso   1.00
O712   O     0.24275   0.75000   0.79904   0.00000  Uiso   1.00
C713   C     0.06722   0.75054   0.73812   0.00000  Uiso   1.00
C714   C     0.26614   0.74980   0.76204   0.00000  Uiso   1.00
Zn715  Zn    0.16667   0.75000   0.80307   0.00000  Uiso   1.00
Zn716  Zn    0.16667   0.74999   0.69693   0.00000  Uiso   1.00
C717   C     0.01348   0.75953   0.73460   0.00000  Uiso   1.00
C718   C     0.32012   0.74172   0.76639   0.00000  Uiso   1.00
C719   C     0.14866   0.54925   0.78901   0.00000  Uiso   1.00
C720   C     0.21139   0.95063   0.74280   0.00000  Uiso   1.00
H721   H     0.13475   0.53428   0.81883   0.00000  Uiso   1.00
H722   H     0.24546   0.96704   0.73388   0.00000  Uiso   1.00
C723   C     0.14735   0.59504   0.78613   0.00000  Uiso   1.00
C724   C     0.20975   0.90468   0.74047   0.00000  Uiso   1.00
H725   H     0.13144   0.61451   0.81355   0.00000  Uiso   1.00
H726   H     0.24230   0.88584   0.72969   0.00000  Uiso   1.00
C727   C     0.16694   0.61543   0.74883   0.00000  Uiso   1.00
C728   C     0.16660   0.88322   0.75288   0.00000  Uiso   1.00
C729   C     0.18724   0.58907   0.71370   0.00000  Uiso   1.00
C730   C     0.12504   0.90725   0.76823   0.00000  Uiso   1.00
C731   C     0.18670   0.54320   0.71604   0.00000  Uiso   1.00
C732   C     0.12604   0.95327   0.76901   0.00000  Uiso   1.00
H733   H     0.20122   0.52308   0.68833   0.00000  Uiso   1.00
H734   H     0.09282   0.97188   0.77868   0.00000  Uiso   1.00
C735   C     0.16830   0.52323   0.75389   0.00000  Uiso   1.00
C736   C     0.16895   0.97506   0.75598   0.00000  Uiso   1.00
C737   C     0.12765   0.72947   0.54598   0.00000  Uiso   1.00
C738   C     0.19049   0.78366   0.95222   0.00000  Uiso   1.00
H739   H     0.09574   0.71377   0.52300   0.00000  Uiso   1.00
H740   H     0.20846   0.81121   0.97377   0.00000  Uiso   1.00
C741   C     0.12769   0.72953   0.59531   0.00000  Uiso   1.00
C742   C     0.19048   0.78349   0.90286   0.00000  Uiso   1.00
N743   N     0.16667   0.74999   0.62624   0.00000  Uiso   1.00
N744   N     0.16667   0.75001   0.87377   0.00000  Uiso   1.00
C745   C     0.20533   0.77093   0.60804   0.00000  Uiso   1.00
C746   C     0.14366   0.71604   0.89340   0.00000  Uiso   1.00
H747   H     0.23519   0.78795   0.63168   0.00000  Uiso   1.00
H748   H     0.12530   0.68944   0.87077   0.00000  Uiso   1.00
C749   C     0.20722   0.77048   0.55879   0.00000  Uiso   1.00
C750   C     0.14404   0.71472   0.94287   0.00000  Uiso   1.00
H751   H     0.23976   0.78626   0.54638   0.00000  Uiso   1.00
H752   H     0.12647   0.68654   0.95688   0.00000  Uiso   1.00
C753   C     0.16786   0.74945   0.52659   0.00000  Uiso   1.00
C754   C     0.16763   0.74904   0.97341   0.00000  Uiso   1.00
Br755  Br    0.32252   0.80898   0.69555   0.00000  Uiso   1.00
Br756  Br    0.01219   0.69457   0.80856   0.00000  Uiso   1.00
Br757  Br    0.22034   0.61184   0.66390   0.00000  Uiso   1.00
Br758  Br    0.06566   0.87893   0.78666   0.00000  Uiso   1.00
C759   C     0.08570   0.70533   0.61237   0.00000  Uiso   1.00
C760   C     0.09430   0.66146   0.62651   0.00000  Uiso   1.00
C761   C     0.05718   0.63962   0.64788   0.00000  Uiso   1.00
C762   C     0.01002   0.66088   0.65260   0.00000  Uiso   1.00
C763   C     0.33174   0.70247   0.63299   0.00000  Uiso   1.00
C764   C     0.03620   0.72480   0.61254   0.00000  Uiso   1.00
H765   H     0.13006   0.64468   0.62162   0.00000  Uiso   1.00
H766   H     0.06524   0.60660   0.66134   0.00000  Uiso   1.00
H767   H     0.31627   0.64514   0.67174   0.00000  Uiso   1.00
H768   H     0.29440   0.71807   0.63548   0.00000  Uiso   1.00
H769   H     0.02795   0.75789   0.59929   0.00000  Uiso   1.00
C770   C     0.21872   0.81951   0.88435   0.00000  Uiso   1.00
C771   C     0.27062   0.81281   0.87703   0.00000  Uiso   1.00
C772   C     0.29902   0.84790   0.86292   0.00000  Uiso   1.00
C773   C     0.27619   0.89016   0.85711   0.00000  Uiso   1.00
C774   C     0.22508   0.89747   0.86607   0.00000  Uiso   1.00
C775   C     0.19648   0.86235   0.88006   0.00000  Uiso   1.00
H776   H     0.28921   0.78053   0.88267   0.00000  Uiso   1.00
H777   H     0.00561   0.84235   0.85718   0.00000  Uiso   1.00
H778   H     0.29824   0.91733   0.84617   0.00000  Uiso   1.00
H779   H     0.20762   0.93032   0.86211   0.00000  Uiso   1.00
H780   H     0.15705   0.86841   0.88728   0.00000  Uiso   1.00
O781   O     0.50000   0.68453   0.78974   0.00000  Uiso   1.00
O782   O     0.50000   0.81546   0.71026   0.00000  Uiso   1.00
O783   O     0.50000   0.68453   0.71026   0.00000  Uiso   1.00
O784   O     0.50000   0.81547   0.78974   0.00000  Uiso   1.00
C785   C     0.50056   0.66375   0.74937   0.00000  Uiso   1.00
C786   C     0.49962   0.83578   0.75075   0.00000  Uiso   1.00
O787   O     0.42392   0.75000   0.78045   0.00000  Uiso   1.00
O788   O     0.57608   0.75000   0.71956   0.00000  Uiso   1.00
O789   O     0.42392   0.74999   0.70097   0.00000  Uiso   1.00
O790   O     0.57608   0.75000   0.79904   0.00000  Uiso   1.00
C791   C     0.40056   0.75054   0.73812   0.00000  Uiso   1.00
C792   C     0.59948   0.74980   0.76204   0.00000  Uiso   1.00
Zn793  Zn    0.50000   0.75000   0.80307   0.00000  Uiso   1.00
Zn794  Zn    0.50000   0.74999   0.69693   0.00000  Uiso   1.00
C795   C     0.34682   0.75953   0.73460   0.00000  Uiso   1.00
C796   C     0.65345   0.74172   0.76639   0.00000  Uiso   1.00
C797   C     0.48199   0.54925   0.78901   0.00000  Uiso   1.00
C798   C     0.54472   0.95063   0.74280   0.00000  Uiso   1.00
H799   H     0.46808   0.53428   0.81883   0.00000  Uiso   1.00
H800   H     0.57879   0.96704   0.73388   0.00000  Uiso   1.00
C801   C     0.48068   0.59504   0.78613   0.00000  Uiso   1.00
C802   C     0.54308   0.90468   0.74047   0.00000  Uiso   1.00
H803   H     0.46478   0.61451   0.81355   0.00000  Uiso   1.00
H804   H     0.57563   0.88584   0.72969   0.00000  Uiso   1.00
C805   C     0.50027   0.61543   0.74883   0.00000  Uiso   1.00
C806   C     0.49993   0.88322   0.75288   0.00000  Uiso   1.00
C807   C     0.52057   0.58907   0.71370   0.00000  Uiso   1.00
C808   C     0.45838   0.90725   0.76823   0.00000  Uiso   1.00
C809   C     0.52004   0.54320   0.71604   0.00000  Uiso   1.00
C810   C     0.45937   0.95327   0.76901   0.00000  Uiso   1.00
H811   H     0.53456   0.52308   0.68833   0.00000  Uiso   1.00
H812   H     0.42616   0.97188   0.77868   0.00000  Uiso   1.00
C813   C     0.50163   0.52323   0.75389   0.00000  Uiso   1.00
C814   C     0.50229   0.97506   0.75598   0.00000  Uiso   1.00
C815   C     0.46099   0.72947   0.54598   0.00000  Uiso   1.00
C816   C     0.52383   0.78366   0.95222   0.00000  Uiso   1.00
H817   H     0.42908   0.71377   0.52300   0.00000  Uiso   1.00
H818   H     0.54179   0.81121   0.97377   0.00000  Uiso   1.00
C819   C     0.46102   0.72953   0.59531   0.00000  Uiso   1.00
C820   C     0.52381   0.78349   0.90286   0.00000  Uiso   1.00
N821   N     0.50000   0.74999   0.62624   0.00000  Uiso   1.00
N822   N     0.50000   0.75001   0.87377   0.00000  Uiso   1.00
C823   C     0.53867   0.77093   0.60804   0.00000  Uiso   1.00
C824   C     0.47699   0.71604   0.89340   0.00000  Uiso   1.00
H825   H     0.56852   0.78795   0.63168   0.00000  Uiso   1.00
H826   H     0.45863   0.68944   0.87077   0.00000  Uiso   1.00
C827   C     0.54055   0.77048   0.55879   0.00000  Uiso   1.00
C828   C     0.47738   0.71472   0.94287   0.00000  Uiso   1.00
H829   H     0.57309   0.78626   0.54638   0.00000  Uiso   1.00
H830   H     0.45981   0.68654   0.95688   0.00000  Uiso   1.00
C831   C     0.50120   0.74945   0.52659   0.00000  Uiso   1.00
C832   C     0.50096   0.74904   0.97341   0.00000  Uiso   1.00
Br833  Br    0.65585   0.80898   0.69555   0.00000  Uiso   1.00
Br834  Br    0.34553   0.69457   0.80856   0.00000  Uiso   1.00
Br835  Br    0.55368   0.61184   0.66390   0.00000  Uiso   1.00
Br836  Br    0.39899   0.87893   0.78666   0.00000  Uiso   1.00
C837   C     0.41904   0.70533   0.61237   0.00000  Uiso   1.00
C838   C     0.42763   0.66146   0.62651   0.00000  Uiso   1.00
C839   C     0.39051   0.63962   0.64788   0.00000  Uiso   1.00
C840   C     0.34335   0.66088   0.65260   0.00000  Uiso   1.00
C841   C     0.66508   0.70247   0.63299   0.00000  Uiso   1.00
C842   C     0.36954   0.72480   0.61254   0.00000  Uiso   1.00
H843   H     0.46340   0.64468   0.62162   0.00000  Uiso   1.00
H844   H     0.39858   0.60660   0.66134   0.00000  Uiso   1.00
H845   H     0.64960   0.64514   0.67174   0.00000  Uiso   1.00
H846   H     0.62773   0.71807   0.63548   0.00000  Uiso   1.00
H847   H     0.36128   0.75789   0.59929   0.00000  Uiso   1.00
C848   C     0.55205   0.81951   0.88435   0.00000  Uiso   1.00
C849   C     0.60395   0.81281   0.87703   0.00000  Uiso   1.00
C850   C     0.63236   0.84790   0.86292   0.00000  Uiso   1.00
C851   C     0.60952   0.89016   0.85711   0.00000  Uiso   1.00
C852   C     0.55842   0.89747   0.86607   0.00000  Uiso   1.00
C853   C     0.52981   0.86235   0.88006   0.00000  Uiso   1.00
H854   H     0.62255   0.78053   0.88267   0.00000  Uiso   1.00
H855   H     0.33895   0.84235   0.85718   0.00000  Uiso   1.00
H856   H     0.63158   0.91733   0.84617   0.00000  Uiso   1.00
H857   H     0.54096   0.93032   0.86211   0.00000  Uiso   1.00
H858   H     0.49038   0.86841   0.88728   0.00000  Uiso   1.00
O859   O     0.83334   0.68453   0.78974   0.00000  Uiso   1.00
O860   O     0.83333   0.81546   0.71026   0.00000  Uiso   1.00
O861   O     0.83334   0.68453   0.71026   0.00000  Uiso   1.00
O862   O     0.83333   0.81547   0.78974   0.00000  Uiso   1.00
C863   C     0.83390   0.66375   0.74937   0.00000  Uiso   1.00
C864   C     0.83295   0.83578   0.75075   0.00000  Uiso   1.00
O865   O     0.75725   0.75000   0.78045   0.00000  Uiso   1.00
O866   O     0.90942   0.75000   0.71956   0.00000  Uiso   1.00
O867   O     0.75725   0.74999   0.70097   0.00000  Uiso   1.00
O868   O     0.90942   0.75000   0.79904   0.00000  Uiso   1.00
C869   C     0.73389   0.75054   0.73812   0.00000  Uiso   1.00
C870   C     0.93281   0.74980   0.76204   0.00000  Uiso   1.00
Zn871  Zn    0.83333   0.75000   0.80307   0.00000  Uiso   1.00
Zn872  Zn    0.83333   0.74999   0.69693   0.00000  Uiso   1.00
C873   C     0.68015   0.75953   0.73460   0.00000  Uiso   1.00
C874   C     0.98679   0.74172   0.76639   0.00000  Uiso   1.00
C875   C     0.81533   0.54925   0.78901   0.00000  Uiso   1.00
C876   C     0.87806   0.95063   0.74280   0.00000  Uiso   1.00
H877   H     0.80142   0.53428   0.81883   0.00000  Uiso   1.00
H878   H     0.91213   0.96704   0.73388   0.00000  Uiso   1.00
C879   C     0.81401   0.59504   0.78613   0.00000  Uiso   1.00
C880   C     0.87641   0.90468   0.74047   0.00000  Uiso   1.00
H881   H     0.79811   0.61451   0.81355   0.00000  Uiso   1.00
H882   H     0.90896   0.88584   0.72969   0.00000  Uiso   1.00
C883   C     0.83360   0.61543   0.74883   0.00000  Uiso   1.00
C884   C     0.83326   0.88322   0.75288   0.00000  Uiso   1.00
C885   C     0.85390   0.58907   0.71370   0.00000  Uiso   1.00
C886   C     0.79171   0.90725   0.76823   0.00000  Uiso   1.00
C887   C     0.85337   0.54320   0.71604   0.00000  Uiso   1.00
C888   C     0.79271   0.95327   0.76901   0.00000  Uiso   1.00
H889   H     0.86789   0.52308   0.68833   0.00000  Uiso   1.00
H890   H     0.75949   0.97188   0.77868   0.00000  Uiso   1.00
C891   C     0.83496   0.52323   0.75389   0.00000  Uiso   1.00
C892   C     0.83562   0.97506   0.75598   0.00000  Uiso   1.00
C893   C     0.79432   0.72947   0.54598   0.00000  Uiso   1.00
C894   C     0.85716   0.78366   0.95222   0.00000  Uiso   1.00
H895   H     0.76241   0.71377   0.52300   0.00000  Uiso   1.00
H896   H     0.87512   0.81121   0.97377   0.00000  Uiso   1.00
C897   C     0.79436   0.72953   0.59531   0.00000  Uiso   1.00
C898   C     0.85715   0.78349   0.90286   0.00000  Uiso   1.00
N899   N     0.83333   0.74999   0.62624   0.00000  Uiso   1.00
N900   N     0.83333   0.75001   0.87377   0.00000  Uiso   1.00
C901   C     0.87200   0.77093   0.60804   0.00000  Uiso   1.00
C902   C     0.81032   0.71604   0.89340   0.00000  Uiso   1.00
H903   H     0.90185   0.78795   0.63168   0.00000  Uiso   1.00
H904   H     0.79196   0.68944   0.87077   0.00000  Uiso   1.00
C905   C     0.87388   0.77048   0.55879   0.00000  Uiso   1.00
C906   C     0.81071   0.71472   0.94287   0.00000  Uiso   1.00
H907   H     0.90642   0.78626   0.54638   0.00000  Uiso   1.00
H908   H     0.79314   0.68654   0.95688   0.00000  Uiso   1.00
C909   C     0.83453   0.74945   0.52659   0.00000  Uiso   1.00
C910   C     0.83430   0.74904   0.97341   0.00000  Uiso   1.00
Br911  Br    0.98919   0.80898   0.69555   0.00000  Uiso   1.00
Br912  Br    0.67886   0.69457   0.80856   0.00000  Uiso   1.00
Br913  Br    0.88701   0.61184   0.66390   0.00000  Uiso   1.00
Br914  Br    0.73233   0.87893   0.78666   0.00000  Uiso   1.00
C915   C     0.75237   0.70533   0.61237   0.00000  Uiso   1.00
C916   C     0.76097   0.66146   0.62651   0.00000  Uiso   1.00
C917   C     0.72384   0.63962   0.64788   0.00000  Uiso   1.00
C918   C     0.67669   0.66088   0.65260   0.00000  Uiso   1.00
C919   C     0.99841   0.70247   0.63299   0.00000  Uiso   1.00
C920   C     0.70287   0.72480   0.61254   0.00000  Uiso   1.00
H921   H     0.79673   0.64468   0.62162   0.00000  Uiso   1.00
H922   H     0.73191   0.60660   0.66134   0.00000  Uiso   1.00
H923   H     0.98293   0.64514   0.67174   0.00000  Uiso   1.00
H924   H     0.96106   0.71807   0.63548   0.00000  Uiso   1.00
H925   H     0.69462   0.75789   0.59929   0.00000  Uiso   1.00
C926   C     0.88539   0.81951   0.88435   0.00000  Uiso   1.00
C927   C     0.93729   0.81281   0.87703   0.00000  Uiso   1.00
C928   C     0.96569   0.84790   0.86292   0.00000  Uiso   1.00
C929   C     0.94286   0.89016   0.85711   0.00000  Uiso   1.00
C930   C     0.89175   0.89747   0.86607   0.00000  Uiso   1.00
C931   C     0.86315   0.86235   0.88006   0.00000  Uiso   1.00
H932   H     0.95588   0.78053   0.88267   0.00000  Uiso   1.00
H933   H     0.67228   0.84235   0.85718   0.00000  Uiso   1.00
H934   H     0.96491   0.91733   0.84617   0.00000  Uiso   1.00
H935   H     0.87429   0.93032   0.86211   0.00000  Uiso   1.00
H936   H     0.82372   0.86841   0.88728   0.00000  Uiso   1.00
loop_
_geom_bond_atom_site_label_1
_geom_bond_atom_site_label_2
_geom_bond_distance
_geom_bond_site_symmetry_2
_ccdc_geom_bond_type
O1     C5      1.291   .     A
O1     Zn13    1.989   .     S
O2     C6      1.287   .     A
O2     Zn14    1.989   .     S
O3     Zn14    2.015   .     S
O3     C5      1.295   .     A
O4     Zn13    2.015   .     S
O4     C6      1.285   .     A
C5     C25     1.450   .     S
C6     C26     1.424   .     S
O7     C11     1.272   .     A
O7     Zn13    1.988   .     S
O8     C12     1.276   .     A
O8     Zn14    1.988   .     S
O9     Zn14    1.993   .     S
O9     C11     1.292   .     A
O10    C12     1.289   .     A
O10    Zn13    1.993   .     S
C11    C15     1.407   .     S
C12    C16     1.407   .     S
Zn13   N42     2.015   .     S
Zn14   N41     2.015   .     S
C15    C172    1.345   1_455 S
C15    Br209   1.933   1_455 S
C16    C93     1.345   .     S
C16    Br132   1.938   .     S
C17    C33     1.396   .     A
C17    C21     1.380   .     A
C17    H19     1.083   .     S
C18    C34     1.402   .     A
C18    C22     1.380   .     A
C18    H20     1.083   .     S
C21    H23     1.084   .     S
C21    C25     1.404   .     A
C22    H24     1.084   .     S
C22    C26     1.393   .     A
C25    C27     1.410   .     A
C26    C28     1.401   .     A
C27    C29     1.382   .     A
C27    Br55    1.910   .     S
C28    Br56    1.916   .     S
C28    C30     1.382   .     A
C29    C33     1.397   .     A
C29    H31     1.083   .     S
C30    C34     1.400   .     A
C30    H32     1.083   .     S
C33    C268    1.449   1_545 S
C34    C267    1.449   .     S
C35    H37     1.083   .     S
C35    C39     1.406   .     A
C35    C51     1.399   .     A
C36    C52     1.400   .     A
C36    C40     1.407   .     A
C36    H38     1.083   .     S
C39    C57     1.465   .     S
C39    N41     1.380   .     A
C40    N42     1.376   .     A
C40    C68     1.469   .     S
N41    C43     1.363   .     A
N42    C44     1.364   .     A
C43    H45     1.075   .     S
C43    C47     1.411   .     A
C44    H46     1.081   .     S
C44    C48     1.411   .     A
C47    H49     1.081   .     S
C47    C51     1.413   .     A
C48    H50     1.081   .     S
C48    C52     1.413   .     A
C51    C520    1.515   1_554 S
C52    C519    1.515   .     S
Br53   C93     1.933   .     S
Br54   C172    1.938   1_455 S
C57    C62     1.404   .     A
C57    C58     1.397   .     A
C58    C59     1.393   .     A
C58    H63     1.073   .     S
C59    H64     1.083   .     S
C59    C60     1.393   .     A
C60    C217    1.398   1_455 S
C60    H221    1.073   1_455 S
C61    H66     1.080   .     S
C61    C138    1.398   .     S
C61    C140    1.399   .     S
C62    H67     1.083   .     S
C62    C217    1.399   1_455 S
H65    C138    1.073   .     S
C68    C69     1.402   .     A
C68    C73     1.405   .     A
C69    C70     1.397   .     A
C69    H74     1.083   .     S
C70    C71     1.398   .     A
C70    H153    1.081   .     S
C71    H76     1.082   .     S
C71    C72     1.398   .     A
C72    H77     1.082   .     S
C72    C73     1.399   .     A
C73    H78     1.083   .     S
H75    C226    1.081   1_455 S
O79    C83     1.291   .     A
O79    Zn91    1.989   .     S
O80    C84     1.287   .     A
O80    Zn92    1.989   .     S
O81    Zn92    2.015   .     S
O81    C83     1.295   .     A
O82    Zn91    2.015   .     S
O82    C84     1.285   .     A
C83    C103    1.450   .     S
C84    C104    1.424   .     S
O85    C89     1.272   .     A
O85    Zn91    1.988   .     S
O86    C90     1.276   .     A
O86    Zn92    1.988   .     S
O87    Zn92    1.993   .     S
O87    C89     1.292   .     A
O88    C90     1.289   .     A
O88    Zn91    1.993   .     S
C89    C93     1.407   .     S
C90    C94     1.407   .     S
Zn91   N120    2.015   .     S
Zn92   N119    2.015   .     S
C94    C171    1.345   .     S
C94    Br210   1.938   .     S
C95    C111    1.396   .     A
C95    C99     1.380   .     A
C95    H97     1.083   .     S
C96    C112    1.402   .     A
C96    C100    1.380   .     A
C96    H98     1.083   .     S
C99    H101    1.084   .     S
C99    C103    1.404   .     A
C100   H102    1.084   .     S
C100   C104    1.393   .     A
C103   C105    1.410   .     A
C104   C106    1.401   .     A
C105   C107    1.382   .     A
C105   Br133   1.910   .     S
C106   Br134   1.916   .     S
C106   C108    1.382   .     A
C107   C111    1.397   .     A
C107   H109    1.083   .     S
C108   C112    1.400   .     A
C108   H110    1.083   .     S
C111   C346    1.449   1_545 S
C112   C345    1.449   .     S
C113   H115    1.083   .     S
C113   C117    1.406   .     A
C113   C129    1.399   .     A
C114   C130    1.400   .     A
C114   C118    1.407   .     A
C114   H116    1.083   .     S
C117   C135    1.465   .     S
C117   N119    1.380   .     A
C118   N120    1.376   .     A
C118   C146    1.469   .     S
N119   C121    1.363   .     A
N120   C122    1.364   .     A
C121   H123    1.075   .     S
C121   C125    1.411   .     A
C122   H124    1.081   .     S
C122   C126    1.411   .     A
C125   H127    1.081   .     S
C125   C129    1.413   .     A
C126   H128    1.081   .     S
C126   C130    1.413   .     A
C129   C598    1.515   1_554 S
C130   C597    1.515   .     S
Br131  C171    1.933   .     S
C135   C140    1.404   .     A
C135   C136    1.397   .     A
C136   C137    1.393   .     A
C136   H141    1.073   .     S
C137   H142    1.083   .     S
C137   C138    1.393   .     A
C139   H144    1.080   .     S
C139   C216    1.398   .     S
C139   C218    1.399   .     S
C140   H145    1.083   .     S
H143   C216    1.073   .     S
C146   C147    1.402   .     A
C146   C151    1.405   .     A
C147   C148    1.397   .     A
C147   H152    1.083   .     S
C148   C149    1.398   .     A
C148   H231    1.081   .     S
C149   H154    1.082   .     S
C149   C150    1.398   .     A
C150   H155    1.082   .     S
C150   C151    1.399   .     A
C151   H156    1.083   .     S
O157   C161    1.291   .     A
O157   Zn169   1.989   .     S
O158   C162    1.287   .     A
O158   Zn170   1.989   .     S
O159   Zn170   2.015   .     S
O159   C161    1.295   .     A
O160   Zn169   2.015   .     S
O160   C162    1.285   .     A
C161   C181    1.450   .     S
C162   C182    1.424   .     S
O163   C167    1.272   .     A
O163   Zn169   1.988   .     S
O164   C168    1.276   .     A
O164   Zn170   1.988   .     S
O165   Zn170   1.993   .     S
O165   C167    1.292   .     A
O166   C168    1.289   .     A
O166   Zn169   1.993   .     S
C167   C171    1.407   .     S
C168   C172    1.407   .     S
Zn169  N198    2.015   .     S
Zn170  N197    2.015   .     S
C172   C15     1.345   1_655 S
C172   Br54    1.938   1_655 S
C173   C189    1.396   .     A
C173   C177    1.380   .     A
C173   H175    1.083   .     S
C174   C190    1.402   .     A
C174   C178    1.380   .     A
C174   H176    1.083   .     S
C177   H179    1.084   .     S
C177   C181    1.404   .     A
C178   H180    1.084   .     S
C178   C182    1.393   .     A
C181   C183    1.410   .     A
C182   C184    1.401   .     A
C183   C185    1.382   .     A
C183   Br211   1.910   .     S
C184   Br212   1.916   .     S
C184   C186    1.382   .     A
C185   C189    1.397   .     A
C185   H187    1.083   .     S
C186   C190    1.400   .     A
C186   H188    1.083   .     S
C189   C424    1.449   1_545 S
C190   C423    1.449   .     S
C191   H193    1.083   .     S
C191   C195    1.406   .     A
C191   C207    1.399   .     A
C192   C208    1.400   .     A
C192   C196    1.407   .     A
C192   H194    1.083   .     S
C195   C213    1.465   .     S
C195   N197    1.380   .     A
C196   N198    1.376   .     A
C196   C224    1.469   .     S
N197   C199    1.363   .     A
N198   C200    1.364   .     A
C199   H201    1.075   .     S
C199   C203    1.411   .     A
C200   H202    1.081   .     S
C200   C204    1.411   .     A
C203   H205    1.081   .     S
C203   C207    1.413   .     A
C204   H206    1.081   .     S
C204   C208    1.413   .     A
C207   C676    1.515   1_554 S
C208   C675    1.515   .     S
Br209  C15     1.933   1_655 S
C213   C218    1.404   .     A
C213   C214    1.397   .     A
C214   C215    1.393   .     A
C214   H219    1.073   .     S
C215   H220    1.083   .     S
C215   C216    1.393   .     A
C217   H222    1.080   .     S
C217   C60     1.398   1_655 S
C217   C62     1.399   1_655 S
C218   H223    1.083   .     S
H221   C60     1.073   1_655 S
C224   C225    1.402   .     A
C224   C229    1.405   .     A
C225   C226    1.397   .     A
C225   H230    1.083   .     S
C226   C227    1.398   .     A
C226   H75     1.081   1_655 S
C227   H232    1.082   .     S
C227   C228    1.398   .     A
C228   H233    1.082   .     S
C228   C229    1.399   .     A
C229   H234    1.083   .     S
O235   C239    1.291   .     A
O235   Zn247   1.989   .     S
O236   C240    1.287   .     A
O236   Zn248   1.989   .     S
O237   Zn248   2.015   .     S
O237   C239    1.295   .     A
O238   Zn247   2.015   .     S
O238   C240    1.285   .     A
C239   C259    1.450   .     S
C240   C260    1.424   .     S
O241   C245    1.272   .     A
O241   Zn247   1.988   .     S
O242   C246    1.276   .     A
O242   Zn248   1.988   .     S
O243   Zn248   1.993   .     S
O243   C245    1.292   .     A
O244   C246    1.289   .     A
O244   Zn247   1.993   .     S
C245   C249    1.407   .     S
C246   C250    1.407   .     S
Zn247  N276    2.015   .     S
Zn248  N275    2.015   .     S
C249   C406    1.345   1_455 S
C249   Br443   1.933   1_455 S
C250   C327    1.345   .     S
C250   Br366   1.938   .     S
C251   C267    1.396   .     A
C251   C255    1.380   .     A
C251   H253    1.083   .     S
C252   C268    1.402   .     A
C252   C256    1.380   .     A
C252   H254    1.083   .     S
C255   H257    1.084   .     S
C255   C259    1.404   .     A
C256   H258    1.084   .     S
C256   C260    1.393   .     A
C259   C261    1.410   .     A
C260   C262    1.401   .     A
C261   C263    1.382   .     A
C261   Br289   1.910   .     S
C262   Br290   1.916   .     S
C262   C264    1.382   .     A
C263   C267    1.397   .     A
C263   H265    1.083   .     S
C264   C268    1.400   .     A
C264   H266    1.083   .     S
C268   C33     1.449   1_565 S
C269   H271    1.083   .     S
C269   C273    1.406   .     A
C269   C285    1.399   .     A
C270   C286    1.400   .     A
C270   C274    1.407   .     A
C270   H272    1.083   .     S
C273   C291    1.465   .     S
C273   N275    1.380   .     A
C274   N276    1.376   .     A
C274   C302    1.469   .     S
N275   C277    1.363   .     A
N276   C278    1.364   .     A
C277   H279    1.075   .     S
C277   C281    1.411   .     A
C278   H280    1.081   .     S
C278   C282    1.411   .     A
C281   H283    1.081   .     S
C281   C285    1.413   .     A
C282   H284    1.081   .     S
C282   C286    1.413   .     A
C285   C754    1.515   1_554 S
C286   C753    1.515   .     S
Br287  C327    1.933   .     S
Br288  C406    1.938   1_455 S
C291   C296    1.404   .     A
C291   C292    1.397   .     A
C292   C293    1.393   .     A
C292   H297    1.073   .     S
C293   H298    1.083   .     S
C293   C294    1.393   .     A
C294   C451    1.398   1_455 S
C294   H455    1.073   1_455 S
C295   H300    1.080   .     S
C295   C372    1.398   .     S
C295   C374    1.399   .     S
C296   H301    1.083   .     S
C296   C451    1.399   1_455 S
H299   C372    1.073   .     S
C302   C303    1.402   .     A
C302   C307    1.405   .     A
C303   C304    1.397   .     A
C303   H308    1.083   .     S
C304   C305    1.398   .     A
C304   H387    1.081   .     S
C305   H310    1.082   .     S
C305   C306    1.398   .     A
C306   H311    1.082   .     S
C306   C307    1.399   .     A
C307   H312    1.083   .     S
H309   C460    1.081   1_455 S
O313   C317    1.291   .     A
O313   Zn325   1.989   .     S
O314   C318    1.287   .     A
O314   Zn326   1.989   .     S
O315   Zn326   2.015   .     S
O315   C317    1.295   .     A
O316   Zn325   2.015   .     S
O316   C318    1.285   .     A
C317   C337    1.450   .     S
C318   C338    1.424   .     S
O319   C323    1.272   .     A
O319   Zn325   1.988   .     S
O320   C324    1.276   .     A
O320   Zn326   1.988   .     S
O321   Zn326   1.993   .     S
O321   C323    1.292   .     A
O322   C324    1.289   .     A
O322   Zn325   1.993   .     S
C323   C327    1.407   .     S
C324   C328    1.407   .     S
Zn325  N354    2.015   .     S
Zn326  N353    2.015   .     S
C328   C405    1.345   .     S
C328   Br444   1.938   .     S
C329   C345    1.396   .     A
C329   C333    1.380   .     A
C329   H331    1.083   .     S
C330   C346    1.402   .     A
C330   C334    1.380   .     A
C330   H332    1.083   .     S
C333   H335    1.084   .     S
C333   C337    1.404   .     A
C334   H336    1.084   .     S
C334   C338    1.393   .     A
C337   C339    1.410   .     A
C338   C340    1.401   .     A
C339   C341    1.382   .     A
C339   Br367   1.910   .     S
C340   Br368   1.916   .     S
C340   C342    1.382   .     A
C341   C345    1.397   .     A
C341   H343    1.083   .     S
C342   C346    1.400   .     A
C342   H344    1.083   .     S
C346   C111    1.449   1_565 S
C347   H349    1.083   .     S
C347   C351    1.406   .     A
C347   C363    1.399   .     A
C348   C364    1.400   .     A
C348   C352    1.407   .     A
C348   H350    1.083   .     S
C351   C369    1.465   .     S
C351   N353    1.380   .     A
C352   N354    1.376   .     A
C352   C380    1.469   .     S
N353   C355    1.363   .     A
N354   C356    1.364   .     A
C355   H357    1.075   .     S
C355   C359    1.411   .     A
C356   H358    1.081   .     S
C356   C360    1.411   .     A
C359   H361    1.081   .     S
C359   C363    1.413   .     A
C360   H362    1.081   .     S
C360   C364    1.413   .     A
C363   C832    1.515   1_554 S
C364   C831    1.515   .     S
Br365  C405    1.933   .     S
C369   C374    1.404   .     A
C369   C370    1.397   .     A
C370   C371    1.393   .     A
C370   H375    1.073   .     S
C371   H376    1.083   .     S
C371   C372    1.393   .     A
C373   H378    1.080   .     S
C373   C450    1.398   .     S
C373   C452    1.399   .     S
C374   H379    1.083   .     S
H377   C450    1.073   .     S
C380   C381    1.402   .     A
C380   C385    1.405   .     A
C381   C382    1.397   .     A
C381   H386    1.083   .     S
C382   C383    1.398   .     A
C382   H465    1.081   .     S
C383   H388    1.082   .     S
C383   C384    1.398   .     A
C384   H389    1.082   .     S
C384   C385    1.399   .     A
C385   H390    1.083   .     S
O391   C395    1.291   .     A
O391   Zn403   1.989   .     S
O392   C396    1.287   .     A
O392   Zn404   1.989   .     S
O393   Zn404   2.015   .     S
O393   C395    1.295   .     A
O394   Zn403   2.015   .     S
O394   C396    1.285   .     A
C395   C415    1.450   .     S
C396   C416    1.424   .     S
O397   C401    1.272   .     A
O397   Zn403   1.988   .     S
O398   C402    1.276   .     A
O398   Zn404   1.988   .     S
O399   Zn404   1.993   .     S
O399   C401    1.292   .     A
O400   C402    1.289   .     A
O400   Zn403   1.993   .     S
C401   C405    1.407   .     S
C402   C406    1.407   .     S
Zn403  N432    2.015   .     S
Zn404  N431    2.015   .     S
C406   C249    1.345   1_655 S
C406   Br288   1.938   1_655 S
C407   C423    1.396   .     A
C407   C411    1.380   .     A
C407   H409    1.083   .     S
C408   C424    1.402   .     A
C408   C412    1.380   .     A
C408   H410    1.083   .     S
C411   H413    1.084   .     S
C411   C415    1.404   .     A
C412   H414    1.084   .     S
C412   C416    1.393   .     A
C415   C417    1.410   .     A
C416   C418    1.401   .     A
C417   C419    1.382   .     A
C417   Br445   1.910   .     S
C418   Br446   1.916   .     S
C418   C420    1.382   .     A
C419   C423    1.397   .     A
C419   H421    1.083   .     S
C420   C424    1.400   .     A
C420   H422    1.083   .     S
C424   C189    1.449   1_565 S
C425   H427    1.083   .     S
C425   C429    1.406   .     A
C425   C441    1.399   .     A
C426   C442    1.400   .     A
C426   C430    1.407   .     A
C426   H428    1.083   .     S
C429   C447    1.465   .     S
C429   N431    1.380   .     A
C430   N432    1.376   .     A
C430   C458    1.469   .     S
N431   C433    1.363   .     A
N432   C434    1.364   .     A
C433   H435    1.075   .     S
C433   C437    1.411   .     A
C434   H436    1.081   .     S
C434   C438    1.411   .     A
C437   H439    1.081   .     S
C437   C441    1.413   .     A
C438   H440    1.081   .     S
C438   C442    1.413   .     A
C441   C910    1.515   1_554 S
C442   C909    1.515   .     S
Br443  C249    1.933   1_655 S
C447   C452    1.404   .     A
C447   C448    1.397   .     A
C448   C449    1.393   .     A
C448   H453    1.073   .     S
C449   H454    1.083   .     S
C449   C450    1.393   .     A
C451   H456    1.080   .     S
C451   C294    1.398   1_655 S
C451   C296    1.399   1_655 S
C452   H457    1.083   .     S
H455   C294    1.073   1_655 S
C458   C459    1.402   .     A
C458   C463    1.405   .     A
C459   C460    1.397   .     A
C459   H464    1.083   .     S
C460   C461    1.398   .     A
C460   H309    1.081   1_655 S
C461   H466    1.082   .     S
C461   C462    1.398   .     A
C462   H467    1.082   .     S
C462   C463    1.399   .     A
C463   H468    1.083   .     S
O469   C473    1.291   .     A
O469   Zn481   1.989   .     S
O470   C474    1.287   .     A
O470   Zn482   1.989   .     S
O471   Zn482   2.015   .     S
O471   C473    1.295   .     A
O472   Zn481   2.015   .     S
O472   C474    1.285   .     A
C473   C493    1.450   .     S
C474   C494    1.424   .     S
O475   C479    1.272   .     A
O475   Zn481   1.988   .     S
O476   C480    1.276   .     A
O476   Zn482   1.988   .     S
O477   Zn482   1.993   .     S
O477   C479    1.292   .     A
O478   C480    1.289   .     A
O478   Zn481   1.993   .     S
C479   C483    1.407   .     S
C480   C484    1.407   .     S
Zn481  N510    2.015   .     S
Zn482  N509    2.015   .     S
C483   C640    1.345   1_455 S
C483   Br677   1.933   1_455 S
C484   C561    1.345   .     S
C484   Br600   1.938   .     S
C485   C501    1.396   .     A
C485   C489    1.380   .     A
C485   H487    1.083   .     S
C486   C502    1.402   .     A
C486   C490    1.380   .     A
C486   H488    1.083   .     S
C489   H491    1.084   .     S
C489   C493    1.404   .     A
C490   H492    1.084   .     S
C490   C494    1.393   .     A
C493   C495    1.410   .     A
C494   C496    1.401   .     A
C495   C497    1.382   .     A
C495   Br523   1.910   .     S
C496   Br524   1.916   .     S
C496   C498    1.382   .     A
C497   C501    1.397   .     A
C497   H499    1.083   .     S
C498   C502    1.400   .     A
C498   H500    1.083   .     S
C501   C736    1.449   1_545 S
C502   C735    1.449   .     S
C503   H505    1.083   .     S
C503   C507    1.406   .     A
C503   C519    1.399   .     A
C504   C520    1.400   .     A
C504   C508    1.407   .     A
C504   H506    1.083   .     S
C507   C525    1.465   .     S
C507   N509    1.380   .     A
C508   N510    1.376   .     A
C508   C536    1.469   .     S
N509   C511    1.363   .     A
N510   C512    1.364   .     A
C511   H513    1.075   .     S
C511   C515    1.411   .     A
C512   H514    1.081   .     S
C512   C516    1.411   .     A
C515   H517    1.081   .     S
C515   C519    1.413   .     A
C516   H518    1.081   .     S
C516   C520    1.413   .     A
C520   C51     1.515   1_556 S
Br521  C561    1.933   .     S
Br522  C640    1.938   1_455 S
C525   C530    1.404   .     A
C525   C526    1.397   .     A
C526   C527    1.393   .     A
C526   H531    1.073   .     S
C527   H532    1.083   .     S
C527   C528    1.393   .     A
C528   C685    1.398   1_455 S
C528   H689    1.073   1_455 S
C529   H534    1.080   .     S
C529   C606    1.398   .     S
C529   C608    1.399   .     S
C530   H535    1.083   .     S
C530   C685    1.399   1_455 S
H533   C606    1.073   .     S
C536   C537    1.402   .     A
C536   C541    1.405   .     A
C537   C538    1.397   .     A
C537   H542    1.083   .     S
C538   C539    1.398   .     A
C538   H621    1.081   .     S
C539   H544    1.082   .     S
C539   C540    1.398   .     A
C540   H545    1.082   .     S
C540   C541    1.399   .     A
C541   H546    1.083   .     S
H543   C694    1.081   1_455 S
O547   C551    1.291   .     A
O547   Zn559   1.989   .     S
O548   C552    1.287   .     A
O548   Zn560   1.989   .     S
O549   Zn560   2.015   .     S
O549   C551    1.295   .     A
O550   Zn559   2.015   .     S
O550   C552    1.285   .     A
C551   C571    1.450   .     S
C552   C572    1.424   .     S
O553   C557    1.272   .     A
O553   Zn559   1.988   .     S
O554   C558    1.276   .     A
O554   Zn560   1.988   .     S
O555   Zn560   1.993   .     S
O555   C557    1.292   .     A
O556   C558    1.289   .     A
O556   Zn559   1.993   .     S
C557   C561    1.407   .     S
C558   C562    1.407   .     S
Zn559  N588    2.015   .     S
Zn560  N587    2.015   .     S
C562   C639    1.345   .     S
C562   Br678   1.938   .     S
C563   C579    1.396   .     A
C563   C567    1.380   .     A
C563   H565    1.083   .     S
C564   C580    1.402   .     A
C564   C568    1.380   .     A
C564   H566    1.083   .     S
C567   H569    1.084   .     S
C567   C571    1.404   .     A
C568   H570    1.084   .     S
C568   C572    1.393   .     A
C571   C573    1.410   .     A
C572   C574    1.401   .     A
C573   C575    1.382   .     A
C573   Br601   1.910   .     S
C574   Br602   1.916   .     S
C574   C576    1.382   .     A
C575   C579    1.397   .     A
C575   H577    1.083   .     S
C576   C580    1.400   .     A
C576   H578    1.083   .     S
C579   C814    1.449   1_545 S
C580   C813    1.449   .     S
C581   H583    1.083   .     S
C581   C585    1.406   .     A
C581   C597    1.399   .     A
C582   C598    1.400   .     A
C582   C586    1.407   .     A
C582   H584    1.083   .     S
C585   C603    1.465   .     S
C585   N587    1.380   .     A
C586   N588    1.376   .     A
C586   C614    1.469   .     S
N587   C589    1.363   .     A
N588   C590    1.364   .     A
C589   H591    1.075   .     S
C589   C593    1.411   .     A
C590   H592    1.081   .     S
C590   C594    1.411   .     A
C593   H595    1.081   .     S
C593   C597    1.413   .     A
C594   H596    1.081   .     S
C594   C598    1.413   .     A
C598   C129    1.515   1_556 S
Br599  C639    1.933   .     S
C603   C608    1.404   .     A
C603   C604    1.397   .     A
C604   C605    1.393   .     A
C604   H609    1.073   .     S
C605   H610    1.083   .     S
C605   C606    1.393   .     A
C607   H612    1.080   .     S
C607   C684    1.398   .     S
C607   C686    1.399   .     S
C608   H613    1.083   .     S
H611   C684    1.073   .     S
C614   C615    1.402   .     A
C614   C619    1.405   .     A
C615   C616    1.397   .     A
C615   H620    1.083   .     S
C616   C617    1.398   .     A
C616   H699    1.081   .     S
C617   H622    1.082   .     S
C617   C618    1.398   .     A
C618   H623    1.082   .     S
C618   C619    1.399   .     A
C619   H624    1.083   .     S
O625   C629    1.291   .     A
O625   Zn637   1.989   .     S
O626   C630    1.287   .     A
O626   Zn638   1.989   .     S
O627   Zn638   2.015   .     S
O627   C629    1.295   .     A
O628   Zn637   2.015   .     S
O628   C630    1.285   .     A
C629   C649    1.450   .     S
C630   C650    1.424   .     S
O631   C635    1.272   .     A
O631   Zn637   1.988   .     S
O632   C636    1.276   .     A
O632   Zn638   1.988   .     S
O633   Zn638   1.993   .     S
O633   C635    1.292   .     A
O634   C636    1.289   .     A
O634   Zn637   1.993   .     S
C635   C639    1.407   .     S
C636   C640    1.407   .     S
Zn637  N666    2.015   .     S
Zn638  N665    2.015   .     S
C640   C483    1.345   1_655 S
C640   Br522   1.938   1_655 S
C641   C657    1.396   .     A
C641   C645    1.380   .     A
C641   H643    1.083   .     S
C642   C658    1.402   .     A
C642   C646    1.380   .     A
C642   H644    1.083   .     S
C645   H647    1.084   .     S
C645   C649    1.404   .     A
C646   H648    1.084   .     S
C646   C650    1.393   .     A
C649   C651    1.410   .     A
C650   C652    1.401   .     A
C651   C653    1.382   .     A
C651   Br679   1.910   .     S
C652   Br680   1.916   .     S
C652   C654    1.382   .     A
C653   C657    1.397   .     A
C653   H655    1.083   .     S
C654   C658    1.400   .     A
C654   H656    1.083   .     S
C657   C892    1.449   1_545 S
C658   C891    1.449   .     S
C659   H661    1.083   .     S
C659   C663    1.406   .     A
C659   C675    1.399   .     A
C660   C676    1.400   .     A
C660   C664    1.407   .     A
C660   H662    1.083   .     S
C663   C681    1.465   .     S
C663   N665    1.380   .     A
C664   N666    1.376   .     A
C664   C692    1.469   .     S
N665   C667    1.363   .     A
N666   C668    1.364   .     A
C667   H669    1.075   .     S
C667   C671    1.411   .     A
C668   H670    1.081   .     S
C668   C672    1.411   .     A
C671   H673    1.081   .     S
C671   C675    1.413   .     A
C672   H674    1.081   .     S
C672   C676    1.413   .     A
C676   C207    1.515   1_556 S
Br677  C483    1.933   1_655 S
C681   C686    1.404   .     A
C681   C682    1.397   .     A
C682   C683    1.393   .     A
C682   H687    1.073   .     S
C683   H688    1.083   .     S
C683   C684    1.393   .     A
C685   H690    1.080   .     S
C685   C528    1.398   1_655 S
C685   C530    1.399   1_655 S
C686   H691    1.083   .     S
H689   C528    1.073   1_655 S
C692   C693    1.402   .     A
C692   C697    1.405   .     A
C693   C694    1.397   .     A
C693   H698    1.083   .     S
C694   C695    1.398   .     A
C694   H543    1.081   1_655 S
C695   H700    1.082   .     S
C695   C696    1.398   .     A
C696   H701    1.082   .     S
C696   C697    1.399   .     A
C697   H702    1.083   .     S
O703   C707    1.291   .     A
O703   Zn715   1.989   .     S
O704   C708    1.287   .     A
O704   Zn716   1.989   .     S
O705   Zn716   2.015   .     S
O705   C707    1.295   .     A
O706   Zn715   2.015   .     S
O706   C708    1.285   .     A
C707   C727    1.450   .     S
C708   C728    1.424   .     S
O709   C713    1.272   .     A
O709   Zn715   1.988   .     S
O710   C714    1.276   .     A
O710   Zn716   1.988   .     S
O711   Zn716   1.993   .     S
O711   C713    1.292   .     A
O712   C714    1.289   .     A
O712   Zn715   1.993   .     S
C713   C717    1.407   .     S
C714   C718    1.407   .     S
Zn715  N744    2.015   .     S
Zn716  N743    2.015   .     S
C717   C874    1.345   1_455 S
C717   Br911   1.933   1_455 S
C718   C795    1.345   .     S
C718   Br834   1.938   .     S
C719   C735    1.396   .     A
C719   C723    1.380   .     A
C719   H721    1.083   .     S
C720   C736    1.402   .     A
C720   C724    1.380   .     A
C720   H722    1.083   .     S
C723   H725    1.084   .     S
C723   C727    1.404   .     A
C724   H726    1.084   .     S
C724   C728    1.393   .     A
C727   C729    1.410   .     A
C728   C730    1.401   .     A
C729   C731    1.382   .     A
C729   Br757   1.910   .     S
C730   Br758   1.916   .     S
C730   C732    1.382   .     A
C731   C735    1.397   .     A
C731   H733    1.083   .     S
C732   C736    1.400   .     A
C732   H734    1.083   .     S
C736   C501    1.449   1_565 S
C737   H739    1.083   .     S
C737   C741    1.406   .     A
C737   C753    1.399   .     A
C738   C754    1.400   .     A
C738   C742    1.407   .     A
C738   H740    1.083   .     S
C741   C759    1.465   .     S
C741   N743    1.380   .     A
C742   N744    1.376   .     A
C742   C770    1.469   .     S
N743   C745    1.363   .     A
N744   C746    1.364   .     A
C745   H747    1.075   .     S
C745   C749    1.411   .     A
C746   H748    1.081   .     S
C746   C750    1.411   .     A
C749   H751    1.081   .     S
C749   C753    1.413   .     A
C750   H752    1.081   .     S
C750   C754    1.413   .     A
C754   C285    1.515   1_556 S
Br755  C795    1.933   .     S
Br756  C874    1.938   1_455 S
C759   C764    1.404   .     A
C759   C760    1.397   .     A
C760   C761    1.393   .     A
C760   H765    1.073   .     S
C761   H766    1.083   .     S
C761   C762    1.393   .     A
C762   C919    1.398   1_455 S
C762   H923    1.073   1_455 S
C763   H768    1.080   .     S
C763   C840    1.398   .     S
C763   C842    1.399   .     S
C764   H769    1.083   .     S
C764   C919    1.399   1_455 S
H767   C840    1.073   .     S
C770   C771    1.402   .     A
C770   C775    1.405   .     A
C771   C772    1.397   .     A
C771   H776    1.083   .     S
C772   C773    1.398   .     A
C772   H855    1.081   .     S
C773   H778    1.082   .     S
C773   C774    1.398   .     A
C774   H779    1.082   .     S
C774   C775    1.399   .     A
C775   H780    1.083   .     S
H777   C928    1.081   1_455 S
O781   C785    1.291   .     A
O781   Zn793   1.989   .     S
O782   C786    1.287   .     A
O782   Zn794   1.989   .     S
O783   Zn794   2.015   .     S
O783   C785    1.295   .     A
O784   Zn793   2.015   .     S
O784   C786    1.285   .     A
C785   C805    1.450   .     S
C786   C806    1.424   .     S
O787   C791    1.272   .     A
O787   Zn793   1.988   .     S
O788   C792    1.276   .     A
O788   Zn794   1.988   .     S
O789   Zn794   1.993   .     S
O789   C791    1.292   .     A
O790   C792    1.289   .     A
O790   Zn793   1.993   .     S
C791   C795    1.407   .     S
C792   C796    1.407   .     S
Zn793  N822    2.015   .     S
Zn794  N821    2.015   .     S
C796   C873    1.345   .     S
C796   Br912   1.938   .     S
C797   C813    1.396   .     A
C797   C801    1.380   .     A
C797   H799    1.083   .     S
C798   C814    1.402   .     A
C798   C802    1.380   .     A
C798   H800    1.083   .     S
C801   H803    1.084   .     S
C801   C805    1.404   .     A
C802   H804    1.084   .     S
C802   C806    1.393   .     A
C805   C807    1.410   .     A
C806   C808    1.401   .     A
C807   C809    1.382   .     A
C807   Br835   1.910   .     S
C808   Br836   1.916   .     S
C808   C810    1.382   .     A
C809   C813    1.397   .     A
C809   H811    1.083   .     S
C810   C814    1.400   .     A
C810   H812    1.083   .     S
C814   C579    1.449   1_565 S
C815   H817    1.083   .     S
C815   C819    1.406   .     A
C815   C831    1.399   .     A
C816   C832    1.400   .     A
C816   C820    1.407   .     A
C816   H818    1.083   .     S
C819   C837    1.465   .     S
C819   N821    1.380   .     A
C820   N822    1.376   .     A
C820   C848    1.469   .     S
N821   C823    1.363   .     A
N822   C824    1.364   .     A
C823   H825    1.075   .     S
C823   C827    1.411   .     A
C824   H826    1.081   .     S
C824   C828    1.411   .     A
C827   H829    1.081   .     S
C827   C831    1.413   .     A
C828   H830    1.081   .     S
C828   C832    1.413   .     A
C832   C363    1.515   1_556 S
Br833  C873    1.933   .     S
C837   C842    1.404   .     A
C837   C838    1.397   .     A
C838   C839    1.393   .     A
C838   H843    1.073   .     S
C839   H844    1.083   .     S
C839   C840    1.393   .     A
C841   H846    1.080   .     S
C841   C918    1.398   .     S
C841   C920    1.399   .     S
C842   H847    1.083   .     S
H845   C918    1.073   .     S
C848   C849    1.402   .     A
C848   C853    1.405   .     A
C849   C850    1.397   .     A
C849   H854    1.083   .     S
C850   C851    1.398   .     A
C850   H933    1.081   .     S
C851   H856    1.082   .     S
C851   C852    1.398   .     A
C852   H857    1.082   .     S
C852   C853    1.399   .     A
C853   H858    1.083   .     S
O859   C863    1.291   .     A
O859   Zn871   1.989   .     S
O860   C864    1.287   .     A
O860   Zn872   1.989   .     S
O861   Zn872   2.015   .     S
O861   C863    1.295   .     A
O862   Zn871   2.015   .     S
O862   C864    1.285   .     A
C863   C883    1.450   .     S
C864   C884    1.424   .     S
O865   C869    1.272   .     A
O865   Zn871   1.988   .     S
O866   C870    1.276   .     A
O866   Zn872   1.988   .     S
O867   Zn872   1.993   .     S
O867   C869    1.292   .     A
O868   C870    1.289   .     A
O868   Zn871   1.993   .     S
C869   C873    1.407   .     S
C870   C874    1.407   .     S
Zn871  N900    2.015   .     S
Zn872  N899    2.015   .     S
C874   C717    1.345   1_655 S
C874   Br756   1.938   1_655 S
C875   C891    1.396   .     A
C875   C879    1.380   .     A
C875   H877    1.083   .     S
C876   C892    1.402   .     A
C876   C880    1.380   .     A
C876   H878    1.083   .     S
C879   H881    1.084   .     S
C879   C883    1.404   .     A
C880   H882    1.084   .     S
C880   C884    1.393   .     A
C883   C885    1.410   .     A
C884   C886    1.401   .     A
C885   C887    1.382   .     A
C885   Br913   1.910   .     S
C886   Br914   1.916   .     S
C886   C888    1.382   .     A
C887   C891    1.397   .     A
C887   H889    1.083   .     S
C888   C892    1.400   .     A
C888   H890    1.083   .     S
C892   C657    1.449   1_565 S
C893   H895    1.083   .     S
C893   C897    1.406   .     A
C893   C909    1.399   .     A
C894   C910    1.400   .     A
C894   C898    1.407   .     A
C894   H896    1.083   .     S
C897   C915    1.465   .     S
C897   N899    1.380   .     A
C898   N900    1.376   .     A
C898   C926    1.469   .     S
N899   C901    1.363   .     A
N900   C902    1.364   .     A
C901   H903    1.075   .     S
C901   C905    1.411   .     A
C902   H904    1.081   .     S
C902   C906    1.411   .     A
C905   H907    1.081   .     S
C905   C909    1.413   .     A
C906   H908    1.081   .     S
C906   C910    1.413   .     A
C910   C441    1.515   1_556 S
Br911  C717    1.933   1_655 S
C915   C920    1.404   .     A
C915   C916    1.397   .     A
C916   C917    1.393   .     A
C916   H921    1.073   .     S
C917   H922    1.083   .     S
C917   C918    1.393   .     A
C919   H924    1.080   .     S
C919   C762    1.398   1_655 S
C919   C764    1.399   1_655 S
C920   H925    1.083   .     S
H923   C762    1.073   1_655 S
C926   C927    1.402   .     A
C926   C931    1.405   .     A
C927   C928    1.397   .     A
C927   H932    1.083   .     S
C928   C929    1.398   .     A
C928   H777    1.081   1_655 S
C929   H934    1.082   .     S
C929   C930    1.398   .     A
C930   H935    1.082   .     S
C930   C931    1.399   .     A
C931   H936    1.083   .     S
