data_str_m3_o1_o17_pcu_sym.112
_audit_creation_date              2020-01-03
_audit_creation_method            'Materials Studio'
_symmetry_space_group_name_H-M    'P1'
_symmetry_Int_Tables_number       1
_symmetry_cell_setting            triclinic
loop_
_symmetry_equiv_pos_as_xyz
  x,y,z
_cell_length_a                    32.1246
_cell_length_b                    29.5622
_cell_length_c                    29.8969
_cell_angle_alpha                 90.0728
_cell_angle_beta                  90.9527
_cell_angle_gamma                 90.1639
loop_
_atom_site_label
_atom_site_type_symbol
_atom_site_fract_x
_atom_site_fract_y
_atom_site_fract_z
_atom_site_U_iso_or_equiv
_atom_site_adp_type
_atom_site_occupancy
C1     C     0.08668   0.16659   0.25026   0.00000  Uiso   1.00
C2     C     0.24665   0.16675   0.24974   0.00000  Uiso   1.00
C3     C     0.09138   0.15155   0.02073   0.00000  Uiso   1.00
C4     C     0.24195   0.18178   0.47927   0.00000  Uiso   1.00
C5     C     0.02089   0.13069   0.22980   0.00000  Uiso   1.00
C6     C     0.31245   0.20264   0.27020   0.00000  Uiso   1.00
C7     C     0.31155   0.13107   0.22918   0.00000  Uiso   1.00
C8     C     0.02178   0.20226   0.27082   0.00000  Uiso   1.00
C9     C     0.29078   0.16692   0.24957   0.00000  Uiso   1.00
C10    C     0.04256   0.16641   0.25043   0.00000  Uiso   1.00
C11    C     0.19160   0.02409   0.27920   0.00000  Uiso   1.00
C12    C     0.14173   0.30924   0.22080   0.00000  Uiso   1.00
C13    C     0.14177   0.02385   0.22076   0.00000  Uiso   1.00
C14    C     0.19156   0.30948   0.27924   0.00000  Uiso   1.00
C15    C     0.16617   0.16665   0.16362   0.00000  Uiso   1.00
C16    C     0.16716   0.16668   0.33638   0.00000  Uiso   1.00
C17    C     0.20559   0.17183   0.40716   0.00000  Uiso   1.00
C18    C     0.12774   0.16150   0.09284   0.00000  Uiso   1.00
C19    C     0.16790   0.16666   0.38398   0.00000  Uiso   1.00
C20    C     0.16544   0.16667   0.11602   0.00000  Uiso   1.00
C21    C     0.13030   0.16098   0.40523   0.00000  Uiso   1.00
C22    C     0.20304   0.17235   0.09477   0.00000  Uiso   1.00
C23    C     0.12917   0.15972   0.45180   0.00000  Uiso   1.00
C24    C     0.20417   0.17361   0.04820   0.00000  Uiso   1.00
C25    C     0.16694   0.16662   0.47649   0.00000  Uiso   1.00
C26    C     0.16639   0.16671   0.02351   0.00000  Uiso   1.00
C27    C     0.20529   0.17341   0.45412   0.00000  Uiso   1.00
C28    C     0.12804   0.15993   0.04588   0.00000  Uiso   1.00
C29    C     0.09163   0.15165   0.47437   0.00000  Uiso   1.00
C30    C     0.24171   0.18168   0.02563   0.00000  Uiso   1.00
N31    N     0.16667   0.28573   0.25000   0.00000  Uiso   1.00
N32    N     0.16667   0.04760   0.25000   0.00000  Uiso   1.00
O33    O     0.10559   0.20487   0.24999   0.00000  Uiso   1.00
O34    O     0.22774   0.12846   0.25000   0.00000  Uiso   1.00
O35    O     0.22774   0.20487   0.25000   0.00000  Uiso   1.00
O36    O     0.10559   0.12846   0.24999   0.00000  Uiso   1.00
O37    O     0.16666   0.20489   0.18392   0.00000  Uiso   1.00
O38    O     0.16667   0.12844   0.31607   0.00000  Uiso   1.00
O39    O     0.16667   0.20489   0.31607   0.00000  Uiso   1.00
O40    O     0.16666   0.12844   0.18392   0.00000  Uiso   1.00
Zn41   Zn    0.16667   0.21771   0.25000   0.00000  Uiso   1.00
Zn42   Zn    0.16667   0.11563   0.25000   0.00000  Uiso   1.00
Br43   Br    0.25617   0.17381   0.37256   0.00000  Uiso   1.00
Br44   Br    0.07716   0.15953   0.12744   0.00000  Uiso   1.00
F45    F     0.09533   0.15700   0.37931   0.00000  Uiso   1.00
F46    F     0.23800   0.17633   0.12069   0.00000  Uiso   1.00
Br47   Br    0.03877   0.13879   0.44505   0.00000  Uiso   1.00
Br48   Br    0.29457   0.19454   0.05495   0.00000  Uiso   1.00
F49    F     0.05479   0.14159   0.04046   0.00000  Uiso   1.00
F50    F     0.27854   0.19174   0.45954   0.00000  Uiso   1.00
F51    F     0.04084   0.09614   0.20928   0.00000  Uiso   1.00
F52    F     0.29249   0.23719   0.29072   0.00000  Uiso   1.00
F53    F     0.29067   0.09712   0.20776   0.00000  Uiso   1.00
F54    F     0.04266   0.23622   0.29224   0.00000  Uiso   1.00
F55    F     0.21668   0.04688   0.30841   0.00000  Uiso   1.00
F56    F     0.11666   0.28646   0.19159   0.00000  Uiso   1.00
F57    F     0.11694   0.04638   0.19132   0.00000  Uiso   1.00
F58    F     0.21639   0.28696   0.30868   0.00000  Uiso   1.00
C59    C     0.42002   0.16659   0.25026   0.00000  Uiso   1.00
C60    C     0.57998   0.16675   0.24974   0.00000  Uiso   1.00
C61    C     0.42471   0.15155   0.02073   0.00000  Uiso   1.00
C62    C     0.57529   0.18178   0.47927   0.00000  Uiso   1.00
C63    C     0.35422   0.13069   0.22980   0.00000  Uiso   1.00
C64    C     0.64578   0.20264   0.27020   0.00000  Uiso   1.00
C65    C     0.64489   0.13107   0.22918   0.00000  Uiso   1.00
C66    C     0.35511   0.20226   0.27082   0.00000  Uiso   1.00
C67    C     0.62411   0.16692   0.24957   0.00000  Uiso   1.00
C68    C     0.37589   0.16641   0.25043   0.00000  Uiso   1.00
C69    C     0.52494   0.02409   0.27920   0.00000  Uiso   1.00
C70    C     0.47506   0.30924   0.22080   0.00000  Uiso   1.00
C71    C     0.47511   0.02385   0.22076   0.00000  Uiso   1.00
C72    C     0.52489   0.30948   0.27924   0.00000  Uiso   1.00
C73    C     0.49950   0.16665   0.16362   0.00000  Uiso   1.00
C74    C     0.50050   0.16668   0.33638   0.00000  Uiso   1.00
C75    C     0.53892   0.17183   0.40716   0.00000  Uiso   1.00
C76    C     0.46108   0.16150   0.09284   0.00000  Uiso   1.00
C77    C     0.50123   0.16666   0.38398   0.00000  Uiso   1.00
C78    C     0.49877   0.16667   0.11602   0.00000  Uiso   1.00
C79    C     0.46363   0.16098   0.40523   0.00000  Uiso   1.00
C80    C     0.53637   0.17235   0.09477   0.00000  Uiso   1.00
C81    C     0.46250   0.15972   0.45180   0.00000  Uiso   1.00
C82    C     0.53750   0.17361   0.04820   0.00000  Uiso   1.00
C83    C     0.50028   0.16662   0.47649   0.00000  Uiso   1.00
C84    C     0.49972   0.16671   0.02351   0.00000  Uiso   1.00
C85    C     0.53863   0.17341   0.45412   0.00000  Uiso   1.00
C86    C     0.46137   0.15993   0.04588   0.00000  Uiso   1.00
C87    C     0.42496   0.15165   0.47437   0.00000  Uiso   1.00
C88    C     0.57504   0.18168   0.02563   0.00000  Uiso   1.00
N89    N     0.50000   0.28573   0.25000   0.00000  Uiso   1.00
N90    N     0.50000   0.04760   0.25000   0.00000  Uiso   1.00
O91    O     0.43892   0.20487   0.24999   0.00000  Uiso   1.00
O92    O     0.56108   0.12846   0.25000   0.00000  Uiso   1.00
O93    O     0.56108   0.20487   0.25000   0.00000  Uiso   1.00
O94    O     0.43892   0.12846   0.24999   0.00000  Uiso   1.00
O95    O     0.49999   0.20489   0.18392   0.00000  Uiso   1.00
O96    O     0.50001   0.12844   0.31607   0.00000  Uiso   1.00
O97    O     0.50001   0.20489   0.31607   0.00000  Uiso   1.00
O98    O     0.49999   0.12844   0.18392   0.00000  Uiso   1.00
Zn99   Zn    0.50000   0.21771   0.25000   0.00000  Uiso   1.00
Zn100  Zn    0.50000   0.11563   0.25000   0.00000  Uiso   1.00
Br101  Br    0.58950   0.17381   0.37256   0.00000  Uiso   1.00
Br102  Br    0.41050   0.15953   0.12744   0.00000  Uiso   1.00
F103   F     0.42866   0.15700   0.37931   0.00000  Uiso   1.00
F104   F     0.57134   0.17633   0.12069   0.00000  Uiso   1.00
Br105  Br    0.37210   0.13879   0.44505   0.00000  Uiso   1.00
Br106  Br    0.62790   0.19454   0.05495   0.00000  Uiso   1.00
F107   F     0.38813   0.14159   0.04046   0.00000  Uiso   1.00
F108   F     0.61187   0.19174   0.45954   0.00000  Uiso   1.00
F109   F     0.37417   0.09614   0.20928   0.00000  Uiso   1.00
F110   F     0.62583   0.23719   0.29072   0.00000  Uiso   1.00
F111   F     0.62401   0.09712   0.20776   0.00000  Uiso   1.00
F112   F     0.37599   0.23622   0.29224   0.00000  Uiso   1.00
F113   F     0.55001   0.04688   0.30841   0.00000  Uiso   1.00
F114   F     0.44999   0.28646   0.19159   0.00000  Uiso   1.00
F115   F     0.45027   0.04638   0.19132   0.00000  Uiso   1.00
F116   F     0.54973   0.28696   0.30868   0.00000  Uiso   1.00
C117   C     0.75335   0.16659   0.25026   0.00000  Uiso   1.00
C118   C     0.91332   0.16675   0.24974   0.00000  Uiso   1.00
C119   C     0.75805   0.15155   0.02073   0.00000  Uiso   1.00
C120   C     0.90862   0.18178   0.47927   0.00000  Uiso   1.00
C121   C     0.68755   0.13069   0.22980   0.00000  Uiso   1.00
C122   C     0.97911   0.20264   0.27020   0.00000  Uiso   1.00
C123   C     0.97822   0.13107   0.22918   0.00000  Uiso   1.00
C124   C     0.68845   0.20226   0.27082   0.00000  Uiso   1.00
C125   C     0.95744   0.16692   0.24957   0.00000  Uiso   1.00
C126   C     0.70922   0.16641   0.25043   0.00000  Uiso   1.00
C127   C     0.85827   0.02409   0.27920   0.00000  Uiso   1.00
C128   C     0.80840   0.30924   0.22080   0.00000  Uiso   1.00
C129   C     0.80844   0.02385   0.22076   0.00000  Uiso   1.00
C130   C     0.85823   0.30948   0.27924   0.00000  Uiso   1.00
C131   C     0.83284   0.16665   0.16362   0.00000  Uiso   1.00
C132   C     0.83383   0.16668   0.33638   0.00000  Uiso   1.00
C133   C     0.87226   0.17183   0.40716   0.00000  Uiso   1.00
C134   C     0.79441   0.16150   0.09284   0.00000  Uiso   1.00
C135   C     0.83456   0.16666   0.38398   0.00000  Uiso   1.00
C136   C     0.83210   0.16667   0.11602   0.00000  Uiso   1.00
C137   C     0.79696   0.16098   0.40523   0.00000  Uiso   1.00
C138   C     0.86970   0.17235   0.09477   0.00000  Uiso   1.00
C139   C     0.79583   0.15972   0.45180   0.00000  Uiso   1.00
C140   C     0.87083   0.17361   0.04820   0.00000  Uiso   1.00
C141   C     0.83361   0.16662   0.47649   0.00000  Uiso   1.00
C142   C     0.83306   0.16671   0.02351   0.00000  Uiso   1.00
C143   C     0.87196   0.17341   0.45412   0.00000  Uiso   1.00
C144   C     0.79471   0.15993   0.04588   0.00000  Uiso   1.00
C145   C     0.75829   0.15165   0.47437   0.00000  Uiso   1.00
C146   C     0.90837   0.18168   0.02563   0.00000  Uiso   1.00
N147   N     0.83333   0.28573   0.25000   0.00000  Uiso   1.00
N148   N     0.83333   0.04760   0.25000   0.00000  Uiso   1.00
O149   O     0.77226   0.20487   0.24999   0.00000  Uiso   1.00
O150   O     0.89441   0.12846   0.25000   0.00000  Uiso   1.00
O151   O     0.89441   0.20487   0.25000   0.00000  Uiso   1.00
O152   O     0.77226   0.12846   0.24999   0.00000  Uiso   1.00
O153   O     0.83333   0.20489   0.18392   0.00000  Uiso   1.00
O154   O     0.83334   0.12844   0.31607   0.00000  Uiso   1.00
O155   O     0.83334   0.20489   0.31607   0.00000  Uiso   1.00
O156   O     0.83333   0.12844   0.18392   0.00000  Uiso   1.00
Zn157  Zn    0.83333   0.21771   0.25000   0.00000  Uiso   1.00
Zn158  Zn    0.83333   0.11563   0.25000   0.00000  Uiso   1.00
Br159  Br    0.92284   0.17381   0.37256   0.00000  Uiso   1.00
Br160  Br    0.74383   0.15953   0.12744   0.00000  Uiso   1.00
F161   F     0.76200   0.15700   0.37931   0.00000  Uiso   1.00
F162   F     0.90467   0.17633   0.12069   0.00000  Uiso   1.00
Br163  Br    0.70543   0.13879   0.44505   0.00000  Uiso   1.00
Br164  Br    0.96123   0.19454   0.05495   0.00000  Uiso   1.00
F165   F     0.72146   0.14159   0.04046   0.00000  Uiso   1.00
F166   F     0.94521   0.19174   0.45954   0.00000  Uiso   1.00
F167   F     0.70751   0.09614   0.20928   0.00000  Uiso   1.00
F168   F     0.95916   0.23719   0.29072   0.00000  Uiso   1.00
F169   F     0.95734   0.09712   0.20776   0.00000  Uiso   1.00
F170   F     0.70933   0.23622   0.29224   0.00000  Uiso   1.00
F171   F     0.88334   0.04688   0.30841   0.00000  Uiso   1.00
F172   F     0.78332   0.28646   0.19159   0.00000  Uiso   1.00
F173   F     0.78361   0.04638   0.19132   0.00000  Uiso   1.00
F174   F     0.88306   0.28696   0.30868   0.00000  Uiso   1.00
C175   C     0.08668   0.49992   0.25026   0.00000  Uiso   1.00
C176   C     0.24665   0.50008   0.24974   0.00000  Uiso   1.00
C177   C     0.09138   0.48489   0.02073   0.00000  Uiso   1.00
C178   C     0.24195   0.51511   0.47927   0.00000  Uiso   1.00
C179   C     0.02089   0.46403   0.22980   0.00000  Uiso   1.00
C180   C     0.31245   0.53597   0.27020   0.00000  Uiso   1.00
C181   C     0.31155   0.46441   0.22918   0.00000  Uiso   1.00
C182   C     0.02178   0.53559   0.27082   0.00000  Uiso   1.00
C183   C     0.29078   0.50025   0.24957   0.00000  Uiso   1.00
C184   C     0.04256   0.49975   0.25043   0.00000  Uiso   1.00
C185   C     0.19160   0.35743   0.27920   0.00000  Uiso   1.00
C186   C     0.14173   0.64257   0.22080   0.00000  Uiso   1.00
C187   C     0.14177   0.35718   0.22076   0.00000  Uiso   1.00
C188   C     0.19156   0.64282   0.27924   0.00000  Uiso   1.00
C189   C     0.16617   0.49999   0.16362   0.00000  Uiso   1.00
C190   C     0.16716   0.50001   0.33638   0.00000  Uiso   1.00
C191   C     0.20559   0.50516   0.40716   0.00000  Uiso   1.00
C192   C     0.12774   0.49484   0.09284   0.00000  Uiso   1.00
C193   C     0.16790   0.50000   0.38398   0.00000  Uiso   1.00
C194   C     0.16544   0.50000   0.11602   0.00000  Uiso   1.00
C195   C     0.13030   0.49431   0.40523   0.00000  Uiso   1.00
C196   C     0.20304   0.50569   0.09477   0.00000  Uiso   1.00
C197   C     0.12917   0.49306   0.45180   0.00000  Uiso   1.00
C198   C     0.20417   0.50694   0.04820   0.00000  Uiso   1.00
C199   C     0.16694   0.49996   0.47649   0.00000  Uiso   1.00
C200   C     0.16639   0.50004   0.02351   0.00000  Uiso   1.00
C201   C     0.20529   0.50674   0.45412   0.00000  Uiso   1.00
C202   C     0.12804   0.49326   0.04588   0.00000  Uiso   1.00
C203   C     0.09163   0.48498   0.47437   0.00000  Uiso   1.00
C204   C     0.24171   0.51502   0.02563   0.00000  Uiso   1.00
N205   N     0.16667   0.61907   0.25000   0.00000  Uiso   1.00
N206   N     0.16667   0.38093   0.25000   0.00000  Uiso   1.00
O207   O     0.10559   0.53821   0.24999   0.00000  Uiso   1.00
O208   O     0.22774   0.46179   0.25000   0.00000  Uiso   1.00
O209   O     0.22774   0.53821   0.25000   0.00000  Uiso   1.00
O210   O     0.10559   0.46179   0.24999   0.00000  Uiso   1.00
O211   O     0.16666   0.53823   0.18392   0.00000  Uiso   1.00
O212   O     0.16667   0.46177   0.31607   0.00000  Uiso   1.00
O213   O     0.16667   0.53823   0.31607   0.00000  Uiso   1.00
O214   O     0.16666   0.46177   0.18392   0.00000  Uiso   1.00
Zn215  Zn    0.16667   0.55104   0.25000   0.00000  Uiso   1.00
Zn216  Zn    0.16667   0.44896   0.25000   0.00000  Uiso   1.00
Br217  Br    0.25617   0.50714   0.37256   0.00000  Uiso   1.00
Br218  Br    0.07716   0.49286   0.12744   0.00000  Uiso   1.00
F219   F     0.09533   0.49034   0.37931   0.00000  Uiso   1.00
F220   F     0.23800   0.50966   0.12069   0.00000  Uiso   1.00
Br221  Br    0.03877   0.47213   0.44505   0.00000  Uiso   1.00
Br222  Br    0.29457   0.52787   0.05495   0.00000  Uiso   1.00
F223   F     0.05479   0.47492   0.04046   0.00000  Uiso   1.00
F224   F     0.27854   0.52508   0.45954   0.00000  Uiso   1.00
F225   F     0.04084   0.42947   0.20928   0.00000  Uiso   1.00
F226   F     0.29249   0.57053   0.29072   0.00000  Uiso   1.00
F227   F     0.29067   0.43045   0.20776   0.00000  Uiso   1.00
F228   F     0.04266   0.56955   0.29224   0.00000  Uiso   1.00
F229   F     0.21668   0.38021   0.30841   0.00000  Uiso   1.00
F230   F     0.11666   0.61979   0.19159   0.00000  Uiso   1.00
F231   F     0.11694   0.37971   0.19132   0.00000  Uiso   1.00
F232   F     0.21639   0.62029   0.30868   0.00000  Uiso   1.00
C233   C     0.42002   0.49992   0.25026   0.00000  Uiso   1.00
C234   C     0.57998   0.50008   0.24974   0.00000  Uiso   1.00
C235   C     0.42471   0.48489   0.02073   0.00000  Uiso   1.00
C236   C     0.57529   0.51511   0.47927   0.00000  Uiso   1.00
C237   C     0.35422   0.46403   0.22980   0.00000  Uiso   1.00
C238   C     0.64578   0.53597   0.27020   0.00000  Uiso   1.00
C239   C     0.64489   0.46441   0.22918   0.00000  Uiso   1.00
C240   C     0.35511   0.53559   0.27082   0.00000  Uiso   1.00
C241   C     0.62411   0.50025   0.24957   0.00000  Uiso   1.00
C242   C     0.37589   0.49975   0.25043   0.00000  Uiso   1.00
C243   C     0.52494   0.35743   0.27920   0.00000  Uiso   1.00
C244   C     0.47506   0.64257   0.22080   0.00000  Uiso   1.00
C245   C     0.47511   0.35718   0.22076   0.00000  Uiso   1.00
C246   C     0.52489   0.64282   0.27924   0.00000  Uiso   1.00
C247   C     0.49950   0.49999   0.16362   0.00000  Uiso   1.00
C248   C     0.50050   0.50001   0.33638   0.00000  Uiso   1.00
C249   C     0.53892   0.50516   0.40716   0.00000  Uiso   1.00
C250   C     0.46108   0.49484   0.09284   0.00000  Uiso   1.00
C251   C     0.50123   0.50000   0.38398   0.00000  Uiso   1.00
C252   C     0.49877   0.50000   0.11602   0.00000  Uiso   1.00
C253   C     0.46363   0.49431   0.40523   0.00000  Uiso   1.00
C254   C     0.53637   0.50569   0.09477   0.00000  Uiso   1.00
C255   C     0.46250   0.49306   0.45180   0.00000  Uiso   1.00
C256   C     0.53750   0.50694   0.04820   0.00000  Uiso   1.00
C257   C     0.50028   0.49996   0.47649   0.00000  Uiso   1.00
C258   C     0.49972   0.50004   0.02351   0.00000  Uiso   1.00
C259   C     0.53863   0.50674   0.45412   0.00000  Uiso   1.00
C260   C     0.46137   0.49326   0.04588   0.00000  Uiso   1.00
C261   C     0.42496   0.48498   0.47437   0.00000  Uiso   1.00
C262   C     0.57504   0.51502   0.02563   0.00000  Uiso   1.00
N263   N     0.50000   0.61907   0.25000   0.00000  Uiso   1.00
N264   N     0.50000   0.38093   0.25000   0.00000  Uiso   1.00
O265   O     0.43892   0.53821   0.24999   0.00000  Uiso   1.00
O266   O     0.56108   0.46179   0.25000   0.00000  Uiso   1.00
O267   O     0.56108   0.53821   0.25000   0.00000  Uiso   1.00
O268   O     0.43892   0.46179   0.24999   0.00000  Uiso   1.00
O269   O     0.49999   0.53823   0.18392   0.00000  Uiso   1.00
O270   O     0.50001   0.46177   0.31607   0.00000  Uiso   1.00
O271   O     0.50001   0.53823   0.31607   0.00000  Uiso   1.00
O272   O     0.49999   0.46177   0.18392   0.00000  Uiso   1.00
Zn273  Zn    0.50000   0.55104   0.25000   0.00000  Uiso   1.00
Zn274  Zn    0.50000   0.44896   0.25000   0.00000  Uiso   1.00
Br275  Br    0.58950   0.50714   0.37256   0.00000  Uiso   1.00
Br276  Br    0.41050   0.49286   0.12744   0.00000  Uiso   1.00
F277   F     0.42866   0.49034   0.37931   0.00000  Uiso   1.00
F278   F     0.57134   0.50966   0.12069   0.00000  Uiso   1.00
Br279  Br    0.37210   0.47213   0.44505   0.00000  Uiso   1.00
Br280  Br    0.62790   0.52787   0.05495   0.00000  Uiso   1.00
F281   F     0.38813   0.47492   0.04046   0.00000  Uiso   1.00
F282   F     0.61187   0.52508   0.45954   0.00000  Uiso   1.00
F283   F     0.37417   0.42947   0.20928   0.00000  Uiso   1.00
F284   F     0.62583   0.57053   0.29072   0.00000  Uiso   1.00
F285   F     0.62401   0.43045   0.20776   0.00000  Uiso   1.00
F286   F     0.37599   0.56955   0.29224   0.00000  Uiso   1.00
F287   F     0.55001   0.38021   0.30841   0.00000  Uiso   1.00
F288   F     0.44999   0.61979   0.19159   0.00000  Uiso   1.00
F289   F     0.45027   0.37971   0.19132   0.00000  Uiso   1.00
F290   F     0.54973   0.62029   0.30868   0.00000  Uiso   1.00
C291   C     0.75335   0.49992   0.25026   0.00000  Uiso   1.00
C292   C     0.91332   0.50008   0.24974   0.00000  Uiso   1.00
C293   C     0.75805   0.48489   0.02073   0.00000  Uiso   1.00
C294   C     0.90862   0.51511   0.47927   0.00000  Uiso   1.00
C295   C     0.68755   0.46403   0.22980   0.00000  Uiso   1.00
C296   C     0.97911   0.53597   0.27020   0.00000  Uiso   1.00
C297   C     0.97822   0.46441   0.22918   0.00000  Uiso   1.00
C298   C     0.68845   0.53559   0.27082   0.00000  Uiso   1.00
C299   C     0.95744   0.50025   0.24957   0.00000  Uiso   1.00
C300   C     0.70922   0.49975   0.25043   0.00000  Uiso   1.00
C301   C     0.85827   0.35743   0.27920   0.00000  Uiso   1.00
C302   C     0.80840   0.64257   0.22080   0.00000  Uiso   1.00
C303   C     0.80844   0.35718   0.22076   0.00000  Uiso   1.00
C304   C     0.85823   0.64282   0.27924   0.00000  Uiso   1.00
C305   C     0.83284   0.49999   0.16362   0.00000  Uiso   1.00
C306   C     0.83383   0.50001   0.33638   0.00000  Uiso   1.00
C307   C     0.87226   0.50516   0.40716   0.00000  Uiso   1.00
C308   C     0.79441   0.49484   0.09284   0.00000  Uiso   1.00
C309   C     0.83456   0.50000   0.38398   0.00000  Uiso   1.00
C310   C     0.83210   0.50000   0.11602   0.00000  Uiso   1.00
C311   C     0.79696   0.49431   0.40523   0.00000  Uiso   1.00
C312   C     0.86970   0.50569   0.09477   0.00000  Uiso   1.00
C313   C     0.79583   0.49306   0.45180   0.00000  Uiso   1.00
C314   C     0.87083   0.50694   0.04820   0.00000  Uiso   1.00
C315   C     0.83361   0.49996   0.47649   0.00000  Uiso   1.00
C316   C     0.83306   0.50004   0.02351   0.00000  Uiso   1.00
C317   C     0.87196   0.50674   0.45412   0.00000  Uiso   1.00
C318   C     0.79471   0.49326   0.04588   0.00000  Uiso   1.00
C319   C     0.75829   0.48498   0.47437   0.00000  Uiso   1.00
C320   C     0.90837   0.51502   0.02563   0.00000  Uiso   1.00
N321   N     0.83333   0.61907   0.25000   0.00000  Uiso   1.00
N322   N     0.83333   0.38093   0.25000   0.00000  Uiso   1.00
O323   O     0.77226   0.53821   0.24999   0.00000  Uiso   1.00
O324   O     0.89441   0.46179   0.25000   0.00000  Uiso   1.00
O325   O     0.89441   0.53821   0.25000   0.00000  Uiso   1.00
O326   O     0.77226   0.46179   0.24999   0.00000  Uiso   1.00
O327   O     0.83333   0.53823   0.18392   0.00000  Uiso   1.00
O328   O     0.83334   0.46177   0.31607   0.00000  Uiso   1.00
O329   O     0.83334   0.53823   0.31607   0.00000  Uiso   1.00
O330   O     0.83333   0.46177   0.18392   0.00000  Uiso   1.00
Zn331  Zn    0.83333   0.55104   0.25000   0.00000  Uiso   1.00
Zn332  Zn    0.83333   0.44896   0.25000   0.00000  Uiso   1.00
Br333  Br    0.92284   0.50714   0.37256   0.00000  Uiso   1.00
Br334  Br    0.74383   0.49286   0.12744   0.00000  Uiso   1.00
F335   F     0.76200   0.49034   0.37931   0.00000  Uiso   1.00
F336   F     0.90467   0.50966   0.12069   0.00000  Uiso   1.00
Br337  Br    0.70543   0.47213   0.44505   0.00000  Uiso   1.00
Br338  Br    0.96123   0.52787   0.05495   0.00000  Uiso   1.00
F339   F     0.72146   0.47492   0.04046   0.00000  Uiso   1.00
F340   F     0.94521   0.52508   0.45954   0.00000  Uiso   1.00
F341   F     0.70751   0.42947   0.20928   0.00000  Uiso   1.00
F342   F     0.95916   0.57053   0.29072   0.00000  Uiso   1.00
F343   F     0.95734   0.43045   0.20776   0.00000  Uiso   1.00
F344   F     0.70933   0.56955   0.29224   0.00000  Uiso   1.00
F345   F     0.88334   0.38021   0.30841   0.00000  Uiso   1.00
F346   F     0.78332   0.61979   0.19159   0.00000  Uiso   1.00
F347   F     0.78361   0.37971   0.19132   0.00000  Uiso   1.00
F348   F     0.88306   0.62029   0.30868   0.00000  Uiso   1.00
C349   C     0.08668   0.83325   0.25026   0.00000  Uiso   1.00
C350   C     0.24665   0.83341   0.24974   0.00000  Uiso   1.00
C351   C     0.09138   0.81822   0.02073   0.00000  Uiso   1.00
C352   C     0.24195   0.84844   0.47927   0.00000  Uiso   1.00
C353   C     0.02089   0.79736   0.22980   0.00000  Uiso   1.00
C354   C     0.31245   0.86931   0.27020   0.00000  Uiso   1.00
C355   C     0.31155   0.79774   0.22918   0.00000  Uiso   1.00
C356   C     0.02178   0.86893   0.27082   0.00000  Uiso   1.00
C357   C     0.29078   0.83359   0.24957   0.00000  Uiso   1.00
C358   C     0.04256   0.83308   0.25043   0.00000  Uiso   1.00
C359   C     0.19160   0.69076   0.27920   0.00000  Uiso   1.00
C360   C     0.14173   0.97591   0.22080   0.00000  Uiso   1.00
C361   C     0.14177   0.69052   0.22076   0.00000  Uiso   1.00
C362   C     0.19156   0.97615   0.27924   0.00000  Uiso   1.00
C363   C     0.16617   0.83332   0.16362   0.00000  Uiso   1.00
C364   C     0.16716   0.83335   0.33638   0.00000  Uiso   1.00
C365   C     0.20559   0.83850   0.40716   0.00000  Uiso   1.00
C366   C     0.12774   0.82817   0.09284   0.00000  Uiso   1.00
C367   C     0.16790   0.83333   0.38398   0.00000  Uiso   1.00
C368   C     0.16544   0.83334   0.11602   0.00000  Uiso   1.00
C369   C     0.13030   0.82765   0.40523   0.00000  Uiso   1.00
C370   C     0.20304   0.83902   0.09477   0.00000  Uiso   1.00
C371   C     0.12917   0.82639   0.45180   0.00000  Uiso   1.00
C372   C     0.20417   0.84028   0.04820   0.00000  Uiso   1.00
C373   C     0.16694   0.83329   0.47649   0.00000  Uiso   1.00
C374   C     0.16639   0.83338   0.02351   0.00000  Uiso   1.00
C375   C     0.20529   0.84007   0.45412   0.00000  Uiso   1.00
C376   C     0.12804   0.82659   0.04588   0.00000  Uiso   1.00
C377   C     0.09163   0.81832   0.47437   0.00000  Uiso   1.00
C378   C     0.24171   0.84835   0.02563   0.00000  Uiso   1.00
N379   N     0.16667   0.95240   0.25000   0.00000  Uiso   1.00
N380   N     0.16667   0.71427   0.25000   0.00000  Uiso   1.00
O381   O     0.10559   0.87154   0.24999   0.00000  Uiso   1.00
O382   O     0.22774   0.79513   0.25000   0.00000  Uiso   1.00
O383   O     0.22774   0.87154   0.25000   0.00000  Uiso   1.00
O384   O     0.10559   0.79513   0.24999   0.00000  Uiso   1.00
O385   O     0.16666   0.87156   0.18392   0.00000  Uiso   1.00
O386   O     0.16667   0.79511   0.31607   0.00000  Uiso   1.00
O387   O     0.16667   0.87156   0.31607   0.00000  Uiso   1.00
O388   O     0.16666   0.79511   0.18392   0.00000  Uiso   1.00
Zn389  Zn    0.16667   0.88437   0.25000   0.00000  Uiso   1.00
Zn390  Zn    0.16667   0.78229   0.25000   0.00000  Uiso   1.00
Br391  Br    0.25617   0.84047   0.37256   0.00000  Uiso   1.00
Br392  Br    0.07716   0.82619   0.12744   0.00000  Uiso   1.00
F393   F     0.09533   0.82367   0.37931   0.00000  Uiso   1.00
F394   F     0.23800   0.84300   0.12069   0.00000  Uiso   1.00
Br395  Br    0.03877   0.80546   0.44505   0.00000  Uiso   1.00
Br396  Br    0.29457   0.86121   0.05495   0.00000  Uiso   1.00
F397   F     0.05479   0.80826   0.04046   0.00000  Uiso   1.00
F398   F     0.27854   0.85841   0.45954   0.00000  Uiso   1.00
F399   F     0.04084   0.76281   0.20928   0.00000  Uiso   1.00
F400   F     0.29249   0.90386   0.29072   0.00000  Uiso   1.00
F401   F     0.29067   0.76378   0.20776   0.00000  Uiso   1.00
F402   F     0.04266   0.90288   0.29224   0.00000  Uiso   1.00
F403   F     0.21668   0.71354   0.30841   0.00000  Uiso   1.00
F404   F     0.11666   0.95312   0.19159   0.00000  Uiso   1.00
F405   F     0.11694   0.71304   0.19132   0.00000  Uiso   1.00
F406   F     0.21639   0.95362   0.30868   0.00000  Uiso   1.00
C407   C     0.42002   0.83325   0.25026   0.00000  Uiso   1.00
C408   C     0.57998   0.83341   0.24974   0.00000  Uiso   1.00
C409   C     0.42471   0.81822   0.02073   0.00000  Uiso   1.00
C410   C     0.57529   0.84844   0.47927   0.00000  Uiso   1.00
C411   C     0.35422   0.79736   0.22980   0.00000  Uiso   1.00
C412   C     0.64578   0.86931   0.27020   0.00000  Uiso   1.00
C413   C     0.64489   0.79774   0.22918   0.00000  Uiso   1.00
C414   C     0.35511   0.86893   0.27082   0.00000  Uiso   1.00
C415   C     0.62411   0.83359   0.24957   0.00000  Uiso   1.00
C416   C     0.37589   0.83308   0.25043   0.00000  Uiso   1.00
C417   C     0.52494   0.69076   0.27920   0.00000  Uiso   1.00
C418   C     0.47506   0.97591   0.22080   0.00000  Uiso   1.00
C419   C     0.47511   0.69052   0.22076   0.00000  Uiso   1.00
C420   C     0.52489   0.97615   0.27924   0.00000  Uiso   1.00
C421   C     0.49950   0.83332   0.16362   0.00000  Uiso   1.00
C422   C     0.50050   0.83335   0.33638   0.00000  Uiso   1.00
C423   C     0.53892   0.83850   0.40716   0.00000  Uiso   1.00
C424   C     0.46108   0.82817   0.09284   0.00000  Uiso   1.00
C425   C     0.50123   0.83333   0.38398   0.00000  Uiso   1.00
C426   C     0.49877   0.83334   0.11602   0.00000  Uiso   1.00
C427   C     0.46363   0.82765   0.40523   0.00000  Uiso   1.00
C428   C     0.53637   0.83902   0.09477   0.00000  Uiso   1.00
C429   C     0.46250   0.82639   0.45180   0.00000  Uiso   1.00
C430   C     0.53750   0.84028   0.04820   0.00000  Uiso   1.00
C431   C     0.50028   0.83329   0.47649   0.00000  Uiso   1.00
C432   C     0.49972   0.83338   0.02351   0.00000  Uiso   1.00
C433   C     0.53863   0.84007   0.45412   0.00000  Uiso   1.00
C434   C     0.46137   0.82659   0.04588   0.00000  Uiso   1.00
C435   C     0.42496   0.81832   0.47437   0.00000  Uiso   1.00
C436   C     0.57504   0.84835   0.02563   0.00000  Uiso   1.00
N437   N     0.50000   0.95240   0.25000   0.00000  Uiso   1.00
N438   N     0.50000   0.71427   0.25000   0.00000  Uiso   1.00
O439   O     0.43892   0.87154   0.24999   0.00000  Uiso   1.00
O440   O     0.56108   0.79513   0.25000   0.00000  Uiso   1.00
O441   O     0.56108   0.87154   0.25000   0.00000  Uiso   1.00
O442   O     0.43892   0.79513   0.24999   0.00000  Uiso   1.00
O443   O     0.49999   0.87156   0.18392   0.00000  Uiso   1.00
O444   O     0.50001   0.79511   0.31607   0.00000  Uiso   1.00
O445   O     0.50001   0.87156   0.31607   0.00000  Uiso   1.00
O446   O     0.49999   0.79511   0.18392   0.00000  Uiso   1.00
Zn447  Zn    0.50000   0.88437   0.25000   0.00000  Uiso   1.00
Zn448  Zn    0.50000   0.78229   0.25000   0.00000  Uiso   1.00
Br449  Br    0.58950   0.84047   0.37256   0.00000  Uiso   1.00
Br450  Br    0.41050   0.82619   0.12744   0.00000  Uiso   1.00
F451   F     0.42866   0.82367   0.37931   0.00000  Uiso   1.00
F452   F     0.57134   0.84300   0.12069   0.00000  Uiso   1.00
Br453  Br    0.37210   0.80546   0.44505   0.00000  Uiso   1.00
Br454  Br    0.62790   0.86121   0.05495   0.00000  Uiso   1.00
F455   F     0.38813   0.80826   0.04046   0.00000  Uiso   1.00
F456   F     0.61187   0.85841   0.45954   0.00000  Uiso   1.00
F457   F     0.37417   0.76281   0.20928   0.00000  Uiso   1.00
F458   F     0.62583   0.90386   0.29072   0.00000  Uiso   1.00
F459   F     0.62401   0.76378   0.20776   0.00000  Uiso   1.00
F460   F     0.37599   0.90288   0.29224   0.00000  Uiso   1.00
F461   F     0.55001   0.71354   0.30841   0.00000  Uiso   1.00
F462   F     0.44999   0.95312   0.19159   0.00000  Uiso   1.00
F463   F     0.45027   0.71304   0.19132   0.00000  Uiso   1.00
F464   F     0.54973   0.95362   0.30868   0.00000  Uiso   1.00
C465   C     0.75335   0.83325   0.25026   0.00000  Uiso   1.00
C466   C     0.91332   0.83341   0.24974   0.00000  Uiso   1.00
C467   C     0.75805   0.81822   0.02073   0.00000  Uiso   1.00
C468   C     0.90862   0.84844   0.47927   0.00000  Uiso   1.00
C469   C     0.68755   0.79736   0.22980   0.00000  Uiso   1.00
C470   C     0.97911   0.86931   0.27020   0.00000  Uiso   1.00
C471   C     0.97822   0.79774   0.22918   0.00000  Uiso   1.00
C472   C     0.68845   0.86893   0.27082   0.00000  Uiso   1.00
C473   C     0.95744   0.83359   0.24957   0.00000  Uiso   1.00
C474   C     0.70922   0.83308   0.25043   0.00000  Uiso   1.00
C475   C     0.85827   0.69076   0.27920   0.00000  Uiso   1.00
C476   C     0.80840   0.97591   0.22080   0.00000  Uiso   1.00
C477   C     0.80844   0.69052   0.22076   0.00000  Uiso   1.00
C478   C     0.85823   0.97615   0.27924   0.00000  Uiso   1.00
C479   C     0.83284   0.83332   0.16362   0.00000  Uiso   1.00
C480   C     0.83383   0.83335   0.33638   0.00000  Uiso   1.00
C481   C     0.87226   0.83850   0.40716   0.00000  Uiso   1.00
C482   C     0.79441   0.82817   0.09284   0.00000  Uiso   1.00
C483   C     0.83456   0.83333   0.38398   0.00000  Uiso   1.00
C484   C     0.83210   0.83334   0.11602   0.00000  Uiso   1.00
C485   C     0.79696   0.82765   0.40523   0.00000  Uiso   1.00
C486   C     0.86970   0.83902   0.09477   0.00000  Uiso   1.00
C487   C     0.79583   0.82639   0.45180   0.00000  Uiso   1.00
C488   C     0.87083   0.84028   0.04820   0.00000  Uiso   1.00
C489   C     0.83361   0.83329   0.47649   0.00000  Uiso   1.00
C490   C     0.83306   0.83338   0.02351   0.00000  Uiso   1.00
C491   C     0.87196   0.84007   0.45412   0.00000  Uiso   1.00
C492   C     0.79471   0.82659   0.04588   0.00000  Uiso   1.00
C493   C     0.75829   0.81832   0.47437   0.00000  Uiso   1.00
C494   C     0.90837   0.84835   0.02563   0.00000  Uiso   1.00
N495   N     0.83333   0.95240   0.25000   0.00000  Uiso   1.00
N496   N     0.83333   0.71427   0.25000   0.00000  Uiso   1.00
O497   O     0.77226   0.87154   0.24999   0.00000  Uiso   1.00
O498   O     0.89441   0.79513   0.25000   0.00000  Uiso   1.00
O499   O     0.89441   0.87154   0.25000   0.00000  Uiso   1.00
O500   O     0.77226   0.79513   0.24999   0.00000  Uiso   1.00
O501   O     0.83333   0.87156   0.18392   0.00000  Uiso   1.00
O502   O     0.83334   0.79511   0.31607   0.00000  Uiso   1.00
O503   O     0.83334   0.87156   0.31607   0.00000  Uiso   1.00
O504   O     0.83333   0.79511   0.18392   0.00000  Uiso   1.00
Zn505  Zn    0.83333   0.88437   0.25000   0.00000  Uiso   1.00
Zn506  Zn    0.83333   0.78229   0.25000   0.00000  Uiso   1.00
Br507  Br    0.92284   0.84047   0.37256   0.00000  Uiso   1.00
Br508  Br    0.74383   0.82619   0.12744   0.00000  Uiso   1.00
F509   F     0.76200   0.82367   0.37931   0.00000  Uiso   1.00
F510   F     0.90467   0.84300   0.12069   0.00000  Uiso   1.00
Br511  Br    0.70543   0.80546   0.44505   0.00000  Uiso   1.00
Br512  Br    0.96123   0.86121   0.05495   0.00000  Uiso   1.00
F513   F     0.72146   0.80826   0.04046   0.00000  Uiso   1.00
F514   F     0.94521   0.85841   0.45954   0.00000  Uiso   1.00
F515   F     0.70751   0.76281   0.20928   0.00000  Uiso   1.00
F516   F     0.95916   0.90386   0.29072   0.00000  Uiso   1.00
F517   F     0.95734   0.76378   0.20776   0.00000  Uiso   1.00
F518   F     0.70933   0.90288   0.29224   0.00000  Uiso   1.00
F519   F     0.88334   0.71354   0.30841   0.00000  Uiso   1.00
F520   F     0.78332   0.95312   0.19159   0.00000  Uiso   1.00
F521   F     0.78361   0.71304   0.19132   0.00000  Uiso   1.00
F522   F     0.88306   0.95362   0.30868   0.00000  Uiso   1.00
C523   C     0.08668   0.16659   0.75026   0.00000  Uiso   1.00
C524   C     0.24665   0.16675   0.74974   0.00000  Uiso   1.00
C525   C     0.09138   0.15155   0.52073   0.00000  Uiso   1.00
C526   C     0.24195   0.18178   0.97927   0.00000  Uiso   1.00
C527   C     0.02089   0.13069   0.72980   0.00000  Uiso   1.00
C528   C     0.31245   0.20264   0.77020   0.00000  Uiso   1.00
C529   C     0.31155   0.13107   0.72918   0.00000  Uiso   1.00
C530   C     0.02178   0.20226   0.77082   0.00000  Uiso   1.00
C531   C     0.29078   0.16692   0.74957   0.00000  Uiso   1.00
C532   C     0.04256   0.16641   0.75043   0.00000  Uiso   1.00
C533   C     0.19160   0.02409   0.77920   0.00000  Uiso   1.00
C534   C     0.14173   0.30924   0.72080   0.00000  Uiso   1.00
C535   C     0.14177   0.02385   0.72076   0.00000  Uiso   1.00
C536   C     0.19156   0.30948   0.77924   0.00000  Uiso   1.00
C537   C     0.16617   0.16665   0.66362   0.00000  Uiso   1.00
C538   C     0.16716   0.16668   0.83638   0.00000  Uiso   1.00
C539   C     0.20559   0.17183   0.90716   0.00000  Uiso   1.00
C540   C     0.12774   0.16150   0.59284   0.00000  Uiso   1.00
C541   C     0.16790   0.16666   0.88398   0.00000  Uiso   1.00
C542   C     0.16544   0.16667   0.61602   0.00000  Uiso   1.00
C543   C     0.13030   0.16098   0.90523   0.00000  Uiso   1.00
C544   C     0.20304   0.17235   0.59477   0.00000  Uiso   1.00
C545   C     0.12917   0.15972   0.95180   0.00000  Uiso   1.00
C546   C     0.20417   0.17361   0.54820   0.00000  Uiso   1.00
C547   C     0.16694   0.16662   0.97649   0.00000  Uiso   1.00
C548   C     0.16639   0.16671   0.52351   0.00000  Uiso   1.00
C549   C     0.20529   0.17341   0.95412   0.00000  Uiso   1.00
C550   C     0.12804   0.15993   0.54588   0.00000  Uiso   1.00
C551   C     0.09163   0.15165   0.97437   0.00000  Uiso   1.00
C552   C     0.24171   0.18168   0.52563   0.00000  Uiso   1.00
N553   N     0.16667   0.28573   0.75000   0.00000  Uiso   1.00
N554   N     0.16667   0.04760   0.75000   0.00000  Uiso   1.00
O555   O     0.10559   0.20487   0.74999   0.00000  Uiso   1.00
O556   O     0.22774   0.12846   0.75000   0.00000  Uiso   1.00
O557   O     0.22774   0.20487   0.75000   0.00000  Uiso   1.00
O558   O     0.10559   0.12846   0.74999   0.00000  Uiso   1.00
O559   O     0.16666   0.20489   0.68392   0.00000  Uiso   1.00
O560   O     0.16667   0.12844   0.81607   0.00000  Uiso   1.00
O561   O     0.16667   0.20489   0.81607   0.00000  Uiso   1.00
O562   O     0.16666   0.12844   0.68392   0.00000  Uiso   1.00
Zn563  Zn    0.16667   0.21771   0.75000   0.00000  Uiso   1.00
Zn564  Zn    0.16667   0.11563   0.75000   0.00000  Uiso   1.00
Br565  Br    0.25617   0.17381   0.87256   0.00000  Uiso   1.00
Br566  Br    0.07716   0.15953   0.62744   0.00000  Uiso   1.00
F567   F     0.09533   0.15700   0.87931   0.00000  Uiso   1.00
F568   F     0.23800   0.17633   0.62069   0.00000  Uiso   1.00
Br569  Br    0.03877   0.13879   0.94505   0.00000  Uiso   1.00
Br570  Br    0.29457   0.19454   0.55495   0.00000  Uiso   1.00
F571   F     0.05479   0.14159   0.54046   0.00000  Uiso   1.00
F572   F     0.27854   0.19174   0.95954   0.00000  Uiso   1.00
F573   F     0.04084   0.09614   0.70928   0.00000  Uiso   1.00
F574   F     0.29249   0.23719   0.79072   0.00000  Uiso   1.00
F575   F     0.29067   0.09712   0.70776   0.00000  Uiso   1.00
F576   F     0.04266   0.23622   0.79224   0.00000  Uiso   1.00
F577   F     0.21668   0.04688   0.80841   0.00000  Uiso   1.00
F578   F     0.11666   0.28646   0.69159   0.00000  Uiso   1.00
F579   F     0.11694   0.04638   0.69132   0.00000  Uiso   1.00
F580   F     0.21639   0.28696   0.80868   0.00000  Uiso   1.00
C581   C     0.42002   0.16659   0.75026   0.00000  Uiso   1.00
C582   C     0.57998   0.16675   0.74974   0.00000  Uiso   1.00
C583   C     0.42471   0.15155   0.52073   0.00000  Uiso   1.00
C584   C     0.57529   0.18178   0.97927   0.00000  Uiso   1.00
C585   C     0.35422   0.13069   0.72980   0.00000  Uiso   1.00
C586   C     0.64578   0.20264   0.77020   0.00000  Uiso   1.00
C587   C     0.64489   0.13107   0.72918   0.00000  Uiso   1.00
C588   C     0.35511   0.20226   0.77082   0.00000  Uiso   1.00
C589   C     0.62411   0.16692   0.74957   0.00000  Uiso   1.00
C590   C     0.37589   0.16641   0.75043   0.00000  Uiso   1.00
C591   C     0.52494   0.02409   0.77920   0.00000  Uiso   1.00
C592   C     0.47506   0.30924   0.72080   0.00000  Uiso   1.00
C593   C     0.47511   0.02385   0.72076   0.00000  Uiso   1.00
C594   C     0.52489   0.30948   0.77924   0.00000  Uiso   1.00
C595   C     0.49950   0.16665   0.66362   0.00000  Uiso   1.00
C596   C     0.50050   0.16668   0.83638   0.00000  Uiso   1.00
C597   C     0.53892   0.17183   0.90716   0.00000  Uiso   1.00
C598   C     0.46108   0.16150   0.59284   0.00000  Uiso   1.00
C599   C     0.50123   0.16666   0.88398   0.00000  Uiso   1.00
C600   C     0.49877   0.16667   0.61602   0.00000  Uiso   1.00
C601   C     0.46363   0.16098   0.90523   0.00000  Uiso   1.00
C602   C     0.53637   0.17235   0.59477   0.00000  Uiso   1.00
C603   C     0.46250   0.15972   0.95180   0.00000  Uiso   1.00
C604   C     0.53750   0.17361   0.54820   0.00000  Uiso   1.00
C605   C     0.50028   0.16662   0.97649   0.00000  Uiso   1.00
C606   C     0.49972   0.16671   0.52351   0.00000  Uiso   1.00
C607   C     0.53863   0.17341   0.95412   0.00000  Uiso   1.00
C608   C     0.46137   0.15993   0.54588   0.00000  Uiso   1.00
C609   C     0.42496   0.15165   0.97437   0.00000  Uiso   1.00
C610   C     0.57504   0.18168   0.52563   0.00000  Uiso   1.00
N611   N     0.50000   0.28573   0.75000   0.00000  Uiso   1.00
N612   N     0.50000   0.04760   0.75000   0.00000  Uiso   1.00
O613   O     0.43892   0.20487   0.74999   0.00000  Uiso   1.00
O614   O     0.56108   0.12846   0.75000   0.00000  Uiso   1.00
O615   O     0.56108   0.20487   0.75000   0.00000  Uiso   1.00
O616   O     0.43892   0.12846   0.74999   0.00000  Uiso   1.00
O617   O     0.49999   0.20489   0.68392   0.00000  Uiso   1.00
O618   O     0.50001   0.12844   0.81607   0.00000  Uiso   1.00
O619   O     0.50001   0.20489   0.81607   0.00000  Uiso   1.00
O620   O     0.49999   0.12844   0.68392   0.00000  Uiso   1.00
Zn621  Zn    0.50000   0.21771   0.75000   0.00000  Uiso   1.00
Zn622  Zn    0.50000   0.11563   0.75000   0.00000  Uiso   1.00
Br623  Br    0.58950   0.17381   0.87256   0.00000  Uiso   1.00
Br624  Br    0.41050   0.15953   0.62744   0.00000  Uiso   1.00
F625   F     0.42866   0.15700   0.87931   0.00000  Uiso   1.00
F626   F     0.57134   0.17633   0.62069   0.00000  Uiso   1.00
Br627  Br    0.37210   0.13879   0.94505   0.00000  Uiso   1.00
Br628  Br    0.62790   0.19454   0.55495   0.00000  Uiso   1.00
F629   F     0.38813   0.14159   0.54046   0.00000  Uiso   1.00
F630   F     0.61187   0.19174   0.95954   0.00000  Uiso   1.00
F631   F     0.37417   0.09614   0.70928   0.00000  Uiso   1.00
F632   F     0.62583   0.23719   0.79072   0.00000  Uiso   1.00
F633   F     0.62401   0.09712   0.70776   0.00000  Uiso   1.00
F634   F     0.37599   0.23622   0.79224   0.00000  Uiso   1.00
F635   F     0.55001   0.04688   0.80841   0.00000  Uiso   1.00
F636   F     0.44999   0.28646   0.69159   0.00000  Uiso   1.00
F637   F     0.45027   0.04638   0.69132   0.00000  Uiso   1.00
F638   F     0.54973   0.28696   0.80868   0.00000  Uiso   1.00
C639   C     0.75335   0.16659   0.75026   0.00000  Uiso   1.00
C640   C     0.91332   0.16675   0.74974   0.00000  Uiso   1.00
C641   C     0.75805   0.15155   0.52073   0.00000  Uiso   1.00
C642   C     0.90862   0.18178   0.97927   0.00000  Uiso   1.00
C643   C     0.68755   0.13069   0.72980   0.00000  Uiso   1.00
C644   C     0.97911   0.20264   0.77020   0.00000  Uiso   1.00
C645   C     0.97822   0.13107   0.72918   0.00000  Uiso   1.00
C646   C     0.68845   0.20226   0.77082   0.00000  Uiso   1.00
C647   C     0.95744   0.16692   0.74957   0.00000  Uiso   1.00
C648   C     0.70922   0.16641   0.75043   0.00000  Uiso   1.00
C649   C     0.85827   0.02409   0.77920   0.00000  Uiso   1.00
C650   C     0.80840   0.30924   0.72080   0.00000  Uiso   1.00
C651   C     0.80844   0.02385   0.72076   0.00000  Uiso   1.00
C652   C     0.85823   0.30948   0.77924   0.00000  Uiso   1.00
C653   C     0.83284   0.16665   0.66362   0.00000  Uiso   1.00
C654   C     0.83383   0.16668   0.83638   0.00000  Uiso   1.00
C655   C     0.87226   0.17183   0.90716   0.00000  Uiso   1.00
C656   C     0.79441   0.16150   0.59284   0.00000  Uiso   1.00
C657   C     0.83456   0.16666   0.88398   0.00000  Uiso   1.00
C658   C     0.83210   0.16667   0.61602   0.00000  Uiso   1.00
C659   C     0.79696   0.16098   0.90523   0.00000  Uiso   1.00
C660   C     0.86970   0.17235   0.59477   0.00000  Uiso   1.00
C661   C     0.79583   0.15972   0.95180   0.00000  Uiso   1.00
C662   C     0.87083   0.17361   0.54820   0.00000  Uiso   1.00
C663   C     0.83361   0.16662   0.97649   0.00000  Uiso   1.00
C664   C     0.83306   0.16671   0.52351   0.00000  Uiso   1.00
C665   C     0.87196   0.17341   0.95412   0.00000  Uiso   1.00
C666   C     0.79471   0.15993   0.54588   0.00000  Uiso   1.00
C667   C     0.75829   0.15165   0.97437   0.00000  Uiso   1.00
C668   C     0.90837   0.18168   0.52563   0.00000  Uiso   1.00
N669   N     0.83333   0.28573   0.75000   0.00000  Uiso   1.00
N670   N     0.83333   0.04760   0.75000   0.00000  Uiso   1.00
O671   O     0.77226   0.20487   0.74999   0.00000  Uiso   1.00
O672   O     0.89441   0.12846   0.75000   0.00000  Uiso   1.00
O673   O     0.89441   0.20487   0.75000   0.00000  Uiso   1.00
O674   O     0.77226   0.12846   0.74999   0.00000  Uiso   1.00
O675   O     0.83333   0.20489   0.68392   0.00000  Uiso   1.00
O676   O     0.83334   0.12844   0.81607   0.00000  Uiso   1.00
O677   O     0.83334   0.20489   0.81607   0.00000  Uiso   1.00
O678   O     0.83333   0.12844   0.68392   0.00000  Uiso   1.00
Zn679  Zn    0.83333   0.21771   0.75000   0.00000  Uiso   1.00
Zn680  Zn    0.83333   0.11563   0.75000   0.00000  Uiso   1.00
Br681  Br    0.92284   0.17381   0.87256   0.00000  Uiso   1.00
Br682  Br    0.74383   0.15953   0.62744   0.00000  Uiso   1.00
F683   F     0.76200   0.15700   0.87931   0.00000  Uiso   1.00
F684   F     0.90467   0.17633   0.62069   0.00000  Uiso   1.00
Br685  Br    0.70543   0.13879   0.94505   0.00000  Uiso   1.00
Br686  Br    0.96123   0.19454   0.55495   0.00000  Uiso   1.00
F687   F     0.72146   0.14159   0.54046   0.00000  Uiso   1.00
F688   F     0.94521   0.19174   0.95954   0.00000  Uiso   1.00
F689   F     0.70751   0.09614   0.70928   0.00000  Uiso   1.00
F690   F     0.95916   0.23719   0.79072   0.00000  Uiso   1.00
F691   F     0.95734   0.09712   0.70776   0.00000  Uiso   1.00
F692   F     0.70933   0.23622   0.79224   0.00000  Uiso   1.00
F693   F     0.88334   0.04688   0.80841   0.00000  Uiso   1.00
F694   F     0.78332   0.28646   0.69159   0.00000  Uiso   1.00
F695   F     0.78361   0.04638   0.69132   0.00000  Uiso   1.00
F696   F     0.88306   0.28696   0.80868   0.00000  Uiso   1.00
C697   C     0.08668   0.49992   0.75026   0.00000  Uiso   1.00
C698   C     0.24665   0.50008   0.74974   0.00000  Uiso   1.00
C699   C     0.09138   0.48489   0.52073   0.00000  Uiso   1.00
C700   C     0.24195   0.51511   0.97927   0.00000  Uiso   1.00
C701   C     0.02089   0.46403   0.72980   0.00000  Uiso   1.00
C702   C     0.31245   0.53597   0.77020   0.00000  Uiso   1.00
C703   C     0.31155   0.46441   0.72918   0.00000  Uiso   1.00
C704   C     0.02178   0.53559   0.77082   0.00000  Uiso   1.00
C705   C     0.29078   0.50025   0.74957   0.00000  Uiso   1.00
C706   C     0.04256   0.49975   0.75043   0.00000  Uiso   1.00
C707   C     0.19160   0.35743   0.77920   0.00000  Uiso   1.00
C708   C     0.14173   0.64257   0.72080   0.00000  Uiso   1.00
C709   C     0.14177   0.35718   0.72076   0.00000  Uiso   1.00
C710   C     0.19156   0.64282   0.77924   0.00000  Uiso   1.00
C711   C     0.16617   0.49999   0.66362   0.00000  Uiso   1.00
C712   C     0.16716   0.50001   0.83638   0.00000  Uiso   1.00
C713   C     0.20559   0.50516   0.90716   0.00000  Uiso   1.00
C714   C     0.12774   0.49484   0.59284   0.00000  Uiso   1.00
C715   C     0.16790   0.50000   0.88398   0.00000  Uiso   1.00
C716   C     0.16544   0.50000   0.61602   0.00000  Uiso   1.00
C717   C     0.13030   0.49431   0.90523   0.00000  Uiso   1.00
C718   C     0.20304   0.50569   0.59477   0.00000  Uiso   1.00
C719   C     0.12917   0.49306   0.95180   0.00000  Uiso   1.00
C720   C     0.20417   0.50694   0.54820   0.00000  Uiso   1.00
C721   C     0.16694   0.49996   0.97649   0.00000  Uiso   1.00
C722   C     0.16639   0.50004   0.52351   0.00000  Uiso   1.00
C723   C     0.20529   0.50674   0.95412   0.00000  Uiso   1.00
C724   C     0.12804   0.49326   0.54588   0.00000  Uiso   1.00
C725   C     0.09163   0.48498   0.97437   0.00000  Uiso   1.00
C726   C     0.24171   0.51502   0.52563   0.00000  Uiso   1.00
N727   N     0.16667   0.61907   0.75000   0.00000  Uiso   1.00
N728   N     0.16667   0.38093   0.75000   0.00000  Uiso   1.00
O729   O     0.10559   0.53821   0.74999   0.00000  Uiso   1.00
O730   O     0.22774   0.46179   0.75000   0.00000  Uiso   1.00
O731   O     0.22774   0.53821   0.75000   0.00000  Uiso   1.00
O732   O     0.10559   0.46179   0.74999   0.00000  Uiso   1.00
O733   O     0.16666   0.53823   0.68392   0.00000  Uiso   1.00
O734   O     0.16667   0.46177   0.81607   0.00000  Uiso   1.00
O735   O     0.16667   0.53823   0.81607   0.00000  Uiso   1.00
O736   O     0.16666   0.46177   0.68392   0.00000  Uiso   1.00
Zn737  Zn    0.16667   0.55104   0.75000   0.00000  Uiso   1.00
Zn738  Zn    0.16667   0.44896   0.75000   0.00000  Uiso   1.00
Br739  Br    0.25617   0.50714   0.87256   0.00000  Uiso   1.00
Br740  Br    0.07716   0.49286   0.62744   0.00000  Uiso   1.00
F741   F     0.09533   0.49034   0.87931   0.00000  Uiso   1.00
F742   F     0.23800   0.50966   0.62069   0.00000  Uiso   1.00
Br743  Br    0.03877   0.47213   0.94505   0.00000  Uiso   1.00
Br744  Br    0.29457   0.52787   0.55495   0.00000  Uiso   1.00
F745   F     0.05479   0.47492   0.54046   0.00000  Uiso   1.00
F746   F     0.27854   0.52508   0.95954   0.00000  Uiso   1.00
F747   F     0.04084   0.42947   0.70928   0.00000  Uiso   1.00
F748   F     0.29249   0.57053   0.79072   0.00000  Uiso   1.00
F749   F     0.29067   0.43045   0.70776   0.00000  Uiso   1.00
F750   F     0.04266   0.56955   0.79224   0.00000  Uiso   1.00
F751   F     0.21668   0.38021   0.80841   0.00000  Uiso   1.00
F752   F     0.11666   0.61979   0.69159   0.00000  Uiso   1.00
F753   F     0.11694   0.37971   0.69132   0.00000  Uiso   1.00
F754   F     0.21639   0.62029   0.80868   0.00000  Uiso   1.00
C755   C     0.42002   0.49992   0.75026   0.00000  Uiso   1.00
C756   C     0.57998   0.50008   0.74974   0.00000  Uiso   1.00
C757   C     0.42471   0.48489   0.52073   0.00000  Uiso   1.00
C758   C     0.57529   0.51511   0.97927   0.00000  Uiso   1.00
C759   C     0.35422   0.46403   0.72980   0.00000  Uiso   1.00
C760   C     0.64578   0.53597   0.77020   0.00000  Uiso   1.00
C761   C     0.64489   0.46441   0.72918   0.00000  Uiso   1.00
C762   C     0.35511   0.53559   0.77082   0.00000  Uiso   1.00
C763   C     0.62411   0.50025   0.74957   0.00000  Uiso   1.00
C764   C     0.37589   0.49975   0.75043   0.00000  Uiso   1.00
C765   C     0.52494   0.35743   0.77920   0.00000  Uiso   1.00
C766   C     0.47506   0.64257   0.72080   0.00000  Uiso   1.00
C767   C     0.47511   0.35718   0.72076   0.00000  Uiso   1.00
C768   C     0.52489   0.64282   0.77924   0.00000  Uiso   1.00
C769   C     0.49950   0.49999   0.66362   0.00000  Uiso   1.00
C770   C     0.50050   0.50001   0.83638   0.00000  Uiso   1.00
C771   C     0.53892   0.50516   0.90716   0.00000  Uiso   1.00
C772   C     0.46108   0.49484   0.59284   0.00000  Uiso   1.00
C773   C     0.50123   0.50000   0.88398   0.00000  Uiso   1.00
C774   C     0.49877   0.50000   0.61602   0.00000  Uiso   1.00
C775   C     0.46363   0.49431   0.90523   0.00000  Uiso   1.00
C776   C     0.53637   0.50569   0.59477   0.00000  Uiso   1.00
C777   C     0.46250   0.49306   0.95180   0.00000  Uiso   1.00
C778   C     0.53750   0.50694   0.54820   0.00000  Uiso   1.00
C779   C     0.50028   0.49996   0.97649   0.00000  Uiso   1.00
C780   C     0.49972   0.50004   0.52351   0.00000  Uiso   1.00
C781   C     0.53863   0.50674   0.95412   0.00000  Uiso   1.00
C782   C     0.46137   0.49326   0.54588   0.00000  Uiso   1.00
C783   C     0.42496   0.48498   0.97437   0.00000  Uiso   1.00
C784   C     0.57504   0.51502   0.52563   0.00000  Uiso   1.00
N785   N     0.50000   0.61907   0.75000   0.00000  Uiso   1.00
N786   N     0.50000   0.38093   0.75000   0.00000  Uiso   1.00
O787   O     0.43892   0.53821   0.74999   0.00000  Uiso   1.00
O788   O     0.56108   0.46179   0.75000   0.00000  Uiso   1.00
O789   O     0.56108   0.53821   0.75000   0.00000  Uiso   1.00
O790   O     0.43892   0.46179   0.74999   0.00000  Uiso   1.00
O791   O     0.49999   0.53823   0.68392   0.00000  Uiso   1.00
O792   O     0.50001   0.46177   0.81607   0.00000  Uiso   1.00
O793   O     0.50001   0.53823   0.81607   0.00000  Uiso   1.00
O794   O     0.49999   0.46177   0.68392   0.00000  Uiso   1.00
Zn795  Zn    0.50000   0.55104   0.75000   0.00000  Uiso   1.00
Zn796  Zn    0.50000   0.44896   0.75000   0.00000  Uiso   1.00
Br797  Br    0.58950   0.50714   0.87256   0.00000  Uiso   1.00
Br798  Br    0.41050   0.49286   0.62744   0.00000  Uiso   1.00
F799   F     0.42866   0.49034   0.87931   0.00000  Uiso   1.00
F800   F     0.57134   0.50966   0.62069   0.00000  Uiso   1.00
Br801  Br    0.37210   0.47213   0.94505   0.00000  Uiso   1.00
Br802  Br    0.62790   0.52787   0.55495   0.00000  Uiso   1.00
F803   F     0.38813   0.47492   0.54046   0.00000  Uiso   1.00
F804   F     0.61187   0.52508   0.95954   0.00000  Uiso   1.00
F805   F     0.37417   0.42947   0.70928   0.00000  Uiso   1.00
F806   F     0.62583   0.57053   0.79072   0.00000  Uiso   1.00
F807   F     0.62401   0.43045   0.70776   0.00000  Uiso   1.00
F808   F     0.37599   0.56955   0.79224   0.00000  Uiso   1.00
F809   F     0.55001   0.38021   0.80841   0.00000  Uiso   1.00
F810   F     0.44999   0.61979   0.69159   0.00000  Uiso   1.00
F811   F     0.45027   0.37971   0.69132   0.00000  Uiso   1.00
F812   F     0.54973   0.62029   0.80868   0.00000  Uiso   1.00
C813   C     0.75335   0.49992   0.75026   0.00000  Uiso   1.00
C814   C     0.91332   0.50008   0.74974   0.00000  Uiso   1.00
C815   C     0.75805   0.48489   0.52073   0.00000  Uiso   1.00
C816   C     0.90862   0.51511   0.97927   0.00000  Uiso   1.00
C817   C     0.68755   0.46403   0.72980   0.00000  Uiso   1.00
C818   C     0.97911   0.53597   0.77020   0.00000  Uiso   1.00
C819   C     0.97822   0.46441   0.72918   0.00000  Uiso   1.00
C820   C     0.68845   0.53559   0.77082   0.00000  Uiso   1.00
C821   C     0.95744   0.50025   0.74957   0.00000  Uiso   1.00
C822   C     0.70922   0.49975   0.75043   0.00000  Uiso   1.00
C823   C     0.85827   0.35743   0.77920   0.00000  Uiso   1.00
C824   C     0.80840   0.64257   0.72080   0.00000  Uiso   1.00
C825   C     0.80844   0.35718   0.72076   0.00000  Uiso   1.00
C826   C     0.85823   0.64282   0.77924   0.00000  Uiso   1.00
C827   C     0.83284   0.49999   0.66362   0.00000  Uiso   1.00
C828   C     0.83383   0.50001   0.83638   0.00000  Uiso   1.00
C829   C     0.87226   0.50516   0.90716   0.00000  Uiso   1.00
C830   C     0.79441   0.49484   0.59284   0.00000  Uiso   1.00
C831   C     0.83456   0.50000   0.88398   0.00000  Uiso   1.00
C832   C     0.83210   0.50000   0.61602   0.00000  Uiso   1.00
C833   C     0.79696   0.49431   0.90523   0.00000  Uiso   1.00
C834   C     0.86970   0.50569   0.59477   0.00000  Uiso   1.00
C835   C     0.79583   0.49306   0.95180   0.00000  Uiso   1.00
C836   C     0.87083   0.50694   0.54820   0.00000  Uiso   1.00
C837   C     0.83361   0.49996   0.97649   0.00000  Uiso   1.00
C838   C     0.83306   0.50004   0.52351   0.00000  Uiso   1.00
C839   C     0.87196   0.50674   0.95412   0.00000  Uiso   1.00
C840   C     0.79471   0.49326   0.54588   0.00000  Uiso   1.00
C841   C     0.75829   0.48498   0.97437   0.00000  Uiso   1.00
C842   C     0.90837   0.51502   0.52563   0.00000  Uiso   1.00
N843   N     0.83333   0.61907   0.75000   0.00000  Uiso   1.00
N844   N     0.83333   0.38093   0.75000   0.00000  Uiso   1.00
O845   O     0.77226   0.53821   0.74999   0.00000  Uiso   1.00
O846   O     0.89441   0.46179   0.75000   0.00000  Uiso   1.00
O847   O     0.89441   0.53821   0.75000   0.00000  Uiso   1.00
O848   O     0.77226   0.46179   0.74999   0.00000  Uiso   1.00
O849   O     0.83333   0.53823   0.68392   0.00000  Uiso   1.00
O850   O     0.83334   0.46177   0.81607   0.00000  Uiso   1.00
O851   O     0.83334   0.53823   0.81607   0.00000  Uiso   1.00
O852   O     0.83333   0.46177   0.68392   0.00000  Uiso   1.00
Zn853  Zn    0.83333   0.55104   0.75000   0.00000  Uiso   1.00
Zn854  Zn    0.83333   0.44896   0.75000   0.00000  Uiso   1.00
Br855  Br    0.92284   0.50714   0.87256   0.00000  Uiso   1.00
Br856  Br    0.74383   0.49286   0.62744   0.00000  Uiso   1.00
F857   F     0.76200   0.49034   0.87931   0.00000  Uiso   1.00
F858   F     0.90467   0.50966   0.62069   0.00000  Uiso   1.00
Br859  Br    0.70543   0.47213   0.94505   0.00000  Uiso   1.00
Br860  Br    0.96123   0.52787   0.55495   0.00000  Uiso   1.00
F861   F     0.72146   0.47492   0.54046   0.00000  Uiso   1.00
F862   F     0.94521   0.52508   0.95954   0.00000  Uiso   1.00
F863   F     0.70751   0.42947   0.70928   0.00000  Uiso   1.00
F864   F     0.95916   0.57053   0.79072   0.00000  Uiso   1.00
F865   F     0.95734   0.43045   0.70776   0.00000  Uiso   1.00
F866   F     0.70933   0.56955   0.79224   0.00000  Uiso   1.00
F867   F     0.88334   0.38021   0.80841   0.00000  Uiso   1.00
F868   F     0.78332   0.61979   0.69159   0.00000  Uiso   1.00
F869   F     0.78361   0.37971   0.69132   0.00000  Uiso   1.00
F870   F     0.88306   0.62029   0.80868   0.00000  Uiso   1.00
C871   C     0.08668   0.83325   0.75026   0.00000  Uiso   1.00
C872   C     0.24665   0.83341   0.74974   0.00000  Uiso   1.00
C873   C     0.09138   0.81822   0.52073   0.00000  Uiso   1.00
C874   C     0.24195   0.84844   0.97927   0.00000  Uiso   1.00
C875   C     0.02089   0.79736   0.72980   0.00000  Uiso   1.00
C876   C     0.31245   0.86931   0.77020   0.00000  Uiso   1.00
C877   C     0.31155   0.79774   0.72918   0.00000  Uiso   1.00
C878   C     0.02178   0.86893   0.77082   0.00000  Uiso   1.00
C879   C     0.29078   0.83359   0.74957   0.00000  Uiso   1.00
C880   C     0.04256   0.83308   0.75043   0.00000  Uiso   1.00
C881   C     0.19160   0.69076   0.77920   0.00000  Uiso   1.00
C882   C     0.14173   0.97591   0.72080   0.00000  Uiso   1.00
C883   C     0.14177   0.69052   0.72076   0.00000  Uiso   1.00
C884   C     0.19156   0.97615   0.77924   0.00000  Uiso   1.00
C885   C     0.16617   0.83332   0.66362   0.00000  Uiso   1.00
C886   C     0.16716   0.83335   0.83638   0.00000  Uiso   1.00
C887   C     0.20559   0.83850   0.90716   0.00000  Uiso   1.00
C888   C     0.12774   0.82817   0.59284   0.00000  Uiso   1.00
C889   C     0.16790   0.83333   0.88398   0.00000  Uiso   1.00
C890   C     0.16544   0.83334   0.61602   0.00000  Uiso   1.00
C891   C     0.13030   0.82765   0.90523   0.00000  Uiso   1.00
C892   C     0.20304   0.83902   0.59477   0.00000  Uiso   1.00
C893   C     0.12917   0.82639   0.95180   0.00000  Uiso   1.00
C894   C     0.20417   0.84028   0.54820   0.00000  Uiso   1.00
C895   C     0.16694   0.83329   0.97649   0.00000  Uiso   1.00
C896   C     0.16639   0.83338   0.52351   0.00000  Uiso   1.00
C897   C     0.20529   0.84007   0.95412   0.00000  Uiso   1.00
C898   C     0.12804   0.82659   0.54588   0.00000  Uiso   1.00
C899   C     0.09163   0.81832   0.97437   0.00000  Uiso   1.00
C900   C     0.24171   0.84835   0.52563   0.00000  Uiso   1.00
N901   N     0.16667   0.95240   0.75000   0.00000  Uiso   1.00
N902   N     0.16667   0.71427   0.75000   0.00000  Uiso   1.00
O903   O     0.10559   0.87154   0.74999   0.00000  Uiso   1.00
O904   O     0.22774   0.79513   0.75000   0.00000  Uiso   1.00
O905   O     0.22774   0.87154   0.75000   0.00000  Uiso   1.00
O906   O     0.10559   0.79513   0.74999   0.00000  Uiso   1.00
O907   O     0.16666   0.87156   0.68392   0.00000  Uiso   1.00
O908   O     0.16667   0.79511   0.81607   0.00000  Uiso   1.00
O909   O     0.16667   0.87156   0.81607   0.00000  Uiso   1.00
O910   O     0.16666   0.79511   0.68392   0.00000  Uiso   1.00
Zn911  Zn    0.16667   0.88437   0.75000   0.00000  Uiso   1.00
Zn912  Zn    0.16667   0.78229   0.75000   0.00000  Uiso   1.00
Br913  Br    0.25617   0.84047   0.87256   0.00000  Uiso   1.00
Br914  Br    0.07716   0.82619   0.62744   0.00000  Uiso   1.00
F915   F     0.09533   0.82367   0.87931   0.00000  Uiso   1.00
F916   F     0.23800   0.84300   0.62069   0.00000  Uiso   1.00
Br917  Br    0.03877   0.80546   0.94505   0.00000  Uiso   1.00
Br918  Br    0.29457   0.86121   0.55495   0.00000  Uiso   1.00
F919   F     0.05479   0.80826   0.54046   0.00000  Uiso   1.00
F920   F     0.27854   0.85841   0.95954   0.00000  Uiso   1.00
F921   F     0.04084   0.76281   0.70928   0.00000  Uiso   1.00
F922   F     0.29249   0.90386   0.79072   0.00000  Uiso   1.00
F923   F     0.29067   0.76378   0.70776   0.00000  Uiso   1.00
F924   F     0.04266   0.90288   0.79224   0.00000  Uiso   1.00
F925   F     0.21668   0.71354   0.80841   0.00000  Uiso   1.00
F926   F     0.11666   0.95312   0.69159   0.00000  Uiso   1.00
F927   F     0.11694   0.71304   0.69132   0.00000  Uiso   1.00
F928   F     0.21639   0.95362   0.80868   0.00000  Uiso   1.00
C929   C     0.42002   0.83325   0.75026   0.00000  Uiso   1.00
C930   C     0.57998   0.83341   0.74974   0.00000  Uiso   1.00
C931   C     0.42471   0.81822   0.52073   0.00000  Uiso   1.00
C932   C     0.57529   0.84844   0.97927   0.00000  Uiso   1.00
C933   C     0.35422   0.79736   0.72980   0.00000  Uiso   1.00
C934   C     0.64578   0.86931   0.77020   0.00000  Uiso   1.00
C935   C     0.64489   0.79774   0.72918   0.00000  Uiso   1.00
C936   C     0.35511   0.86893   0.77082   0.00000  Uiso   1.00
C937   C     0.62411   0.83359   0.74957   0.00000  Uiso   1.00
C938   C     0.37589   0.83308   0.75043   0.00000  Uiso   1.00
C939   C     0.52494   0.69076   0.77920   0.00000  Uiso   1.00
C940   C     0.47506   0.97591   0.72080   0.00000  Uiso   1.00
C941   C     0.47511   0.69052   0.72076   0.00000  Uiso   1.00
C942   C     0.52489   0.97615   0.77924   0.00000  Uiso   1.00
C943   C     0.49950   0.83332   0.66362   0.00000  Uiso   1.00
C944   C     0.50050   0.83335   0.83638   0.00000  Uiso   1.00
C945   C     0.53892   0.83850   0.90716   0.00000  Uiso   1.00
C946   C     0.46108   0.82817   0.59284   0.00000  Uiso   1.00
C947   C     0.50123   0.83333   0.88398   0.00000  Uiso   1.00
C948   C     0.49877   0.83334   0.61602   0.00000  Uiso   1.00
C949   C     0.46363   0.82765   0.90523   0.00000  Uiso   1.00
C950   C     0.53637   0.83902   0.59477   0.00000  Uiso   1.00
C951   C     0.46250   0.82639   0.95180   0.00000  Uiso   1.00
C952   C     0.53750   0.84028   0.54820   0.00000  Uiso   1.00
C953   C     0.50028   0.83329   0.97649   0.00000  Uiso   1.00
C954   C     0.49972   0.83338   0.52351   0.00000  Uiso   1.00
C955   C     0.53863   0.84007   0.95412   0.00000  Uiso   1.00
C956   C     0.46137   0.82659   0.54588   0.00000  Uiso   1.00
C957   C     0.42496   0.81832   0.97437   0.00000  Uiso   1.00
C958   C     0.57504   0.84835   0.52563   0.00000  Uiso   1.00
N959   N     0.50000   0.95240   0.75000   0.00000  Uiso   1.00
N960   N     0.50000   0.71427   0.75000   0.00000  Uiso   1.00
O961   O     0.43892   0.87154   0.74999   0.00000  Uiso   1.00
O962   O     0.56108   0.79513   0.75000   0.00000  Uiso   1.00
O963   O     0.56108   0.87154   0.75000   0.00000  Uiso   1.00
O964   O     0.43892   0.79513   0.74999   0.00000  Uiso   1.00
O965   O     0.49999   0.87156   0.68392   0.00000  Uiso   1.00
O966   O     0.50001   0.79511   0.81607   0.00000  Uiso   1.00
O967   O     0.50001   0.87156   0.81607   0.00000  Uiso   1.00
O968   O     0.49999   0.79511   0.68392   0.00000  Uiso   1.00
Zn969  Zn    0.50000   0.88437   0.75000   0.00000  Uiso   1.00
Zn970  Zn    0.50000   0.78229   0.75000   0.00000  Uiso   1.00
Br971  Br    0.58950   0.84047   0.87256   0.00000  Uiso   1.00
Br972  Br    0.41050   0.82619   0.62744   0.00000  Uiso   1.00
F973   F     0.42866   0.82367   0.87931   0.00000  Uiso   1.00
F974   F     0.57134   0.84300   0.62069   0.00000  Uiso   1.00
Br975  Br    0.37210   0.80546   0.94505   0.00000  Uiso   1.00
Br976  Br    0.62790   0.86121   0.55495   0.00000  Uiso   1.00
F977   F     0.38813   0.80826   0.54046   0.00000  Uiso   1.00
F978   F     0.61187   0.85841   0.95954   0.00000  Uiso   1.00
F979   F     0.37417   0.76281   0.70928   0.00000  Uiso   1.00
F980   F     0.62583   0.90386   0.79072   0.00000  Uiso   1.00
F981   F     0.62401   0.76378   0.70776   0.00000  Uiso   1.00
F982   F     0.37599   0.90288   0.79224   0.00000  Uiso   1.00
F983   F     0.55001   0.71354   0.80841   0.00000  Uiso   1.00
F984   F     0.44999   0.95312   0.69159   0.00000  Uiso   1.00
F985   F     0.45027   0.71304   0.69132   0.00000  Uiso   1.00
F986   F     0.54973   0.95362   0.80868   0.00000  Uiso   1.00
C987   C     0.75335   0.83325   0.75026   0.00000  Uiso   1.00
C988   C     0.91332   0.83341   0.74974   0.00000  Uiso   1.00
C989   C     0.75805   0.81822   0.52073   0.00000  Uiso   1.00
C990   C     0.90862   0.84844   0.97927   0.00000  Uiso   1.00
C991   C     0.68755   0.79736   0.72980   0.00000  Uiso   1.00
C992   C     0.97911   0.86931   0.77020   0.00000  Uiso   1.00
C993   C     0.97822   0.79774   0.72918   0.00000  Uiso   1.00
C994   C     0.68845   0.86893   0.77082   0.00000  Uiso   1.00
C995   C     0.95744   0.83359   0.74957   0.00000  Uiso   1.00
C996   C     0.70922   0.83308   0.75043   0.00000  Uiso   1.00
C997   C     0.85827   0.69076   0.77920   0.00000  Uiso   1.00
C998   C     0.80840   0.97591   0.72080   0.00000  Uiso   1.00
C999   C     0.80844   0.69052   0.72076   0.00000  Uiso   1.00
C1000  C     0.85823   0.97615   0.77924   0.00000  Uiso   1.00
C1001  C     0.83284   0.83332   0.66362   0.00000  Uiso   1.00
C1002  C     0.83383   0.83335   0.83638   0.00000  Uiso   1.00
C1003  C     0.87226   0.83850   0.90716   0.00000  Uiso   1.00
C1004  C     0.79441   0.82817   0.59284   0.00000  Uiso   1.00
C1005  C     0.83456   0.83333   0.88398   0.00000  Uiso   1.00
C1006  C     0.83210   0.83334   0.61602   0.00000  Uiso   1.00
C1007  C     0.79696   0.82765   0.90523   0.00000  Uiso   1.00
C1008  C     0.86970   0.83902   0.59477   0.00000  Uiso   1.00
C1009  C     0.79583   0.82639   0.95180   0.00000  Uiso   1.00
C1010  C     0.87083   0.84028   0.54820   0.00000  Uiso   1.00
C1011  C     0.83361   0.83329   0.97649   0.00000  Uiso   1.00
C1012  C     0.83306   0.83338   0.52351   0.00000  Uiso   1.00
C1013  C     0.87196   0.84007   0.95412   0.00000  Uiso   1.00
C1014  C     0.79471   0.82659   0.54588   0.00000  Uiso   1.00
C1015  C     0.75829   0.81832   0.97437   0.00000  Uiso   1.00
C1016  C     0.90837   0.84835   0.52563   0.00000  Uiso   1.00
N1017  N     0.83333   0.95240   0.75000   0.00000  Uiso   1.00
N1018  N     0.83333   0.71427   0.75000   0.00000  Uiso   1.00
O1019  O     0.77226   0.87154   0.74999   0.00000  Uiso   1.00
O1020  O     0.89441   0.79513   0.75000   0.00000  Uiso   1.00
O1021  O     0.89441   0.87154   0.75000   0.00000  Uiso   1.00
O1022  O     0.77226   0.79513   0.74999   0.00000  Uiso   1.00
O1023  O     0.83333   0.87156   0.68392   0.00000  Uiso   1.00
O1024  O     0.83334   0.79511   0.81607   0.00000  Uiso   1.00
O1025  O     0.83334   0.87156   0.81607   0.00000  Uiso   1.00
O1026  O     0.83333   0.79511   0.68392   0.00000  Uiso   1.00
Zn1027 Zn    0.83333   0.88437   0.75000   0.00000  Uiso   1.00
Zn1028 Zn    0.83333   0.78229   0.75000   0.00000  Uiso   1.00
Br1029 Br    0.92284   0.84047   0.87256   0.00000  Uiso   1.00
Br1030 Br    0.74383   0.82619   0.62744   0.00000  Uiso   1.00
F1031  F     0.76200   0.82367   0.87931   0.00000  Uiso   1.00
F1032  F     0.90467   0.84300   0.62069   0.00000  Uiso   1.00
Br1033 Br    0.70543   0.80546   0.94505   0.00000  Uiso   1.00
Br1034 Br    0.96123   0.86121   0.55495   0.00000  Uiso   1.00
F1035  F     0.72146   0.80826   0.54046   0.00000  Uiso   1.00
F1036  F     0.94521   0.85841   0.95954   0.00000  Uiso   1.00
F1037  F     0.70751   0.76281   0.70928   0.00000  Uiso   1.00
F1038  F     0.95916   0.90386   0.79072   0.00000  Uiso   1.00
F1039  F     0.95734   0.76378   0.70776   0.00000  Uiso   1.00
F1040  F     0.70933   0.90288   0.79224   0.00000  Uiso   1.00
F1041  F     0.88334   0.71354   0.80841   0.00000  Uiso   1.00
F1042  F     0.78332   0.95312   0.69159   0.00000  Uiso   1.00
F1043  F     0.78361   0.71304   0.69132   0.00000  Uiso   1.00
F1044  F     0.88306   0.95362   0.80868   0.00000  Uiso   1.00
loop_
_geom_bond_atom_site_label_1
_geom_bond_atom_site_label_2
_geom_bond_distance
_geom_bond_site_symmetry_2
_ccdc_geom_bond_type
C1     O33     1.283   .     A
C1     C10     1.418   .     S
C1     O36     1.282   .     A
C2     O35     1.282   .     A
C2     O34     1.283   .     A
C2     C9      1.418   .     S
C3     F49     1.356   .     S
C3     C28     1.408   .     A
C3     C551    1.386   1_554 S
C4     C27     1.408   .     A
C4     F50     1.356   .     S
C4     C552    1.386   .     S
C5     C10     1.400   .     A
C5     F51     1.359   .     S
C5     C123    1.371   1_455 S
C6     C9      1.400   .     A
C6     F52     1.359   .     S
C6     C66     1.371   .     S
C7     F53     1.359   .     S
C7     C9      1.399   .     A
C7     C63     1.371   .     S
C8     F54     1.359   .     S
C8     C10     1.399   .     A
C8     C122    1.371   1_455 S
C11    F55     1.355   .     S
C11    N32     1.367   .     A
C11    C362    1.417   1_545 S
C12    F56     1.355   .     S
C12    N31     1.367   .     A
C12    C187    1.417   .     S
C13    N32     1.367   .     A
C13    F57     1.355   .     S
C13    C360    1.417   1_545 S
C14    N31     1.367   .     A
C14    F58     1.355   .     S
C14    C185    1.417   .     S
C15    C20     1.423   .     S
C15    O40     1.283   .     A
C15    O37     1.282   .     A
C16    O38     1.282   .     A
C16    C19     1.423   .     S
C16    O39     1.283   .     A
C17    Br43    1.942   .     S
C17    C27     1.405   .     A
C17    C19     1.393   .     A
C18    Br44    1.942   .     S
C18    C28     1.405   .     A
C18    C20     1.393   .     A
C19    C21     1.384   .     A
C20    C22     1.384   .     A
C21    F45     1.359   .     S
C21    C23     1.394   .     A
C22    F46     1.359   .     S
C22    C24     1.394   .     A
C23    C29     1.412   .     A
C23    C25     1.424   .     A
C24    C26     1.424   .     A
C24    C30     1.412   .     A
C25    C27     1.425   .     A
C25    C548    1.406   .     S
C26    C28     1.425   .     A
C26    C547    1.406   1_554 S
C29    Br47    1.935   .     S
C29    C525    1.386   .     S
C30    Br48    1.935   .     S
C30    C526    1.386   1_554 S
N31    Zn41    2.011   .     S
N32    Zn42    2.011   .     S
O33    Zn41    1.997   .     S
O34    Zn42    1.997   .     S
O35    Zn41    1.999   .     S
O36    Zn42    1.999   .     S
O37    Zn41    2.011   .     S
O38    Zn42    2.011   .     S
O39    Zn41    2.012   .     S
O40    Zn42    2.012   .     S
C59    O91     1.283   .     A
C59    C68     1.418   .     S
C59    O94     1.282   .     A
C60    O93     1.282   .     A
C60    O92     1.283   .     A
C60    C67     1.418   .     S
C61    F107    1.356   .     S
C61    C86     1.408   .     A
C61    C609    1.386   1_554 S
C62    C85     1.408   .     A
C62    F108    1.356   .     S
C62    C610    1.386   .     S
C63    C68     1.400   .     A
C63    F109    1.359   .     S
C64    C67     1.400   .     A
C64    F110    1.359   .     S
C64    C124    1.371   .     S
C65    F111    1.359   .     S
C65    C67     1.399   .     A
C65    C121    1.371   .     S
C66    F112    1.359   .     S
C66    C68     1.399   .     A
C69    F113    1.355   .     S
C69    N90     1.367   .     A
C69    C420    1.417   1_545 S
C70    F114    1.355   .     S
C70    N89     1.367   .     A
C70    C245    1.417   .     S
C71    N90     1.367   .     A
C71    F115    1.355   .     S
C71    C418    1.417   1_545 S
C72    N89     1.367   .     A
C72    F116    1.355   .     S
C72    C243    1.417   .     S
C73    C78     1.423   .     S
C73    O98     1.283   .     A
C73    O95     1.282   .     A
C74    O96     1.282   .     A
C74    C77     1.423   .     S
C74    O97     1.283   .     A
C75    Br101   1.942   .     S
C75    C85     1.405   .     A
C75    C77     1.393   .     A
C76    Br102   1.942   .     S
C76    C86     1.405   .     A
C76    C78     1.393   .     A
C77    C79     1.384   .     A
C78    C80     1.384   .     A
C79    F103    1.359   .     S
C79    C81     1.394   .     A
C80    F104    1.359   .     S
C80    C82     1.394   .     A
C81    C87     1.412   .     A
C81    C83     1.424   .     A
C82    C84     1.424   .     A
C82    C88     1.412   .     A
C83    C85     1.425   .     A
C83    C606    1.406   .     S
C84    C86     1.425   .     A
C84    C605    1.406   1_554 S
C87    Br105   1.935   .     S
C87    C583    1.386   .     S
C88    Br106   1.935   .     S
C88    C584    1.386   1_554 S
N89    Zn99    2.011   .     S
N90    Zn100   2.011   .     S
O91    Zn99    1.997   .     S
O92    Zn100   1.997   .     S
O93    Zn99    1.999   .     S
O94    Zn100   1.999   .     S
O95    Zn99    2.011   .     S
O96    Zn100   2.011   .     S
O97    Zn99    2.012   .     S
O98    Zn100   2.012   .     S
C117   O149    1.283   .     A
C117   C126    1.418   .     S
C117   O152    1.282   .     A
C118   O151    1.282   .     A
C118   O150    1.283   .     A
C118   C125    1.418   .     S
C119   F165    1.356   .     S
C119   C144    1.408   .     A
C119   C667    1.386   1_554 S
C120   C143    1.408   .     A
C120   F166    1.356   .     S
C120   C668    1.386   .     S
C121   C126    1.400   .     A
C121   F167    1.359   .     S
C122   C125    1.400   .     A
C122   F168    1.359   .     S
C122   C8      1.371   1_655 S
C123   F169    1.359   .     S
C123   C125    1.399   .     A
C123   C5      1.371   1_655 S
C124   F170    1.359   .     S
C124   C126    1.399   .     A
C127   F171    1.355   .     S
C127   N148    1.367   .     A
C127   C478    1.417   1_545 S
C128   F172    1.355   .     S
C128   N147    1.367   .     A
C128   C303    1.417   .     S
C129   N148    1.367   .     A
C129   F173    1.355   .     S
C129   C476    1.417   1_545 S
C130   N147    1.367   .     A
C130   F174    1.355   .     S
C130   C301    1.417   .     S
C131   C136    1.423   .     S
C131   O156    1.283   .     A
C131   O153    1.282   .     A
C132   O154    1.282   .     A
C132   C135    1.423   .     S
C132   O155    1.283   .     A
C133   Br159   1.942   .     S
C133   C143    1.405   .     A
C133   C135    1.393   .     A
C134   Br160   1.942   .     S
C134   C144    1.405   .     A
C134   C136    1.393   .     A
C135   C137    1.384   .     A
C136   C138    1.384   .     A
C137   F161    1.359   .     S
C137   C139    1.394   .     A
C138   F162    1.359   .     S
C138   C140    1.394   .     A
C139   C145    1.412   .     A
C139   C141    1.424   .     A
C140   C142    1.424   .     A
C140   C146    1.412   .     A
C141   C143    1.425   .     A
C141   C664    1.406   .     S
C142   C144    1.425   .     A
C142   C663    1.406   1_554 S
C145   Br163   1.935   .     S
C145   C641    1.386   .     S
C146   Br164   1.935   .     S
C146   C642    1.386   1_554 S
N147   Zn157   2.011   .     S
N148   Zn158   2.011   .     S
O149   Zn157   1.997   .     S
O150   Zn158   1.997   .     S
O151   Zn157   1.999   .     S
O152   Zn158   1.999   .     S
O153   Zn157   2.011   .     S
O154   Zn158   2.011   .     S
O155   Zn157   2.012   .     S
O156   Zn158   2.012   .     S
C175   O207    1.283   .     A
C175   C184    1.418   .     S
C175   O210    1.282   .     A
C176   O209    1.282   .     A
C176   O208    1.283   .     A
C176   C183    1.418   .     S
C177   F223    1.356   .     S
C177   C202    1.408   .     A
C177   C725    1.386   1_554 S
C178   C201    1.408   .     A
C178   F224    1.356   .     S
C178   C726    1.386   .     S
C179   C184    1.400   .     A
C179   F225    1.359   .     S
C179   C297    1.371   1_455 S
C180   C183    1.400   .     A
C180   F226    1.359   .     S
C180   C240    1.371   .     S
C181   F227    1.359   .     S
C181   C183    1.399   .     A
C181   C237    1.371   .     S
C182   F228    1.359   .     S
C182   C184    1.399   .     A
C182   C296    1.371   1_455 S
C185   F229    1.355   .     S
C185   N206    1.367   .     A
C186   F230    1.355   .     S
C186   N205    1.367   .     A
C186   C361    1.417   .     S
C187   N206    1.367   .     A
C187   F231    1.355   .     S
C188   N205    1.367   .     A
C188   F232    1.355   .     S
C188   C359    1.417   .     S
C189   C194    1.423   .     S
C189   O214    1.283   .     A
C189   O211    1.282   .     A
C190   O212    1.282   .     A
C190   C193    1.423   .     S
C190   O213    1.283   .     A
C191   Br217   1.942   .     S
C191   C201    1.405   .     A
C191   C193    1.393   .     A
C192   Br218   1.942   .     S
C192   C202    1.405   .     A
C192   C194    1.393   .     A
C193   C195    1.384   .     A
C194   C196    1.384   .     A
C195   F219    1.359   .     S
C195   C197    1.394   .     A
C196   F220    1.359   .     S
C196   C198    1.394   .     A
C197   C203    1.412   .     A
C197   C199    1.424   .     A
C198   C200    1.424   .     A
C198   C204    1.412   .     A
C199   C201    1.425   .     A
C199   C722    1.406   .     S
C200   C202    1.425   .     A
C200   C721    1.406   1_554 S
C203   Br221   1.935   .     S
C203   C699    1.386   .     S
C204   Br222   1.935   .     S
C204   C700    1.386   1_554 S
N205   Zn215   2.011   .     S
N206   Zn216   2.011   .     S
O207   Zn215   1.997   .     S
O208   Zn216   1.997   .     S
O209   Zn215   1.999   .     S
O210   Zn216   1.999   .     S
O211   Zn215   2.011   .     S
O212   Zn216   2.011   .     S
O213   Zn215   2.012   .     S
O214   Zn216   2.012   .     S
C233   O265    1.283   .     A
C233   C242    1.418   .     S
C233   O268    1.282   .     A
C234   O267    1.282   .     A
C234   O266    1.283   .     A
C234   C241    1.418   .     S
C235   F281    1.356   .     S
C235   C260    1.408   .     A
C235   C783    1.386   1_554 S
C236   C259    1.408   .     A
C236   F282    1.356   .     S
C236   C784    1.386   .     S
C237   C242    1.400   .     A
C237   F283    1.359   .     S
C238   C241    1.400   .     A
C238   F284    1.359   .     S
C238   C298    1.371   .     S
C239   F285    1.359   .     S
C239   C241    1.399   .     A
C239   C295    1.371   .     S
C240   F286    1.359   .     S
C240   C242    1.399   .     A
C243   F287    1.355   .     S
C243   N264    1.367   .     A
C244   F288    1.355   .     S
C244   N263    1.367   .     A
C244   C419    1.417   .     S
C245   N264    1.367   .     A
C245   F289    1.355   .     S
C246   N263    1.367   .     A
C246   F290    1.355   .     S
C246   C417    1.417   .     S
C247   C252    1.423   .     S
C247   O272    1.283   .     A
C247   O269    1.282   .     A
C248   O270    1.282   .     A
C248   C251    1.423   .     S
C248   O271    1.283   .     A
C249   Br275   1.942   .     S
C249   C259    1.405   .     A
C249   C251    1.393   .     A
C250   Br276   1.942   .     S
C250   C260    1.405   .     A
C250   C252    1.393   .     A
C251   C253    1.384   .     A
C252   C254    1.384   .     A
C253   F277    1.359   .     S
C253   C255    1.394   .     A
C254   F278    1.359   .     S
C254   C256    1.394   .     A
C255   C261    1.412   .     A
C255   C257    1.424   .     A
C256   C258    1.424   .     A
C256   C262    1.412   .     A
C257   C259    1.425   .     A
C257   C780    1.406   .     S
C258   C260    1.425   .     A
C258   C779    1.406   1_554 S
C261   Br279   1.935   .     S
C261   C757    1.386   .     S
C262   Br280   1.935   .     S
C262   C758    1.386   1_554 S
N263   Zn273   2.011   .     S
N264   Zn274   2.011   .     S
O265   Zn273   1.997   .     S
O266   Zn274   1.997   .     S
O267   Zn273   1.999   .     S
O268   Zn274   1.999   .     S
O269   Zn273   2.011   .     S
O270   Zn274   2.011   .     S
O271   Zn273   2.012   .     S
O272   Zn274   2.012   .     S
C291   O323    1.283   .     A
C291   C300    1.418   .     S
C291   O326    1.282   .     A
C292   O325    1.282   .     A
C292   O324    1.283   .     A
C292   C299    1.418   .     S
C293   F339    1.356   .     S
C293   C318    1.408   .     A
C293   C841    1.386   1_554 S
C294   C317    1.408   .     A
C294   F340    1.356   .     S
C294   C842    1.386   .     S
C295   C300    1.400   .     A
C295   F341    1.359   .     S
C296   C299    1.400   .     A
C296   F342    1.359   .     S
C296   C182    1.371   1_655 S
C297   F343    1.359   .     S
C297   C299    1.399   .     A
C297   C179    1.371   1_655 S
C298   F344    1.359   .     S
C298   C300    1.399   .     A
C301   F345    1.355   .     S
C301   N322    1.367   .     A
C302   F346    1.355   .     S
C302   N321    1.367   .     A
C302   C477    1.417   .     S
C303   N322    1.367   .     A
C303   F347    1.355   .     S
C304   N321    1.367   .     A
C304   F348    1.355   .     S
C304   C475    1.417   .     S
C305   C310    1.423   .     S
C305   O330    1.283   .     A
C305   O327    1.282   .     A
C306   O328    1.282   .     A
C306   C309    1.423   .     S
C306   O329    1.283   .     A
C307   Br333   1.942   .     S
C307   C317    1.405   .     A
C307   C309    1.393   .     A
C308   Br334   1.942   .     S
C308   C318    1.405   .     A
C308   C310    1.393   .     A
C309   C311    1.384   .     A
C310   C312    1.384   .     A
C311   F335    1.359   .     S
C311   C313    1.394   .     A
C312   F336    1.359   .     S
C312   C314    1.394   .     A
C313   C319    1.412   .     A
C313   C315    1.424   .     A
C314   C316    1.424   .     A
C314   C320    1.412   .     A
C315   C317    1.425   .     A
C315   C838    1.406   .     S
C316   C318    1.425   .     A
C316   C837    1.406   1_554 S
C319   Br337   1.935   .     S
C319   C815    1.386   .     S
C320   Br338   1.935   .     S
C320   C816    1.386   1_554 S
N321   Zn331   2.011   .     S
N322   Zn332   2.011   .     S
O323   Zn331   1.997   .     S
O324   Zn332   1.997   .     S
O325   Zn331   1.999   .     S
O326   Zn332   1.999   .     S
O327   Zn331   2.011   .     S
O328   Zn332   2.011   .     S
O329   Zn331   2.012   .     S
O330   Zn332   2.012   .     S
C349   O381    1.283   .     A
C349   C358    1.418   .     S
C349   O384    1.282   .     A
C350   O383    1.282   .     A
C350   O382    1.283   .     A
C350   C357    1.418   .     S
C351   F397    1.356   .     S
C351   C376    1.408   .     A
C351   C899    1.386   1_554 S
C352   C375    1.408   .     A
C352   F398    1.356   .     S
C352   C900    1.386   .     S
C353   C358    1.400   .     A
C353   F399    1.359   .     S
C353   C471    1.371   1_455 S
C354   C357    1.400   .     A
C354   F400    1.359   .     S
C354   C414    1.371   .     S
C355   F401    1.359   .     S
C355   C357    1.399   .     A
C355   C411    1.371   .     S
C356   F402    1.359   .     S
C356   C358    1.399   .     A
C356   C470    1.371   1_455 S
C359   F403    1.355   .     S
C359   N380    1.367   .     A
C360   F404    1.355   .     S
C360   N379    1.367   .     A
C360   C13     1.417   1_565 S
C361   N380    1.367   .     A
C361   F405    1.355   .     S
C362   N379    1.367   .     A
C362   F406    1.355   .     S
C362   C11     1.417   1_565 S
C363   C368    1.423   .     S
C363   O388    1.283   .     A
C363   O385    1.282   .     A
C364   O386    1.282   .     A
C364   C367    1.423   .     S
C364   O387    1.283   .     A
C365   Br391   1.942   .     S
C365   C375    1.405   .     A
C365   C367    1.393   .     A
C366   Br392   1.942   .     S
C366   C376    1.405   .     A
C366   C368    1.393   .     A
C367   C369    1.384   .     A
C368   C370    1.384   .     A
C369   F393    1.359   .     S
C369   C371    1.394   .     A
C370   F394    1.359   .     S
C370   C372    1.394   .     A
C371   C377    1.412   .     A
C371   C373    1.424   .     A
C372   C374    1.424   .     A
C372   C378    1.412   .     A
C373   C375    1.425   .     A
C373   C896    1.406   .     S
C374   C376    1.425   .     A
C374   C895    1.406   1_554 S
C377   Br395   1.935   .     S
C377   C873    1.386   .     S
C378   Br396   1.935   .     S
C378   C874    1.386   1_554 S
N379   Zn389   2.011   .     S
N380   Zn390   2.011   .     S
O381   Zn389   1.997   .     S
O382   Zn390   1.997   .     S
O383   Zn389   1.999   .     S
O384   Zn390   1.999   .     S
O385   Zn389   2.011   .     S
O386   Zn390   2.011   .     S
O387   Zn389   2.012   .     S
O388   Zn390   2.012   .     S
C407   O439    1.283   .     A
C407   C416    1.418   .     S
C407   O442    1.282   .     A
C408   O441    1.282   .     A
C408   O440    1.283   .     A
C408   C415    1.418   .     S
C409   F455    1.356   .     S
C409   C434    1.408   .     A
C409   C957    1.386   1_554 S
C410   C433    1.408   .     A
C410   F456    1.356   .     S
C410   C958    1.386   .     S
C411   C416    1.400   .     A
C411   F457    1.359   .     S
C412   C415    1.400   .     A
C412   F458    1.359   .     S
C412   C472    1.371   .     S
C413   F459    1.359   .     S
C413   C415    1.399   .     A
C413   C469    1.371   .     S
C414   F460    1.359   .     S
C414   C416    1.399   .     A
C417   F461    1.355   .     S
C417   N438    1.367   .     A
C418   F462    1.355   .     S
C418   N437    1.367   .     A
C418   C71     1.417   1_565 S
C419   N438    1.367   .     A
C419   F463    1.355   .     S
C420   N437    1.367   .     A
C420   F464    1.355   .     S
C420   C69     1.417   1_565 S
C421   C426    1.423   .     S
C421   O446    1.283   .     A
C421   O443    1.282   .     A
C422   O444    1.282   .     A
C422   C425    1.423   .     S
C422   O445    1.283   .     A
C423   Br449   1.942   .     S
C423   C433    1.405   .     A
C423   C425    1.393   .     A
C424   Br450   1.942   .     S
C424   C434    1.405   .     A
C424   C426    1.393   .     A
C425   C427    1.384   .     A
C426   C428    1.384   .     A
C427   F451    1.359   .     S
C427   C429    1.394   .     A
C428   F452    1.359   .     S
C428   C430    1.394   .     A
C429   C435    1.412   .     A
C429   C431    1.424   .     A
C430   C432    1.424   .     A
C430   C436    1.412   .     A
C431   C433    1.425   .     A
C431   C954    1.406   .     S
C432   C434    1.425   .     A
C432   C953    1.406   1_554 S
C435   Br453   1.935   .     S
C435   C931    1.386   .     S
C436   Br454   1.935   .     S
C436   C932    1.386   1_554 S
N437   Zn447   2.011   .     S
N438   Zn448   2.011   .     S
O439   Zn447   1.997   .     S
O440   Zn448   1.997   .     S
O441   Zn447   1.999   .     S
O442   Zn448   1.999   .     S
O443   Zn447   2.011   .     S
O444   Zn448   2.011   .     S
O445   Zn447   2.012   .     S
O446   Zn448   2.012   .     S
C465   O497    1.283   .     A
C465   C474    1.418   .     S
C465   O500    1.282   .     A
C466   O499    1.282   .     A
C466   O498    1.283   .     A
C466   C473    1.418   .     S
C467   F513    1.356   .     S
C467   C492    1.408   .     A
C467   C1015   1.386   1_554 S
C468   C491    1.408   .     A
C468   F514    1.356   .     S
C468   C1016   1.386   .     S
C469   C474    1.400   .     A
C469   F515    1.359   .     S
C470   C473    1.400   .     A
C470   F516    1.359   .     S
C470   C356    1.371   1_655 S
C471   F517    1.359   .     S
C471   C473    1.399   .     A
C471   C353    1.371   1_655 S
C472   F518    1.359   .     S
C472   C474    1.399   .     A
C475   F519    1.355   .     S
C475   N496    1.367   .     A
C476   F520    1.355   .     S
C476   N495    1.367   .     A
C476   C129    1.417   1_565 S
C477   N496    1.367   .     A
C477   F521    1.355   .     S
C478   N495    1.367   .     A
C478   F522    1.355   .     S
C478   C127    1.417   1_565 S
C479   C484    1.423   .     S
C479   O504    1.283   .     A
C479   O501    1.282   .     A
C480   O502    1.282   .     A
C480   C483    1.423   .     S
C480   O503    1.283   .     A
C481   Br507   1.942   .     S
C481   C491    1.405   .     A
C481   C483    1.393   .     A
C482   Br508   1.942   .     S
C482   C492    1.405   .     A
C482   C484    1.393   .     A
C483   C485    1.384   .     A
C484   C486    1.384   .     A
C485   F509    1.359   .     S
C485   C487    1.394   .     A
C486   F510    1.359   .     S
C486   C488    1.394   .     A
C487   C493    1.412   .     A
C487   C489    1.424   .     A
C488   C490    1.424   .     A
C488   C494    1.412   .     A
C489   C491    1.425   .     A
C489   C1012   1.406   .     S
C490   C492    1.425   .     A
C490   C1011   1.406   1_554 S
C493   Br511   1.935   .     S
C493   C989    1.386   .     S
C494   Br512   1.935   .     S
C494   C990    1.386   1_554 S
N495   Zn505   2.011   .     S
N496   Zn506   2.011   .     S
O497   Zn505   1.997   .     S
O498   Zn506   1.997   .     S
O499   Zn505   1.999   .     S
O500   Zn506   1.999   .     S
O501   Zn505   2.011   .     S
O502   Zn506   2.011   .     S
O503   Zn505   2.012   .     S
O504   Zn506   2.012   .     S
C523   O555    1.283   .     A
C523   C532    1.418   .     S
C523   O558    1.282   .     A
C524   O557    1.282   .     A
C524   O556    1.283   .     A
C524   C531    1.418   .     S
C525   F571    1.356   .     S
C525   C550    1.408   .     A
C526   C549    1.408   .     A
C526   F572    1.356   .     S
C526   C30     1.386   1_556 S
C527   C532    1.400   .     A
C527   F573    1.359   .     S
C527   C645    1.371   1_455 S
C528   C531    1.400   .     A
C528   F574    1.359   .     S
C528   C588    1.371   .     S
C529   F575    1.359   .     S
C529   C531    1.399   .     A
C529   C585    1.371   .     S
C530   F576    1.359   .     S
C530   C532    1.399   .     A
C530   C644    1.371   1_455 S
C533   F577    1.355   .     S
C533   N554    1.367   .     A
C533   C884    1.417   1_545 S
C534   F578    1.355   .     S
C534   N553    1.367   .     A
C534   C709    1.417   .     S
C535   N554    1.367   .     A
C535   F579    1.355   .     S
C535   C882    1.417   1_545 S
C536   N553    1.367   .     A
C536   F580    1.355   .     S
C536   C707    1.417   .     S
C537   C542    1.423   .     S
C537   O562    1.283   .     A
C537   O559    1.282   .     A
C538   O560    1.282   .     A
C538   C541    1.423   .     S
C538   O561    1.283   .     A
C539   Br565   1.942   .     S
C539   C549    1.405   .     A
C539   C541    1.393   .     A
C540   Br566   1.942   .     S
C540   C550    1.405   .     A
C540   C542    1.393   .     A
C541   C543    1.384   .     A
C542   C544    1.384   .     A
C543   F567    1.359   .     S
C543   C545    1.394   .     A
C544   F568    1.359   .     S
C544   C546    1.394   .     A
C545   C551    1.412   .     A
C545   C547    1.424   .     A
C546   C548    1.424   .     A
C546   C552    1.412   .     A
C547   C549    1.425   .     A
C547   C26     1.406   1_556 S
C548   C550    1.425   .     A
C551   Br569   1.935   .     S
C551   C3      1.386   1_556 S
C552   Br570   1.935   .     S
N553   Zn563   2.011   .     S
N554   Zn564   2.011   .     S
O555   Zn563   1.997   .     S
O556   Zn564   1.997   .     S
O557   Zn563   1.999   .     S
O558   Zn564   1.999   .     S
O559   Zn563   2.011   .     S
O560   Zn564   2.011   .     S
O561   Zn563   2.012   .     S
O562   Zn564   2.012   .     S
C581   O613    1.283   .     A
C581   C590    1.418   .     S
C581   O616    1.282   .     A
C582   O615    1.282   .     A
C582   O614    1.283   .     A
C582   C589    1.418   .     S
C583   F629    1.356   .     S
C583   C608    1.408   .     A
C584   C607    1.408   .     A
C584   F630    1.356   .     S
C584   C88     1.386   1_556 S
C585   C590    1.400   .     A
C585   F631    1.359   .     S
C586   C589    1.400   .     A
C586   F632    1.359   .     S
C586   C646    1.371   .     S
C587   F633    1.359   .     S
C587   C589    1.399   .     A
C587   C643    1.371   .     S
C588   F634    1.359   .     S
C588   C590    1.399   .     A
C591   F635    1.355   .     S
C591   N612    1.367   .     A
C591   C942    1.417   1_545 S
C592   F636    1.355   .     S
C592   N611    1.367   .     A
C592   C767    1.417   .     S
C593   N612    1.367   .     A
C593   F637    1.355   .     S
C593   C940    1.417   1_545 S
C594   N611    1.367   .     A
C594   F638    1.355   .     S
C594   C765    1.417   .     S
C595   C600    1.423   .     S
C595   O620    1.283   .     A
C595   O617    1.282   .     A
C596   O618    1.282   .     A
C596   C599    1.423   .     S
C596   O619    1.283   .     A
C597   Br623   1.942   .     S
C597   C607    1.405   .     A
C597   C599    1.393   .     A
C598   Br624   1.942   .     S
C598   C608    1.405   .     A
C598   C600    1.393   .     A
C599   C601    1.384   .     A
C600   C602    1.384   .     A
C601   F625    1.359   .     S
C601   C603    1.394   .     A
C602   F626    1.359   .     S
C602   C604    1.394   .     A
C603   C609    1.412   .     A
C603   C605    1.424   .     A
C604   C606    1.424   .     A
C604   C610    1.412   .     A
C605   C607    1.425   .     A
C605   C84     1.406   1_556 S
C606   C608    1.425   .     A
C609   Br627   1.935   .     S
C609   C61     1.386   1_556 S
C610   Br628   1.935   .     S
N611   Zn621   2.011   .     S
N612   Zn622   2.011   .     S
O613   Zn621   1.997   .     S
O614   Zn622   1.997   .     S
O615   Zn621   1.999   .     S
O616   Zn622   1.999   .     S
O617   Zn621   2.011   .     S
O618   Zn622   2.011   .     S
O619   Zn621   2.012   .     S
O620   Zn622   2.012   .     S
C639   O671    1.283   .     A
C639   C648    1.418   .     S
C639   O674    1.282   .     A
C640   O673    1.282   .     A
C640   O672    1.283   .     A
C640   C647    1.418   .     S
C641   F687    1.356   .     S
C641   C666    1.408   .     A
C642   C665    1.408   .     A
C642   F688    1.356   .     S
C642   C146    1.386   1_556 S
C643   C648    1.400   .     A
C643   F689    1.359   .     S
C644   C647    1.400   .     A
C644   F690    1.359   .     S
C644   C530    1.371   1_655 S
C645   F691    1.359   .     S
C645   C647    1.399   .     A
C645   C527    1.371   1_655 S
C646   F692    1.359   .     S
C646   C648    1.399   .     A
C649   F693    1.355   .     S
C649   N670    1.367   .     A
C649   C1000   1.417   1_545 S
C650   F694    1.355   .     S
C650   N669    1.367   .     A
C650   C825    1.417   .     S
C651   N670    1.367   .     A
C651   F695    1.355   .     S
C651   C998    1.417   1_545 S
C652   N669    1.367   .     A
C652   F696    1.355   .     S
C652   C823    1.417   .     S
C653   C658    1.423   .     S
C653   O678    1.283   .     A
C653   O675    1.282   .     A
C654   O676    1.282   .     A
C654   C657    1.423   .     S
C654   O677    1.283   .     A
C655   Br681   1.942   .     S
C655   C665    1.405   .     A
C655   C657    1.393   .     A
C656   Br682   1.942   .     S
C656   C666    1.405   .     A
C656   C658    1.393   .     A
C657   C659    1.384   .     A
C658   C660    1.384   .     A
C659   F683    1.359   .     S
C659   C661    1.394   .     A
C660   F684    1.359   .     S
C660   C662    1.394   .     A
C661   C667    1.412   .     A
C661   C663    1.424   .     A
C662   C664    1.424   .     A
C662   C668    1.412   .     A
C663   C665    1.425   .     A
C663   C142    1.406   1_556 S
C664   C666    1.425   .     A
C667   Br685   1.935   .     S
C667   C119    1.386   1_556 S
C668   Br686   1.935   .     S
N669   Zn679   2.011   .     S
N670   Zn680   2.011   .     S
O671   Zn679   1.997   .     S
O672   Zn680   1.997   .     S
O673   Zn679   1.999   .     S
O674   Zn680   1.999   .     S
O675   Zn679   2.011   .     S
O676   Zn680   2.011   .     S
O677   Zn679   2.012   .     S
O678   Zn680   2.012   .     S
C697   O729    1.283   .     A
C697   C706    1.418   .     S
C697   O732    1.282   .     A
C698   O731    1.282   .     A
C698   O730    1.283   .     A
C698   C705    1.418   .     S
C699   F745    1.356   .     S
C699   C724    1.408   .     A
C700   C723    1.408   .     A
C700   F746    1.356   .     S
C700   C204    1.386   1_556 S
C701   C706    1.400   .     A
C701   F747    1.359   .     S
C701   C819    1.371   1_455 S
C702   C705    1.400   .     A
C702   F748    1.359   .     S
C702   C762    1.371   .     S
C703   F749    1.359   .     S
C703   C705    1.399   .     A
C703   C759    1.371   .     S
C704   F750    1.359   .     S
C704   C706    1.399   .     A
C704   C818    1.371   1_455 S
C707   F751    1.355   .     S
C707   N728    1.367   .     A
C708   F752    1.355   .     S
C708   N727    1.367   .     A
C708   C883    1.417   .     S
C709   N728    1.367   .     A
C709   F753    1.355   .     S
C710   N727    1.367   .     A
C710   F754    1.355   .     S
C710   C881    1.417   .     S
C711   C716    1.423   .     S
C711   O736    1.283   .     A
C711   O733    1.282   .     A
C712   O734    1.282   .     A
C712   C715    1.423   .     S
C712   O735    1.283   .     A
C713   Br739   1.942   .     S
C713   C723    1.405   .     A
C713   C715    1.393   .     A
C714   Br740   1.942   .     S
C714   C724    1.405   .     A
C714   C716    1.393   .     A
C715   C717    1.384   .     A
C716   C718    1.384   .     A
C717   F741    1.359   .     S
C717   C719    1.394   .     A
C718   F742    1.359   .     S
C718   C720    1.394   .     A
C719   C725    1.412   .     A
C719   C721    1.424   .     A
C720   C722    1.424   .     A
C720   C726    1.412   .     A
C721   C723    1.425   .     A
C721   C200    1.406   1_556 S
C722   C724    1.425   .     A
C725   Br743   1.935   .     S
C725   C177    1.386   1_556 S
C726   Br744   1.935   .     S
N727   Zn737   2.011   .     S
N728   Zn738   2.011   .     S
O729   Zn737   1.997   .     S
O730   Zn738   1.997   .     S
O731   Zn737   1.999   .     S
O732   Zn738   1.999   .     S
O733   Zn737   2.011   .     S
O734   Zn738   2.011   .     S
O735   Zn737   2.012   .     S
O736   Zn738   2.012   .     S
C755   O787    1.283   .     A
C755   C764    1.418   .     S
C755   O790    1.282   .     A
C756   O789    1.282   .     A
C756   O788    1.283   .     A
C756   C763    1.418   .     S
C757   F803    1.356   .     S
C757   C782    1.408   .     A
C758   C781    1.408   .     A
C758   F804    1.356   .     S
C758   C262    1.386   1_556 S
C759   C764    1.400   .     A
C759   F805    1.359   .     S
C760   C763    1.400   .     A
C760   F806    1.359   .     S
C760   C820    1.371   .     S
C761   F807    1.359   .     S
C761   C763    1.399   .     A
C761   C817    1.371   .     S
C762   F808    1.359   .     S
C762   C764    1.399   .     A
C765   F809    1.355   .     S
C765   N786    1.367   .     A
C766   F810    1.355   .     S
C766   N785    1.367   .     A
C766   C941    1.417   .     S
C767   N786    1.367   .     A
C767   F811    1.355   .     S
C768   N785    1.367   .     A
C768   F812    1.355   .     S
C768   C939    1.417   .     S
C769   C774    1.423   .     S
C769   O794    1.283   .     A
C769   O791    1.282   .     A
C770   O792    1.282   .     A
C770   C773    1.423   .     S
C770   O793    1.283   .     A
C771   Br797   1.942   .     S
C771   C781    1.405   .     A
C771   C773    1.393   .     A
C772   Br798   1.942   .     S
C772   C782    1.405   .     A
C772   C774    1.393   .     A
C773   C775    1.384   .     A
C774   C776    1.384   .     A
C775   F799    1.359   .     S
C775   C777    1.394   .     A
C776   F800    1.359   .     S
C776   C778    1.394   .     A
C777   C783    1.412   .     A
C777   C779    1.424   .     A
C778   C780    1.424   .     A
C778   C784    1.412   .     A
C779   C781    1.425   .     A
C779   C258    1.406   1_556 S
C780   C782    1.425   .     A
C783   Br801   1.935   .     S
C783   C235    1.386   1_556 S
C784   Br802   1.935   .     S
N785   Zn795   2.011   .     S
N786   Zn796   2.011   .     S
O787   Zn795   1.997   .     S
O788   Zn796   1.997   .     S
O789   Zn795   1.999   .     S
O790   Zn796   1.999   .     S
O791   Zn795   2.011   .     S
O792   Zn796   2.011   .     S
O793   Zn795   2.012   .     S
O794   Zn796   2.012   .     S
C813   O845    1.283   .     A
C813   C822    1.418   .     S
C813   O848    1.282   .     A
C814   O847    1.282   .     A
C814   O846    1.283   .     A
C814   C821    1.418   .     S
C815   F861    1.356   .     S
C815   C840    1.408   .     A
C816   C839    1.408   .     A
C816   F862    1.356   .     S
C816   C320    1.386   1_556 S
C817   C822    1.400   .     A
C817   F863    1.359   .     S
C818   C821    1.400   .     A
C818   F864    1.359   .     S
C818   C704    1.371   1_655 S
C819   F865    1.359   .     S
C819   C821    1.399   .     A
C819   C701    1.371   1_655 S
C820   F866    1.359   .     S
C820   C822    1.399   .     A
C823   F867    1.355   .     S
C823   N844    1.367   .     A
C824   F868    1.355   .     S
C824   N843    1.367   .     A
C824   C999    1.417   .     S
C825   N844    1.367   .     A
C825   F869    1.355   .     S
C826   N843    1.367   .     A
C826   F870    1.355   .     S
C826   C997    1.417   .     S
C827   C832    1.423   .     S
C827   O852    1.283   .     A
C827   O849    1.282   .     A
C828   O850    1.282   .     A
C828   C831    1.423   .     S
C828   O851    1.283   .     A
C829   Br855   1.942   .     S
C829   C839    1.405   .     A
C829   C831    1.393   .     A
C830   Br856   1.942   .     S
C830   C840    1.405   .     A
C830   C832    1.393   .     A
C831   C833    1.384   .     A
C832   C834    1.384   .     A
C833   F857    1.359   .     S
C833   C835    1.394   .     A
C834   F858    1.359   .     S
C834   C836    1.394   .     A
C835   C841    1.412   .     A
C835   C837    1.424   .     A
C836   C838    1.424   .     A
C836   C842    1.412   .     A
C837   C839    1.425   .     A
C837   C316    1.406   1_556 S
C838   C840    1.425   .     A
C841   Br859   1.935   .     S
C841   C293    1.386   1_556 S
C842   Br860   1.935   .     S
N843   Zn853   2.011   .     S
N844   Zn854   2.011   .     S
O845   Zn853   1.997   .     S
O846   Zn854   1.997   .     S
O847   Zn853   1.999   .     S
O848   Zn854   1.999   .     S
O849   Zn853   2.011   .     S
O850   Zn854   2.011   .     S
O851   Zn853   2.012   .     S
O852   Zn854   2.012   .     S
C871   O903    1.283   .     A
C871   C880    1.418   .     S
C871   O906    1.282   .     A
C872   O905    1.282   .     A
C872   O904    1.283   .     A
C872   C879    1.418   .     S
C873   F919    1.356   .     S
C873   C898    1.408   .     A
C874   C897    1.408   .     A
C874   F920    1.356   .     S
C874   C378    1.386   1_556 S
C875   C880    1.400   .     A
C875   F921    1.359   .     S
C875   C993    1.371   1_455 S
C876   C879    1.400   .     A
C876   F922    1.359   .     S
C876   C936    1.371   .     S
C877   F923    1.359   .     S
C877   C879    1.399   .     A
C877   C933    1.371   .     S
C878   F924    1.359   .     S
C878   C880    1.399   .     A
C878   C992    1.371   1_455 S
C881   F925    1.355   .     S
C881   N902    1.367   .     A
C882   F926    1.355   .     S
C882   N901    1.367   .     A
C882   C535    1.417   1_565 S
C883   N902    1.367   .     A
C883   F927    1.355   .     S
C884   N901    1.367   .     A
C884   F928    1.355   .     S
C884   C533    1.417   1_565 S
C885   C890    1.423   .     S
C885   O910    1.283   .     A
C885   O907    1.282   .     A
C886   O908    1.282   .     A
C886   C889    1.423   .     S
C886   O909    1.283   .     A
C887   Br913   1.942   .     S
C887   C897    1.405   .     A
C887   C889    1.393   .     A
C888   Br914   1.942   .     S
C888   C898    1.405   .     A
C888   C890    1.393   .     A
C889   C891    1.384   .     A
C890   C892    1.384   .     A
C891   F915    1.359   .     S
C891   C893    1.394   .     A
C892   F916    1.359   .     S
C892   C894    1.394   .     A
C893   C899    1.412   .     A
C893   C895    1.424   .     A
C894   C896    1.424   .     A
C894   C900    1.412   .     A
C895   C897    1.425   .     A
C895   C374    1.406   1_556 S
C896   C898    1.425   .     A
C899   Br917   1.935   .     S
C899   C351    1.386   1_556 S
C900   Br918   1.935   .     S
N901   Zn911   2.011   .     S
N902   Zn912   2.011   .     S
O903   Zn911   1.997   .     S
O904   Zn912   1.997   .     S
O905   Zn911   1.999   .     S
O906   Zn912   1.999   .     S
O907   Zn911   2.011   .     S
O908   Zn912   2.011   .     S
O909   Zn911   2.012   .     S
O910   Zn912   2.012   .     S
C929   O961    1.283   .     A
C929   C938    1.418   .     S
C929   O964    1.282   .     A
C930   O963    1.282   .     A
C930   O962    1.283   .     A
C930   C937    1.418   .     S
C931   F977    1.356   .     S
C931   C956    1.408   .     A
C932   C955    1.408   .     A
C932   F978    1.356   .     S
C932   C436    1.386   1_556 S
C933   C938    1.400   .     A
C933   F979    1.359   .     S
C934   C937    1.400   .     A
C934   F980    1.359   .     S
C934   C994    1.371   .     S
C935   F981    1.359   .     S
C935   C937    1.399   .     A
C935   C991    1.371   .     S
C936   F982    1.359   .     S
C936   C938    1.399   .     A
C939   F983    1.355   .     S
C939   N960    1.367   .     A
C940   F984    1.355   .     S
C940   N959    1.367   .     A
C940   C593    1.417   1_565 S
C941   N960    1.367   .     A
C941   F985    1.355   .     S
C942   N959    1.367   .     A
C942   F986    1.355   .     S
C942   C591    1.417   1_565 S
C943   C948    1.423   .     S
C943   O968    1.283   .     A
C943   O965    1.282   .     A
C944   O966    1.282   .     A
C944   C947    1.423   .     S
C944   O967    1.283   .     A
C945   Br971   1.942   .     S
C945   C955    1.405   .     A
C945   C947    1.393   .     A
C946   Br972   1.942   .     S
C946   C956    1.405   .     A
C946   C948    1.393   .     A
C947   C949    1.384   .     A
C948   C950    1.384   .     A
C949   F973    1.359   .     S
C949   C951    1.394   .     A
C950   F974    1.359   .     S
C950   C952    1.394   .     A
C951   C957    1.412   .     A
C951   C953    1.424   .     A
C952   C954    1.424   .     A
C952   C958    1.412   .     A
C953   C955    1.425   .     A
C953   C432    1.406   1_556 S
C954   C956    1.425   .     A
C957   Br975   1.935   .     S
C957   C409    1.386   1_556 S
C958   Br976   1.935   .     S
N959   Zn969   2.011   .     S
N960   Zn970   2.011   .     S
O961   Zn969   1.997   .     S
O962   Zn970   1.997   .     S
O963   Zn969   1.999   .     S
O964   Zn970   1.999   .     S
O965   Zn969   2.011   .     S
O966   Zn970   2.011   .     S
O967   Zn969   2.012   .     S
O968   Zn970   2.012   .     S
C987   O1019   1.283   .     A
C987   C996    1.418   .     S
C987   O1022   1.282   .     A
C988   O1021   1.282   .     A
C988   O1020   1.283   .     A
C988   C995    1.418   .     S
C989   F1035   1.356   .     S
C989   C1014   1.408   .     A
C990   C1013   1.408   .     A
C990   F1036   1.356   .     S
C990   C494    1.386   1_556 S
C991   C996    1.400   .     A
C991   F1037   1.359   .     S
C992   C995    1.400   .     A
C992   F1038   1.359   .     S
C992   C878    1.371   1_655 S
C993   F1039   1.359   .     S
C993   C995    1.399   .     A
C993   C875    1.371   1_655 S
C994   F1040   1.359   .     S
C994   C996    1.399   .     A
C997   F1041   1.355   .     S
C997   N1018   1.367   .     A
C998   F1042   1.355   .     S
C998   N1017   1.367   .     A
C998   C651    1.417   1_565 S
C999   N1018   1.367   .     A
C999   F1043   1.355   .     S
C1000  N1017   1.367   .     A
C1000  F1044   1.355   .     S
C1000  C649    1.417   1_565 S
C1001  C1006   1.423   .     S
C1001  O1026   1.283   .     A
C1001  O1023   1.282   .     A
C1002  O1024   1.282   .     A
C1002  C1005   1.423   .     S
C1002  O1025   1.283   .     A
C1003  Br1029  1.942   .     S
C1003  C1013   1.405   .     A
C1003  C1005   1.393   .     A
C1004  Br1030  1.942   .     S
C1004  C1014   1.405   .     A
C1004  C1006   1.393   .     A
C1005  C1007   1.384   .     A
C1006  C1008   1.384   .     A
C1007  F1031   1.359   .     S
C1007  C1009   1.394   .     A
C1008  F1032   1.359   .     S
C1008  C1010   1.394   .     A
C1009  C1015   1.412   .     A
C1009  C1011   1.424   .     A
C1010  C1012   1.424   .     A
C1010  C1016   1.412   .     A
C1011  C1013   1.425   .     A
C1011  C490    1.406   1_556 S
C1012  C1014   1.425   .     A
C1015  Br1033  1.935   .     S
C1015  C467    1.386   1_556 S
C1016  Br1034  1.935   .     S
N1017  Zn1027  2.011   .     S
N1018  Zn1028  2.011   .     S
O1019  Zn1027  1.997   .     S
O1020  Zn1028  1.997   .     S
O1021  Zn1027  1.999   .     S
O1022  Zn1028  1.999   .     S
O1023  Zn1027  2.011   .     S
O1024  Zn1028  2.011   .     S
O1025  Zn1027  2.012   .     S
O1026  Zn1028  2.012   .     S
