data_str_m3_o1_o18_pcu_sym.160
_audit_creation_date              2020-01-03
_audit_creation_method            'Materials Studio'
_symmetry_space_group_name_H-M    'P1'
_symmetry_Int_Tables_number       1
_symmetry_cell_setting            triclinic
loop_
_symmetry_equiv_pos_as_xyz
  x,y,z
_cell_length_a                    29.7037
_cell_length_b                    32.4139
_cell_length_c                    30.6850
_cell_angle_alpha                 90.9953
_cell_angle_beta                  67.2969
_cell_angle_gamma                 91.0468
loop_
_atom_site_label
_atom_site_type_symbol
_atom_site_fract_x
_atom_site_fract_y
_atom_site_fract_z
_atom_site_U_iso_or_equiv
_atom_site_adp_type
_atom_site_occupancy
O1     O     0.12846   0.22775   0.25001   0.00000  Uiso   1.00
O2     O     0.20488   0.10558   0.25000   0.00000  Uiso   1.00
O3     O     0.20490   0.22774   0.25000   0.00000  Uiso   1.00
O4     O     0.12843   0.10559   0.25000   0.00000  Uiso   1.00
C5     C     0.16743   0.24665   0.24949   0.00000  Uiso   1.00
C6     C     0.16591   0.08669   0.25051   0.00000  Uiso   1.00
O7     O     0.10661   0.16667   0.31613   0.00000  Uiso   1.00
O8     O     0.22672   0.16666   0.18388   0.00000  Uiso   1.00
O9     O     0.18305   0.16666   0.31612   0.00000  Uiso   1.00
O10    O     0.15028   0.16667   0.18388   0.00000  Uiso   1.00
C11    C     0.13570   0.16586   0.33828   0.00000  Uiso   1.00
C12    C     0.19763   0.16748   0.16172   0.00000  Uiso   1.00
Zn13   Zn    0.11562   0.16667   0.25000   0.00000  Uiso   1.00
Zn14   Zn    0.21771   0.16666   0.25000   0.00000  Uiso   1.00
C15    C     0.11444   0.15979   0.38952   0.00000  Uiso   1.00
C16    C     0.21890   0.17355   0.11048   0.00000  Uiso   1.00
C17    C     0.07155   0.11523   0.45565   0.00000  Uiso   1.00
C18    C     0.26178   0.21811   0.04435   0.00000  Uiso   1.00
C19    C     0.08104   0.12726   0.40955   0.00000  Uiso   1.00
C20    C     0.25230   0.20607   0.09045   0.00000  Uiso   1.00
C21    C     0.13230   0.18315   0.41829   0.00000  Uiso   1.00
C22    C     0.20103   0.15018   0.08171   0.00000  Uiso   1.00
C23    C     0.13345   0.16421   0.45905   0.00000  Uiso   1.00
C24    C     0.19989   0.16912   0.04095   0.00000  Uiso   1.00
C25    C     0.09935   0.13190   0.47998   0.00000  Uiso   1.00
C26    C     0.23399   0.20144   0.02002   0.00000  Uiso   1.00
C27    C     0.16857   0.17522   0.47827   0.00000  Uiso   1.00
C28    C     0.16477   0.15811   0.02173   0.00000  Uiso   1.00
C29    C     0.12455   0.13216   0.04605   0.00000  Uiso   1.00
C30    C     0.20879   0.20117   0.45395   0.00000  Uiso   1.00
C31    C     0.09390   0.11718   0.02458   0.00000  Uiso   1.00
C32    C     0.23943   0.21615   0.47542   0.00000  Uiso   1.00
H33    H     0.04490   0.09084   0.47094   0.00000  Uiso   1.00
H34    H     0.28843   0.24249   0.02906   0.00000  Uiso   1.00
H35    H     0.11737   0.12224   0.08156   0.00000  Uiso   1.00
H36    H     0.21596   0.21110   0.41844   0.00000  Uiso   1.00
C37    C     0.21140   0.31403   0.24169   0.00000  Uiso   1.00
C38    C     0.12193   0.01930   0.25831   0.00000  Uiso   1.00
C39    C     0.20904   0.02291   0.24257   0.00000  Uiso   1.00
C40    C     0.12429   0.31042   0.25743   0.00000  Uiso   1.00
H41    H     0.24228   0.04051   0.23656   0.00000  Uiso   1.00
H42    H     0.09106   0.29282   0.26344   0.00000  Uiso   1.00
C43    C     0.16494   0.04247   0.25067   0.00000  Uiso   1.00
C44    C     0.16839   0.29086   0.24933   0.00000  Uiso   1.00
C45    C     0.32042   0.14106   0.22029   0.00000  Uiso   1.00
C46    C     0.01291   0.19227   0.27971   0.00000  Uiso   1.00
C47    C     0.03496   0.14074   0.22057   0.00000  Uiso   1.00
C48    C     0.29837   0.19259   0.27943   0.00000  Uiso   1.00
N49    N     0.04759   0.16668   0.25001   0.00000  Uiso   1.00
N50    N     0.28574   0.16666   0.24999   0.00000  Uiso   1.00
C51    C     0.05817   0.08576   0.04863   0.00000  Uiso   1.00
N52    N     0.02977   0.06038   0.06757   0.00000  Uiso   1.00
C53    C     0.27517   0.24757   0.45137   0.00000  Uiso   1.00
N54    N     0.30356   0.27295   0.43244   0.00000  Uiso   1.00
N55    N     0.19575   0.10585   0.08751   0.00000  Uiso   1.00
O56    O     0.19967   0.08863   0.12388   0.00000  Uiso   1.00
O57    O     0.19985   0.08223   0.05145   0.00000  Uiso   1.00
N58    N     0.13758   0.22748   0.41249   0.00000  Uiso   1.00
O59    O     0.13348   0.25110   0.44855   0.00000  Uiso   1.00
O60    O     0.13366   0.24470   0.37612   0.00000  Uiso   1.00
C61    C     0.27782   0.22734   0.11590   0.00000  Uiso   1.00
N62    N     0.29878   0.24430   0.13588   0.00000  Uiso   1.00
C63    C     0.05552   0.10599   0.38410   0.00000  Uiso   1.00
N64    N     0.03456   0.08903   0.36412   0.00000  Uiso   1.00
C65    C     0.25878   0.29662   0.23231   0.00000  Uiso   1.00
N66    N     0.29700   0.28336   0.22482   0.00000  Uiso   1.00
C67    C     0.07456   0.03671   0.26769   0.00000  Uiso   1.00
N68    N     0.03634   0.04998   0.27518   0.00000  Uiso   1.00
C69    C     0.30791   0.11467   0.18823   0.00000  Uiso   1.00
N70    N     0.29787   0.09353   0.16249   0.00000  Uiso   1.00
C71    C     0.02542   0.21866   0.31177   0.00000  Uiso   1.00
N72    N     0.03546   0.23980   0.33751   0.00000  Uiso   1.00
C73    C     0.06976   0.11159   0.19084   0.00000  Uiso   1.00
N74    N     0.09681   0.08751   0.16713   0.00000  Uiso   1.00
C75    C     0.26358   0.22174   0.30916   0.00000  Uiso   1.00
N76    N     0.23652   0.24582   0.33288   0.00000  Uiso   1.00
O77    O     0.46179   0.22775   0.25001   0.00000  Uiso   1.00
O78    O     0.53821   0.10558   0.25000   0.00000  Uiso   1.00
O79    O     0.53823   0.22774   0.25000   0.00000  Uiso   1.00
O80    O     0.46177   0.10559   0.25000   0.00000  Uiso   1.00
C81    C     0.50076   0.24665   0.24949   0.00000  Uiso   1.00
C82    C     0.49924   0.08669   0.25051   0.00000  Uiso   1.00
O83    O     0.43994   0.16667   0.31613   0.00000  Uiso   1.00
O84    O     0.56006   0.16666   0.18388   0.00000  Uiso   1.00
O85    O     0.51639   0.16666   0.31612   0.00000  Uiso   1.00
O86    O     0.48361   0.16667   0.18388   0.00000  Uiso   1.00
C87    C     0.46904   0.16586   0.33828   0.00000  Uiso   1.00
C88    C     0.53096   0.16748   0.16172   0.00000  Uiso   1.00
Zn89   Zn    0.44896   0.16667   0.25000   0.00000  Uiso   1.00
Zn90   Zn    0.55104   0.16666   0.25000   0.00000  Uiso   1.00
C91    C     0.44777   0.15979   0.38952   0.00000  Uiso   1.00
C92    C     0.55223   0.17355   0.11048   0.00000  Uiso   1.00
C93    C     0.40489   0.11523   0.45565   0.00000  Uiso   1.00
C94    C     0.59512   0.21811   0.04435   0.00000  Uiso   1.00
C95    C     0.41437   0.12726   0.40955   0.00000  Uiso   1.00
C96    C     0.58563   0.20607   0.09045   0.00000  Uiso   1.00
C97    C     0.46564   0.18315   0.41829   0.00000  Uiso   1.00
C98    C     0.53436   0.15018   0.08171   0.00000  Uiso   1.00
C99    C     0.46678   0.16421   0.45905   0.00000  Uiso   1.00
C100   C     0.53322   0.16912   0.04095   0.00000  Uiso   1.00
C101   C     0.43268   0.13190   0.47998   0.00000  Uiso   1.00
C102   C     0.56732   0.20144   0.02002   0.00000  Uiso   1.00
C103   C     0.50190   0.17522   0.47827   0.00000  Uiso   1.00
C104   C     0.49810   0.15811   0.02173   0.00000  Uiso   1.00
C105   C     0.45788   0.13216   0.04605   0.00000  Uiso   1.00
C106   C     0.54212   0.20117   0.45395   0.00000  Uiso   1.00
C107   C     0.42724   0.11718   0.02458   0.00000  Uiso   1.00
C108   C     0.57276   0.21615   0.47542   0.00000  Uiso   1.00
H109   H     0.37824   0.09084   0.47094   0.00000  Uiso   1.00
H110   H     0.62177   0.24249   0.02906   0.00000  Uiso   1.00
H111   H     0.45071   0.12224   0.08156   0.00000  Uiso   1.00
H112   H     0.54929   0.21110   0.41844   0.00000  Uiso   1.00
C113   C     0.54474   0.31403   0.24169   0.00000  Uiso   1.00
C114   C     0.45526   0.01930   0.25831   0.00000  Uiso   1.00
C115   C     0.54237   0.02291   0.24257   0.00000  Uiso   1.00
C116   C     0.45763   0.31042   0.25743   0.00000  Uiso   1.00
H117   H     0.57561   0.04051   0.23656   0.00000  Uiso   1.00
H118   H     0.42439   0.29282   0.26344   0.00000  Uiso   1.00
C119   C     0.49828   0.04247   0.25067   0.00000  Uiso   1.00
C120   C     0.50172   0.29086   0.24933   0.00000  Uiso   1.00
C121   C     0.65376   0.14106   0.22029   0.00000  Uiso   1.00
C122   C     0.34624   0.19227   0.27971   0.00000  Uiso   1.00
C123   C     0.36830   0.14074   0.22057   0.00000  Uiso   1.00
C124   C     0.63170   0.19259   0.27943   0.00000  Uiso   1.00
N125   N     0.38093   0.16668   0.25001   0.00000  Uiso   1.00
N126   N     0.61907   0.16666   0.24999   0.00000  Uiso   1.00
C127   C     0.39150   0.08576   0.04863   0.00000  Uiso   1.00
N128   N     0.36310   0.06038   0.06757   0.00000  Uiso   1.00
C129   C     0.60850   0.24757   0.45137   0.00000  Uiso   1.00
N130   N     0.63690   0.27295   0.43244   0.00000  Uiso   1.00
N131   N     0.52909   0.10585   0.08751   0.00000  Uiso   1.00
O132   O     0.53300   0.08863   0.12388   0.00000  Uiso   1.00
O133   O     0.53319   0.08223   0.05145   0.00000  Uiso   1.00
N134   N     0.47091   0.22748   0.41249   0.00000  Uiso   1.00
O135   O     0.46682   0.25110   0.44855   0.00000  Uiso   1.00
O136   O     0.46700   0.24470   0.37612   0.00000  Uiso   1.00
C137   C     0.61115   0.22734   0.11590   0.00000  Uiso   1.00
N138   N     0.63211   0.24430   0.13588   0.00000  Uiso   1.00
C139   C     0.38885   0.10599   0.38410   0.00000  Uiso   1.00
N140   N     0.36789   0.08903   0.36412   0.00000  Uiso   1.00
C141   C     0.59211   0.29662   0.23231   0.00000  Uiso   1.00
N142   N     0.63033   0.28336   0.22482   0.00000  Uiso   1.00
C143   C     0.40789   0.03671   0.26769   0.00000  Uiso   1.00
N144   N     0.36967   0.04998   0.27518   0.00000  Uiso   1.00
C145   C     0.64124   0.11467   0.18823   0.00000  Uiso   1.00
N146   N     0.63120   0.09353   0.16249   0.00000  Uiso   1.00
C147   C     0.35876   0.21866   0.31177   0.00000  Uiso   1.00
N148   N     0.36880   0.23980   0.33751   0.00000  Uiso   1.00
C149   C     0.40309   0.11159   0.19084   0.00000  Uiso   1.00
N150   N     0.43015   0.08751   0.16713   0.00000  Uiso   1.00
C151   C     0.59691   0.22174   0.30916   0.00000  Uiso   1.00
N152   N     0.56985   0.24582   0.33288   0.00000  Uiso   1.00
O153   O     0.79512   0.22775   0.25001   0.00000  Uiso   1.00
O154   O     0.87154   0.10558   0.25000   0.00000  Uiso   1.00
O155   O     0.87157   0.22774   0.25000   0.00000  Uiso   1.00
O156   O     0.79510   0.10559   0.25000   0.00000  Uiso   1.00
C157   C     0.83409   0.24665   0.24949   0.00000  Uiso   1.00
C158   C     0.83257   0.08669   0.25051   0.00000  Uiso   1.00
O159   O     0.77328   0.16667   0.31613   0.00000  Uiso   1.00
O160   O     0.89339   0.16666   0.18388   0.00000  Uiso   1.00
O161   O     0.84972   0.16666   0.31612   0.00000  Uiso   1.00
O162   O     0.81695   0.16667   0.18388   0.00000  Uiso   1.00
C163   C     0.80237   0.16586   0.33828   0.00000  Uiso   1.00
C164   C     0.86430   0.16748   0.16172   0.00000  Uiso   1.00
Zn165  Zn    0.78229   0.16667   0.25000   0.00000  Uiso   1.00
Zn166  Zn    0.88438   0.16666   0.25000   0.00000  Uiso   1.00
C167   C     0.78110   0.15979   0.38952   0.00000  Uiso   1.00
C168   C     0.88556   0.17355   0.11048   0.00000  Uiso   1.00
C169   C     0.73822   0.11523   0.45565   0.00000  Uiso   1.00
C170   C     0.92845   0.21811   0.04435   0.00000  Uiso   1.00
C171   C     0.74771   0.12726   0.40955   0.00000  Uiso   1.00
C172   C     0.91896   0.20607   0.09045   0.00000  Uiso   1.00
C173   C     0.79897   0.18315   0.41829   0.00000  Uiso   1.00
C174   C     0.86770   0.15018   0.08171   0.00000  Uiso   1.00
C175   C     0.80011   0.16421   0.45905   0.00000  Uiso   1.00
C176   C     0.86655   0.16912   0.04095   0.00000  Uiso   1.00
C177   C     0.76601   0.13190   0.47998   0.00000  Uiso   1.00
C178   C     0.90066   0.20144   0.02002   0.00000  Uiso   1.00
C179   C     0.83524   0.17522   0.47827   0.00000  Uiso   1.00
C180   C     0.83143   0.15811   0.02173   0.00000  Uiso   1.00
C181   C     0.79121   0.13216   0.04605   0.00000  Uiso   1.00
C182   C     0.87546   0.20117   0.45395   0.00000  Uiso   1.00
C183   C     0.76057   0.11718   0.02458   0.00000  Uiso   1.00
C184   C     0.90610   0.21615   0.47542   0.00000  Uiso   1.00
H185   H     0.71157   0.09084   0.47094   0.00000  Uiso   1.00
H186   H     0.95510   0.24249   0.02906   0.00000  Uiso   1.00
H187   H     0.78404   0.12224   0.08156   0.00000  Uiso   1.00
H188   H     0.88263   0.21110   0.41844   0.00000  Uiso   1.00
C189   C     0.87807   0.31403   0.24169   0.00000  Uiso   1.00
C190   C     0.78860   0.01930   0.25831   0.00000  Uiso   1.00
C191   C     0.87571   0.02291   0.24257   0.00000  Uiso   1.00
C192   C     0.79096   0.31042   0.25743   0.00000  Uiso   1.00
H193   H     0.90895   0.04051   0.23656   0.00000  Uiso   1.00
H194   H     0.75772   0.29282   0.26344   0.00000  Uiso   1.00
C195   C     0.83161   0.04247   0.25067   0.00000  Uiso   1.00
C196   C     0.83506   0.29086   0.24933   0.00000  Uiso   1.00
C197   C     0.98709   0.14106   0.22029   0.00000  Uiso   1.00
C198   C     0.67958   0.19227   0.27971   0.00000  Uiso   1.00
C199   C     0.70163   0.14074   0.22057   0.00000  Uiso   1.00
C200   C     0.96504   0.19259   0.27943   0.00000  Uiso   1.00
N201   N     0.71426   0.16668   0.25001   0.00000  Uiso   1.00
N202   N     0.95241   0.16666   0.24999   0.00000  Uiso   1.00
C203   C     0.72483   0.08576   0.04863   0.00000  Uiso   1.00
N204   N     0.69644   0.06038   0.06757   0.00000  Uiso   1.00
C205   C     0.94183   0.24757   0.45137   0.00000  Uiso   1.00
N206   N     0.97023   0.27295   0.43244   0.00000  Uiso   1.00
N207   N     0.86242   0.10585   0.08751   0.00000  Uiso   1.00
O208   O     0.86633   0.08863   0.12388   0.00000  Uiso   1.00
O209   O     0.86652   0.08223   0.05145   0.00000  Uiso   1.00
N210   N     0.80425   0.22748   0.41249   0.00000  Uiso   1.00
O211   O     0.80015   0.25110   0.44855   0.00000  Uiso   1.00
O212   O     0.80033   0.24470   0.37612   0.00000  Uiso   1.00
C213   C     0.94449   0.22734   0.11590   0.00000  Uiso   1.00
N214   N     0.96545   0.24430   0.13588   0.00000  Uiso   1.00
C215   C     0.72219   0.10599   0.38410   0.00000  Uiso   1.00
N216   N     0.70123   0.08903   0.36412   0.00000  Uiso   1.00
C217   C     0.92544   0.29662   0.23231   0.00000  Uiso   1.00
N218   N     0.96367   0.28336   0.22482   0.00000  Uiso   1.00
C219   C     0.74122   0.03671   0.26769   0.00000  Uiso   1.00
N220   N     0.70300   0.04998   0.27518   0.00000  Uiso   1.00
C221   C     0.97458   0.11467   0.18823   0.00000  Uiso   1.00
N222   N     0.96454   0.09353   0.16249   0.00000  Uiso   1.00
C223   C     0.69209   0.21866   0.31177   0.00000  Uiso   1.00
N224   N     0.70213   0.23980   0.33751   0.00000  Uiso   1.00
C225   C     0.73642   0.11159   0.19084   0.00000  Uiso   1.00
N226   N     0.76348   0.08751   0.16713   0.00000  Uiso   1.00
C227   C     0.93024   0.22174   0.30916   0.00000  Uiso   1.00
N228   N     0.90319   0.24582   0.33288   0.00000  Uiso   1.00
O229   O     0.12846   0.56108   0.25001   0.00000  Uiso   1.00
O230   O     0.20488   0.43892   0.25000   0.00000  Uiso   1.00
O231   O     0.20490   0.56107   0.25000   0.00000  Uiso   1.00
O232   O     0.12843   0.43893   0.25000   0.00000  Uiso   1.00
C233   C     0.16743   0.57998   0.24949   0.00000  Uiso   1.00
C234   C     0.16591   0.42002   0.25051   0.00000  Uiso   1.00
O235   O     0.10661   0.50001   0.31613   0.00000  Uiso   1.00
O236   O     0.22672   0.49999   0.18388   0.00000  Uiso   1.00
O237   O     0.18305   0.50000   0.31612   0.00000  Uiso   1.00
O238   O     0.15028   0.50000   0.18388   0.00000  Uiso   1.00
C239   C     0.13570   0.49919   0.33828   0.00000  Uiso   1.00
C240   C     0.19763   0.50081   0.16172   0.00000  Uiso   1.00
Zn241  Zn    0.11562   0.50001   0.25000   0.00000  Uiso   1.00
Zn242  Zn    0.21771   0.49999   0.25000   0.00000  Uiso   1.00
C243   C     0.11444   0.49312   0.38952   0.00000  Uiso   1.00
C244   C     0.21890   0.50688   0.11048   0.00000  Uiso   1.00
C245   C     0.07155   0.44856   0.45565   0.00000  Uiso   1.00
C246   C     0.26178   0.55144   0.04435   0.00000  Uiso   1.00
C247   C     0.08104   0.46059   0.40955   0.00000  Uiso   1.00
C248   C     0.25230   0.53941   0.09045   0.00000  Uiso   1.00
C249   C     0.13230   0.51649   0.41829   0.00000  Uiso   1.00
C250   C     0.20103   0.48351   0.08171   0.00000  Uiso   1.00
C251   C     0.13345   0.49754   0.45905   0.00000  Uiso   1.00
C252   C     0.19989   0.50246   0.04095   0.00000  Uiso   1.00
C253   C     0.09935   0.46523   0.47998   0.00000  Uiso   1.00
C254   C     0.23399   0.53477   0.02002   0.00000  Uiso   1.00
C255   C     0.16857   0.50856   0.47827   0.00000  Uiso   1.00
C256   C     0.16477   0.49144   0.02173   0.00000  Uiso   1.00
C257   C     0.12455   0.46550   0.04605   0.00000  Uiso   1.00
C258   C     0.20879   0.53450   0.45395   0.00000  Uiso   1.00
C259   C     0.09390   0.45052   0.02458   0.00000  Uiso   1.00
C260   C     0.23943   0.54948   0.47542   0.00000  Uiso   1.00
H261   H     0.04490   0.42417   0.47094   0.00000  Uiso   1.00
H262   H     0.28843   0.57583   0.02906   0.00000  Uiso   1.00
H263   H     0.11737   0.45557   0.08156   0.00000  Uiso   1.00
H264   H     0.21596   0.54443   0.41844   0.00000  Uiso   1.00
C265   C     0.21140   0.64737   0.24169   0.00000  Uiso   1.00
C266   C     0.12193   0.35263   0.25831   0.00000  Uiso   1.00
C267   C     0.20904   0.35625   0.24257   0.00000  Uiso   1.00
C268   C     0.12429   0.64375   0.25743   0.00000  Uiso   1.00
H269   H     0.24228   0.37384   0.23656   0.00000  Uiso   1.00
H270   H     0.09106   0.62616   0.26344   0.00000  Uiso   1.00
C271   C     0.16494   0.37581   0.25067   0.00000  Uiso   1.00
C272   C     0.16839   0.62419   0.24933   0.00000  Uiso   1.00
C273   C     0.32042   0.47439   0.22029   0.00000  Uiso   1.00
C274   C     0.01291   0.52561   0.27971   0.00000  Uiso   1.00
C275   C     0.03496   0.47408   0.22057   0.00000  Uiso   1.00
C276   C     0.29837   0.52592   0.27943   0.00000  Uiso   1.00
N277   N     0.04759   0.50001   0.25001   0.00000  Uiso   1.00
N278   N     0.28574   0.49999   0.24999   0.00000  Uiso   1.00
C279   C     0.05817   0.41909   0.04863   0.00000  Uiso   1.00
N280   N     0.02977   0.39371   0.06757   0.00000  Uiso   1.00
C281   C     0.27517   0.58091   0.45137   0.00000  Uiso   1.00
N282   N     0.30356   0.60629   0.43244   0.00000  Uiso   1.00
N283   N     0.19575   0.43919   0.08751   0.00000  Uiso   1.00
O284   O     0.19967   0.42196   0.12388   0.00000  Uiso   1.00
O285   O     0.19985   0.41557   0.05145   0.00000  Uiso   1.00
N286   N     0.13758   0.56081   0.41249   0.00000  Uiso   1.00
O287   O     0.13348   0.58443   0.44855   0.00000  Uiso   1.00
O288   O     0.13366   0.57804   0.37612   0.00000  Uiso   1.00
C289   C     0.27782   0.56067   0.11590   0.00000  Uiso   1.00
N290   N     0.29878   0.57763   0.13588   0.00000  Uiso   1.00
C291   C     0.05552   0.43933   0.38410   0.00000  Uiso   1.00
N292   N     0.03456   0.42236   0.36412   0.00000  Uiso   1.00
C293   C     0.25878   0.62996   0.23231   0.00000  Uiso   1.00
N294   N     0.29700   0.61669   0.22482   0.00000  Uiso   1.00
C295   C     0.07456   0.37004   0.26769   0.00000  Uiso   1.00
N296   N     0.03634   0.38331   0.27518   0.00000  Uiso   1.00
C297   C     0.30791   0.44801   0.18823   0.00000  Uiso   1.00
N298   N     0.29787   0.42686   0.16249   0.00000  Uiso   1.00
C299   C     0.02542   0.55199   0.31177   0.00000  Uiso   1.00
N300   N     0.03546   0.57314   0.33751   0.00000  Uiso   1.00
C301   C     0.06976   0.44492   0.19084   0.00000  Uiso   1.00
N302   N     0.09681   0.42084   0.16713   0.00000  Uiso   1.00
C303   C     0.26358   0.55508   0.30916   0.00000  Uiso   1.00
N304   N     0.23652   0.57915   0.33288   0.00000  Uiso   1.00
O305   O     0.46179   0.56108   0.25001   0.00000  Uiso   1.00
O306   O     0.53821   0.43892   0.25000   0.00000  Uiso   1.00
O307   O     0.53823   0.56107   0.25000   0.00000  Uiso   1.00
O308   O     0.46177   0.43893   0.25000   0.00000  Uiso   1.00
C309   C     0.50076   0.57998   0.24949   0.00000  Uiso   1.00
C310   C     0.49924   0.42002   0.25051   0.00000  Uiso   1.00
O311   O     0.43994   0.50001   0.31613   0.00000  Uiso   1.00
O312   O     0.56006   0.49999   0.18388   0.00000  Uiso   1.00
O313   O     0.51639   0.50000   0.31612   0.00000  Uiso   1.00
O314   O     0.48361   0.50000   0.18388   0.00000  Uiso   1.00
C315   C     0.46904   0.49919   0.33828   0.00000  Uiso   1.00
C316   C     0.53096   0.50081   0.16172   0.00000  Uiso   1.00
Zn317  Zn    0.44896   0.50001   0.25000   0.00000  Uiso   1.00
Zn318  Zn    0.55104   0.49999   0.25000   0.00000  Uiso   1.00
C319   C     0.44777   0.49312   0.38952   0.00000  Uiso   1.00
C320   C     0.55223   0.50688   0.11048   0.00000  Uiso   1.00
C321   C     0.40489   0.44856   0.45565   0.00000  Uiso   1.00
C322   C     0.59512   0.55144   0.04435   0.00000  Uiso   1.00
C323   C     0.41437   0.46059   0.40955   0.00000  Uiso   1.00
C324   C     0.58563   0.53941   0.09045   0.00000  Uiso   1.00
C325   C     0.46564   0.51649   0.41829   0.00000  Uiso   1.00
C326   C     0.53436   0.48351   0.08171   0.00000  Uiso   1.00
C327   C     0.46678   0.49754   0.45905   0.00000  Uiso   1.00
C328   C     0.53322   0.50246   0.04095   0.00000  Uiso   1.00
C329   C     0.43268   0.46523   0.47998   0.00000  Uiso   1.00
C330   C     0.56732   0.53477   0.02002   0.00000  Uiso   1.00
C331   C     0.50190   0.50856   0.47827   0.00000  Uiso   1.00
C332   C     0.49810   0.49144   0.02173   0.00000  Uiso   1.00
C333   C     0.45788   0.46550   0.04605   0.00000  Uiso   1.00
C334   C     0.54212   0.53450   0.45395   0.00000  Uiso   1.00
C335   C     0.42724   0.45052   0.02458   0.00000  Uiso   1.00
C336   C     0.57276   0.54948   0.47542   0.00000  Uiso   1.00
H337   H     0.37824   0.42417   0.47094   0.00000  Uiso   1.00
H338   H     0.62177   0.57583   0.02906   0.00000  Uiso   1.00
H339   H     0.45071   0.45557   0.08156   0.00000  Uiso   1.00
H340   H     0.54929   0.54443   0.41844   0.00000  Uiso   1.00
C341   C     0.54474   0.64737   0.24169   0.00000  Uiso   1.00
C342   C     0.45526   0.35263   0.25831   0.00000  Uiso   1.00
C343   C     0.54237   0.35625   0.24257   0.00000  Uiso   1.00
C344   C     0.45763   0.64375   0.25743   0.00000  Uiso   1.00
H345   H     0.57561   0.37384   0.23656   0.00000  Uiso   1.00
H346   H     0.42439   0.62616   0.26344   0.00000  Uiso   1.00
C347   C     0.49828   0.37581   0.25067   0.00000  Uiso   1.00
C348   C     0.50172   0.62419   0.24933   0.00000  Uiso   1.00
C349   C     0.65376   0.47439   0.22029   0.00000  Uiso   1.00
C350   C     0.34624   0.52561   0.27971   0.00000  Uiso   1.00
C351   C     0.36830   0.47408   0.22057   0.00000  Uiso   1.00
C352   C     0.63170   0.52592   0.27943   0.00000  Uiso   1.00
N353   N     0.38093   0.50001   0.25001   0.00000  Uiso   1.00
N354   N     0.61907   0.49999   0.24999   0.00000  Uiso   1.00
C355   C     0.39150   0.41909   0.04863   0.00000  Uiso   1.00
N356   N     0.36310   0.39371   0.06757   0.00000  Uiso   1.00
C357   C     0.60850   0.58091   0.45137   0.00000  Uiso   1.00
N358   N     0.63690   0.60629   0.43244   0.00000  Uiso   1.00
N359   N     0.52909   0.43919   0.08751   0.00000  Uiso   1.00
O360   O     0.53300   0.42196   0.12388   0.00000  Uiso   1.00
O361   O     0.53319   0.41557   0.05145   0.00000  Uiso   1.00
N362   N     0.47091   0.56081   0.41249   0.00000  Uiso   1.00
O363   O     0.46682   0.58443   0.44855   0.00000  Uiso   1.00
O364   O     0.46700   0.57804   0.37612   0.00000  Uiso   1.00
C365   C     0.61115   0.56067   0.11590   0.00000  Uiso   1.00
N366   N     0.63211   0.57763   0.13588   0.00000  Uiso   1.00
C367   C     0.38885   0.43933   0.38410   0.00000  Uiso   1.00
N368   N     0.36789   0.42236   0.36412   0.00000  Uiso   1.00
C369   C     0.59211   0.62996   0.23231   0.00000  Uiso   1.00
N370   N     0.63033   0.61669   0.22482   0.00000  Uiso   1.00
C371   C     0.40789   0.37004   0.26769   0.00000  Uiso   1.00
N372   N     0.36967   0.38331   0.27518   0.00000  Uiso   1.00
C373   C     0.64124   0.44801   0.18823   0.00000  Uiso   1.00
N374   N     0.63120   0.42686   0.16249   0.00000  Uiso   1.00
C375   C     0.35876   0.55199   0.31177   0.00000  Uiso   1.00
N376   N     0.36880   0.57314   0.33751   0.00000  Uiso   1.00
C377   C     0.40309   0.44492   0.19084   0.00000  Uiso   1.00
N378   N     0.43015   0.42084   0.16713   0.00000  Uiso   1.00
C379   C     0.59691   0.55508   0.30916   0.00000  Uiso   1.00
N380   N     0.56985   0.57915   0.33288   0.00000  Uiso   1.00
O381   O     0.79512   0.56108   0.25001   0.00000  Uiso   1.00
O382   O     0.87154   0.43892   0.25000   0.00000  Uiso   1.00
O383   O     0.87157   0.56107   0.25000   0.00000  Uiso   1.00
O384   O     0.79510   0.43893   0.25000   0.00000  Uiso   1.00
C385   C     0.83409   0.57998   0.24949   0.00000  Uiso   1.00
C386   C     0.83257   0.42002   0.25051   0.00000  Uiso   1.00
O387   O     0.77328   0.50001   0.31613   0.00000  Uiso   1.00
O388   O     0.89339   0.49999   0.18388   0.00000  Uiso   1.00
O389   O     0.84972   0.50000   0.31612   0.00000  Uiso   1.00
O390   O     0.81695   0.50000   0.18388   0.00000  Uiso   1.00
C391   C     0.80237   0.49919   0.33828   0.00000  Uiso   1.00
C392   C     0.86430   0.50081   0.16172   0.00000  Uiso   1.00
Zn393  Zn    0.78229   0.50001   0.25000   0.00000  Uiso   1.00
Zn394  Zn    0.88438   0.49999   0.25000   0.00000  Uiso   1.00
C395   C     0.78110   0.49312   0.38952   0.00000  Uiso   1.00
C396   C     0.88556   0.50688   0.11048   0.00000  Uiso   1.00
C397   C     0.73822   0.44856   0.45565   0.00000  Uiso   1.00
C398   C     0.92845   0.55144   0.04435   0.00000  Uiso   1.00
C399   C     0.74771   0.46059   0.40955   0.00000  Uiso   1.00
C400   C     0.91896   0.53941   0.09045   0.00000  Uiso   1.00
C401   C     0.79897   0.51649   0.41829   0.00000  Uiso   1.00
C402   C     0.86770   0.48351   0.08171   0.00000  Uiso   1.00
C403   C     0.80011   0.49754   0.45905   0.00000  Uiso   1.00
C404   C     0.86655   0.50246   0.04095   0.00000  Uiso   1.00
C405   C     0.76601   0.46523   0.47998   0.00000  Uiso   1.00
C406   C     0.90066   0.53477   0.02002   0.00000  Uiso   1.00
C407   C     0.83524   0.50856   0.47827   0.00000  Uiso   1.00
C408   C     0.83143   0.49144   0.02173   0.00000  Uiso   1.00
C409   C     0.79121   0.46550   0.04605   0.00000  Uiso   1.00
C410   C     0.87546   0.53450   0.45395   0.00000  Uiso   1.00
C411   C     0.76057   0.45052   0.02458   0.00000  Uiso   1.00
C412   C     0.90610   0.54948   0.47542   0.00000  Uiso   1.00
H413   H     0.71157   0.42417   0.47094   0.00000  Uiso   1.00
H414   H     0.95510   0.57583   0.02906   0.00000  Uiso   1.00
H415   H     0.78404   0.45557   0.08156   0.00000  Uiso   1.00
H416   H     0.88263   0.54443   0.41844   0.00000  Uiso   1.00
C417   C     0.87807   0.64737   0.24169   0.00000  Uiso   1.00
C418   C     0.78860   0.35263   0.25831   0.00000  Uiso   1.00
C419   C     0.87571   0.35625   0.24257   0.00000  Uiso   1.00
C420   C     0.79096   0.64375   0.25743   0.00000  Uiso   1.00
H421   H     0.90895   0.37384   0.23656   0.00000  Uiso   1.00
H422   H     0.75772   0.62616   0.26344   0.00000  Uiso   1.00
C423   C     0.83161   0.37581   0.25067   0.00000  Uiso   1.00
C424   C     0.83506   0.62419   0.24933   0.00000  Uiso   1.00
C425   C     0.98709   0.47439   0.22029   0.00000  Uiso   1.00
C426   C     0.67958   0.52561   0.27971   0.00000  Uiso   1.00
C427   C     0.70163   0.47408   0.22057   0.00000  Uiso   1.00
C428   C     0.96504   0.52592   0.27943   0.00000  Uiso   1.00
N429   N     0.71426   0.50001   0.25001   0.00000  Uiso   1.00
N430   N     0.95241   0.49999   0.24999   0.00000  Uiso   1.00
C431   C     0.72483   0.41909   0.04863   0.00000  Uiso   1.00
N432   N     0.69644   0.39371   0.06757   0.00000  Uiso   1.00
C433   C     0.94183   0.58091   0.45137   0.00000  Uiso   1.00
N434   N     0.97023   0.60629   0.43244   0.00000  Uiso   1.00
N435   N     0.86242   0.43919   0.08751   0.00000  Uiso   1.00
O436   O     0.86633   0.42196   0.12388   0.00000  Uiso   1.00
O437   O     0.86652   0.41557   0.05145   0.00000  Uiso   1.00
N438   N     0.80425   0.56081   0.41249   0.00000  Uiso   1.00
O439   O     0.80015   0.58443   0.44855   0.00000  Uiso   1.00
O440   O     0.80033   0.57804   0.37612   0.00000  Uiso   1.00
C441   C     0.94449   0.56067   0.11590   0.00000  Uiso   1.00
N442   N     0.96545   0.57763   0.13588   0.00000  Uiso   1.00
C443   C     0.72219   0.43933   0.38410   0.00000  Uiso   1.00
N444   N     0.70123   0.42236   0.36412   0.00000  Uiso   1.00
C445   C     0.92544   0.62996   0.23231   0.00000  Uiso   1.00
N446   N     0.96367   0.61669   0.22482   0.00000  Uiso   1.00
C447   C     0.74122   0.37004   0.26769   0.00000  Uiso   1.00
N448   N     0.70300   0.38331   0.27518   0.00000  Uiso   1.00
C449   C     0.97458   0.44801   0.18823   0.00000  Uiso   1.00
N450   N     0.96454   0.42686   0.16249   0.00000  Uiso   1.00
C451   C     0.69209   0.55199   0.31177   0.00000  Uiso   1.00
N452   N     0.70213   0.57314   0.33751   0.00000  Uiso   1.00
C453   C     0.73642   0.44492   0.19084   0.00000  Uiso   1.00
N454   N     0.76348   0.42084   0.16713   0.00000  Uiso   1.00
C455   C     0.93024   0.55508   0.30916   0.00000  Uiso   1.00
N456   N     0.90319   0.57915   0.33288   0.00000  Uiso   1.00
O457   O     0.12846   0.89442   0.25001   0.00000  Uiso   1.00
O458   O     0.20488   0.77225   0.25000   0.00000  Uiso   1.00
O459   O     0.20490   0.89441   0.25000   0.00000  Uiso   1.00
O460   O     0.12843   0.77226   0.25000   0.00000  Uiso   1.00
C461   C     0.16743   0.91331   0.24949   0.00000  Uiso   1.00
C462   C     0.16591   0.75335   0.25051   0.00000  Uiso   1.00
O463   O     0.10661   0.83334   0.31613   0.00000  Uiso   1.00
O464   O     0.22672   0.83333   0.18388   0.00000  Uiso   1.00
O465   O     0.18305   0.83333   0.31612   0.00000  Uiso   1.00
O466   O     0.15028   0.83334   0.18388   0.00000  Uiso   1.00
C467   C     0.13570   0.83252   0.33828   0.00000  Uiso   1.00
C468   C     0.19763   0.83414   0.16172   0.00000  Uiso   1.00
Zn469  Zn    0.11562   0.83334   0.25000   0.00000  Uiso   1.00
Zn470  Zn    0.21771   0.83333   0.25000   0.00000  Uiso   1.00
C471   C     0.11444   0.82645   0.38952   0.00000  Uiso   1.00
C472   C     0.21890   0.84021   0.11048   0.00000  Uiso   1.00
C473   C     0.07155   0.78189   0.45565   0.00000  Uiso   1.00
C474   C     0.26178   0.88477   0.04435   0.00000  Uiso   1.00
C475   C     0.08104   0.79392   0.40955   0.00000  Uiso   1.00
C476   C     0.25230   0.87274   0.09045   0.00000  Uiso   1.00
C477   C     0.13230   0.84982   0.41829   0.00000  Uiso   1.00
C478   C     0.20103   0.81685   0.08171   0.00000  Uiso   1.00
C479   C     0.13345   0.83088   0.45905   0.00000  Uiso   1.00
C480   C     0.19989   0.83579   0.04095   0.00000  Uiso   1.00
C481   C     0.09935   0.79856   0.47998   0.00000  Uiso   1.00
C482   C     0.23399   0.86810   0.02002   0.00000  Uiso   1.00
C483   C     0.16857   0.84189   0.47827   0.00000  Uiso   1.00
C484   C     0.16477   0.82478   0.02173   0.00000  Uiso   1.00
C485   C     0.12455   0.79883   0.04605   0.00000  Uiso   1.00
C486   C     0.20879   0.86784   0.45395   0.00000  Uiso   1.00
C487   C     0.09390   0.78385   0.02458   0.00000  Uiso   1.00
C488   C     0.23943   0.88282   0.47542   0.00000  Uiso   1.00
H489   H     0.04490   0.75751   0.47094   0.00000  Uiso   1.00
H490   H     0.28843   0.90916   0.02906   0.00000  Uiso   1.00
H491   H     0.11737   0.78891   0.08156   0.00000  Uiso   1.00
H492   H     0.21596   0.87776   0.41844   0.00000  Uiso   1.00
C493   C     0.21140   0.98070   0.24169   0.00000  Uiso   1.00
C494   C     0.12193   0.68597   0.25831   0.00000  Uiso   1.00
C495   C     0.20904   0.68958   0.24257   0.00000  Uiso   1.00
C496   C     0.12429   0.97709   0.25743   0.00000  Uiso   1.00
H497   H     0.24228   0.70718   0.23656   0.00000  Uiso   1.00
H498   H     0.09106   0.95949   0.26344   0.00000  Uiso   1.00
C499   C     0.16494   0.70914   0.25067   0.00000  Uiso   1.00
C500   C     0.16839   0.95753   0.24933   0.00000  Uiso   1.00
C501   C     0.32042   0.80773   0.22029   0.00000  Uiso   1.00
C502   C     0.01291   0.85894   0.27971   0.00000  Uiso   1.00
C503   C     0.03496   0.80741   0.22057   0.00000  Uiso   1.00
C504   C     0.29837   0.85926   0.27943   0.00000  Uiso   1.00
N505   N     0.04759   0.83334   0.25001   0.00000  Uiso   1.00
N506   N     0.28574   0.83332   0.24999   0.00000  Uiso   1.00
C507   C     0.05817   0.75243   0.04863   0.00000  Uiso   1.00
N508   N     0.02977   0.72705   0.06757   0.00000  Uiso   1.00
C509   C     0.27517   0.91424   0.45137   0.00000  Uiso   1.00
N510   N     0.30356   0.93962   0.43244   0.00000  Uiso   1.00
N511   N     0.19575   0.77252   0.08751   0.00000  Uiso   1.00
O512   O     0.19967   0.75530   0.12388   0.00000  Uiso   1.00
O513   O     0.19985   0.74890   0.05145   0.00000  Uiso   1.00
N514   N     0.13758   0.89415   0.41249   0.00000  Uiso   1.00
O515   O     0.13348   0.91777   0.44855   0.00000  Uiso   1.00
O516   O     0.13366   0.91137   0.37612   0.00000  Uiso   1.00
C517   C     0.27782   0.89400   0.11590   0.00000  Uiso   1.00
N518   N     0.29878   0.91097   0.13588   0.00000  Uiso   1.00
C519   C     0.05552   0.77266   0.38410   0.00000  Uiso   1.00
N520   N     0.03456   0.75570   0.36412   0.00000  Uiso   1.00
C521   C     0.25878   0.96329   0.23231   0.00000  Uiso   1.00
N522   N     0.29700   0.95002   0.22482   0.00000  Uiso   1.00
C523   C     0.07456   0.70338   0.26769   0.00000  Uiso   1.00
N524   N     0.03634   0.71664   0.27518   0.00000  Uiso   1.00
C525   C     0.30791   0.78134   0.18823   0.00000  Uiso   1.00
N526   N     0.29787   0.76020   0.16249   0.00000  Uiso   1.00
C527   C     0.02542   0.88533   0.31177   0.00000  Uiso   1.00
N528   N     0.03546   0.90647   0.33751   0.00000  Uiso   1.00
C529   C     0.06976   0.77825   0.19084   0.00000  Uiso   1.00
N530   N     0.09681   0.75418   0.16713   0.00000  Uiso   1.00
C531   C     0.26358   0.88841   0.30916   0.00000  Uiso   1.00
N532   N     0.23652   0.91249   0.33288   0.00000  Uiso   1.00
O533   O     0.46179   0.89442   0.25001   0.00000  Uiso   1.00
O534   O     0.53821   0.77225   0.25000   0.00000  Uiso   1.00
O535   O     0.53823   0.89441   0.25000   0.00000  Uiso   1.00
O536   O     0.46177   0.77226   0.25000   0.00000  Uiso   1.00
C537   C     0.50076   0.91331   0.24949   0.00000  Uiso   1.00
C538   C     0.49924   0.75335   0.25051   0.00000  Uiso   1.00
O539   O     0.43994   0.83334   0.31613   0.00000  Uiso   1.00
O540   O     0.56006   0.83333   0.18388   0.00000  Uiso   1.00
O541   O     0.51639   0.83333   0.31612   0.00000  Uiso   1.00
O542   O     0.48361   0.83334   0.18388   0.00000  Uiso   1.00
C543   C     0.46904   0.83252   0.33828   0.00000  Uiso   1.00
C544   C     0.53096   0.83414   0.16172   0.00000  Uiso   1.00
Zn545  Zn    0.44896   0.83334   0.25000   0.00000  Uiso   1.00
Zn546  Zn    0.55104   0.83333   0.25000   0.00000  Uiso   1.00
C547   C     0.44777   0.82645   0.38952   0.00000  Uiso   1.00
C548   C     0.55223   0.84021   0.11048   0.00000  Uiso   1.00
C549   C     0.40489   0.78189   0.45565   0.00000  Uiso   1.00
C550   C     0.59512   0.88477   0.04435   0.00000  Uiso   1.00
C551   C     0.41437   0.79392   0.40955   0.00000  Uiso   1.00
C552   C     0.58563   0.87274   0.09045   0.00000  Uiso   1.00
C553   C     0.46564   0.84982   0.41829   0.00000  Uiso   1.00
C554   C     0.53436   0.81685   0.08171   0.00000  Uiso   1.00
C555   C     0.46678   0.83088   0.45905   0.00000  Uiso   1.00
C556   C     0.53322   0.83579   0.04095   0.00000  Uiso   1.00
C557   C     0.43268   0.79856   0.47998   0.00000  Uiso   1.00
C558   C     0.56732   0.86810   0.02002   0.00000  Uiso   1.00
C559   C     0.50190   0.84189   0.47827   0.00000  Uiso   1.00
C560   C     0.49810   0.82478   0.02173   0.00000  Uiso   1.00
C561   C     0.45788   0.79883   0.04605   0.00000  Uiso   1.00
C562   C     0.54212   0.86784   0.45395   0.00000  Uiso   1.00
C563   C     0.42724   0.78385   0.02458   0.00000  Uiso   1.00
C564   C     0.57276   0.88282   0.47542   0.00000  Uiso   1.00
H565   H     0.37824   0.75751   0.47094   0.00000  Uiso   1.00
H566   H     0.62177   0.90916   0.02906   0.00000  Uiso   1.00
H567   H     0.45071   0.78891   0.08156   0.00000  Uiso   1.00
H568   H     0.54929   0.87776   0.41844   0.00000  Uiso   1.00
C569   C     0.54474   0.98070   0.24169   0.00000  Uiso   1.00
C570   C     0.45526   0.68597   0.25831   0.00000  Uiso   1.00
C571   C     0.54237   0.68958   0.24257   0.00000  Uiso   1.00
C572   C     0.45763   0.97709   0.25743   0.00000  Uiso   1.00
H573   H     0.57561   0.70718   0.23656   0.00000  Uiso   1.00
H574   H     0.42439   0.95949   0.26344   0.00000  Uiso   1.00
C575   C     0.49828   0.70914   0.25067   0.00000  Uiso   1.00
C576   C     0.50172   0.95753   0.24933   0.00000  Uiso   1.00
C577   C     0.65376   0.80773   0.22029   0.00000  Uiso   1.00
C578   C     0.34624   0.85894   0.27971   0.00000  Uiso   1.00
C579   C     0.36830   0.80741   0.22057   0.00000  Uiso   1.00
C580   C     0.63170   0.85926   0.27943   0.00000  Uiso   1.00
N581   N     0.38093   0.83334   0.25001   0.00000  Uiso   1.00
N582   N     0.61907   0.83332   0.24999   0.00000  Uiso   1.00
C583   C     0.39150   0.75243   0.04863   0.00000  Uiso   1.00
N584   N     0.36310   0.72705   0.06757   0.00000  Uiso   1.00
C585   C     0.60850   0.91424   0.45137   0.00000  Uiso   1.00
N586   N     0.63690   0.93962   0.43244   0.00000  Uiso   1.00
N587   N     0.52909   0.77252   0.08751   0.00000  Uiso   1.00
O588   O     0.53300   0.75530   0.12388   0.00000  Uiso   1.00
O589   O     0.53319   0.74890   0.05145   0.00000  Uiso   1.00
N590   N     0.47091   0.89415   0.41249   0.00000  Uiso   1.00
O591   O     0.46682   0.91777   0.44855   0.00000  Uiso   1.00
O592   O     0.46700   0.91137   0.37612   0.00000  Uiso   1.00
C593   C     0.61115   0.89400   0.11590   0.00000  Uiso   1.00
N594   N     0.63211   0.91097   0.13588   0.00000  Uiso   1.00
C595   C     0.38885   0.77266   0.38410   0.00000  Uiso   1.00
N596   N     0.36789   0.75570   0.36412   0.00000  Uiso   1.00
C597   C     0.59211   0.96329   0.23231   0.00000  Uiso   1.00
N598   N     0.63033   0.95002   0.22482   0.00000  Uiso   1.00
C599   C     0.40789   0.70338   0.26769   0.00000  Uiso   1.00
N600   N     0.36967   0.71664   0.27518   0.00000  Uiso   1.00
C601   C     0.64124   0.78134   0.18823   0.00000  Uiso   1.00
N602   N     0.63120   0.76020   0.16249   0.00000  Uiso   1.00
C603   C     0.35876   0.88533   0.31177   0.00000  Uiso   1.00
N604   N     0.36880   0.90647   0.33751   0.00000  Uiso   1.00
C605   C     0.40309   0.77825   0.19084   0.00000  Uiso   1.00
N606   N     0.43015   0.75418   0.16713   0.00000  Uiso   1.00
C607   C     0.59691   0.88841   0.30916   0.00000  Uiso   1.00
N608   N     0.56985   0.91249   0.33288   0.00000  Uiso   1.00
O609   O     0.79512   0.89442   0.25001   0.00000  Uiso   1.00
O610   O     0.87154   0.77225   0.25000   0.00000  Uiso   1.00
O611   O     0.87157   0.89441   0.25000   0.00000  Uiso   1.00
O612   O     0.79510   0.77226   0.25000   0.00000  Uiso   1.00
C613   C     0.83409   0.91331   0.24949   0.00000  Uiso   1.00
C614   C     0.83257   0.75335   0.25051   0.00000  Uiso   1.00
O615   O     0.77328   0.83334   0.31613   0.00000  Uiso   1.00
O616   O     0.89339   0.83333   0.18388   0.00000  Uiso   1.00
O617   O     0.84972   0.83333   0.31612   0.00000  Uiso   1.00
O618   O     0.81695   0.83334   0.18388   0.00000  Uiso   1.00
C619   C     0.80237   0.83252   0.33828   0.00000  Uiso   1.00
C620   C     0.86430   0.83414   0.16172   0.00000  Uiso   1.00
Zn621  Zn    0.78229   0.83334   0.25000   0.00000  Uiso   1.00
Zn622  Zn    0.88438   0.83333   0.25000   0.00000  Uiso   1.00
C623   C     0.78110   0.82645   0.38952   0.00000  Uiso   1.00
C624   C     0.88556   0.84021   0.11048   0.00000  Uiso   1.00
C625   C     0.73822   0.78189   0.45565   0.00000  Uiso   1.00
C626   C     0.92845   0.88477   0.04435   0.00000  Uiso   1.00
C627   C     0.74771   0.79392   0.40955   0.00000  Uiso   1.00
C628   C     0.91896   0.87274   0.09045   0.00000  Uiso   1.00
C629   C     0.79897   0.84982   0.41829   0.00000  Uiso   1.00
C630   C     0.86770   0.81685   0.08171   0.00000  Uiso   1.00
C631   C     0.80011   0.83088   0.45905   0.00000  Uiso   1.00
C632   C     0.86655   0.83579   0.04095   0.00000  Uiso   1.00
C633   C     0.76601   0.79856   0.47998   0.00000  Uiso   1.00
C634   C     0.90066   0.86810   0.02002   0.00000  Uiso   1.00
C635   C     0.83524   0.84189   0.47827   0.00000  Uiso   1.00
C636   C     0.83143   0.82478   0.02173   0.00000  Uiso   1.00
C637   C     0.79121   0.79883   0.04605   0.00000  Uiso   1.00
C638   C     0.87546   0.86784   0.45395   0.00000  Uiso   1.00
C639   C     0.76057   0.78385   0.02458   0.00000  Uiso   1.00
C640   C     0.90610   0.88282   0.47542   0.00000  Uiso   1.00
H641   H     0.71157   0.75751   0.47094   0.00000  Uiso   1.00
H642   H     0.95510   0.90916   0.02906   0.00000  Uiso   1.00
H643   H     0.78404   0.78891   0.08156   0.00000  Uiso   1.00
H644   H     0.88263   0.87776   0.41844   0.00000  Uiso   1.00
C645   C     0.87807   0.98070   0.24169   0.00000  Uiso   1.00
C646   C     0.78860   0.68597   0.25831   0.00000  Uiso   1.00
C647   C     0.87571   0.68958   0.24257   0.00000  Uiso   1.00
C648   C     0.79096   0.97709   0.25743   0.00000  Uiso   1.00
H649   H     0.90895   0.70718   0.23656   0.00000  Uiso   1.00
H650   H     0.75772   0.95949   0.26344   0.00000  Uiso   1.00
C651   C     0.83161   0.70914   0.25067   0.00000  Uiso   1.00
C652   C     0.83506   0.95753   0.24933   0.00000  Uiso   1.00
C653   C     0.98709   0.80773   0.22029   0.00000  Uiso   1.00
C654   C     0.67958   0.85894   0.27971   0.00000  Uiso   1.00
C655   C     0.70163   0.80741   0.22057   0.00000  Uiso   1.00
C656   C     0.96504   0.85926   0.27943   0.00000  Uiso   1.00
N657   N     0.71426   0.83334   0.25001   0.00000  Uiso   1.00
N658   N     0.95241   0.83332   0.24999   0.00000  Uiso   1.00
C659   C     0.72483   0.75243   0.04863   0.00000  Uiso   1.00
N660   N     0.69644   0.72705   0.06757   0.00000  Uiso   1.00
C661   C     0.94183   0.91424   0.45137   0.00000  Uiso   1.00
N662   N     0.97023   0.93962   0.43244   0.00000  Uiso   1.00
N663   N     0.86242   0.77252   0.08751   0.00000  Uiso   1.00
O664   O     0.86633   0.75530   0.12388   0.00000  Uiso   1.00
O665   O     0.86652   0.74890   0.05145   0.00000  Uiso   1.00
N666   N     0.80425   0.89415   0.41249   0.00000  Uiso   1.00
O667   O     0.80015   0.91777   0.44855   0.00000  Uiso   1.00
O668   O     0.80033   0.91137   0.37612   0.00000  Uiso   1.00
C669   C     0.94449   0.89400   0.11590   0.00000  Uiso   1.00
N670   N     0.96545   0.91097   0.13588   0.00000  Uiso   1.00
C671   C     0.72219   0.77266   0.38410   0.00000  Uiso   1.00
N672   N     0.70123   0.75570   0.36412   0.00000  Uiso   1.00
C673   C     0.92544   0.96329   0.23231   0.00000  Uiso   1.00
N674   N     0.96367   0.95002   0.22482   0.00000  Uiso   1.00
C675   C     0.74122   0.70338   0.26769   0.00000  Uiso   1.00
N676   N     0.70300   0.71664   0.27518   0.00000  Uiso   1.00
C677   C     0.97458   0.78134   0.18823   0.00000  Uiso   1.00
N678   N     0.96454   0.76020   0.16249   0.00000  Uiso   1.00
C679   C     0.69209   0.88533   0.31177   0.00000  Uiso   1.00
N680   N     0.70213   0.90647   0.33751   0.00000  Uiso   1.00
C681   C     0.73642   0.77825   0.19084   0.00000  Uiso   1.00
N682   N     0.76348   0.75418   0.16713   0.00000  Uiso   1.00
C683   C     0.93024   0.88841   0.30916   0.00000  Uiso   1.00
N684   N     0.90319   0.91249   0.33288   0.00000  Uiso   1.00
O685   O     0.12846   0.22775   0.75001   0.00000  Uiso   1.00
O686   O     0.20488   0.10558   0.75000   0.00000  Uiso   1.00
O687   O     0.20490   0.22774   0.75000   0.00000  Uiso   1.00
O688   O     0.12843   0.10559   0.75000   0.00000  Uiso   1.00
C689   C     0.16743   0.24665   0.74949   0.00000  Uiso   1.00
C690   C     0.16591   0.08669   0.75051   0.00000  Uiso   1.00
O691   O     0.10661   0.16667   0.81613   0.00000  Uiso   1.00
O692   O     0.22672   0.16666   0.68388   0.00000  Uiso   1.00
O693   O     0.18305   0.16666   0.81612   0.00000  Uiso   1.00
O694   O     0.15028   0.16667   0.68388   0.00000  Uiso   1.00
C695   C     0.13570   0.16586   0.83828   0.00000  Uiso   1.00
C696   C     0.19763   0.16748   0.66172   0.00000  Uiso   1.00
Zn697  Zn    0.11562   0.16667   0.75000   0.00000  Uiso   1.00
Zn698  Zn    0.21771   0.16666   0.75000   0.00000  Uiso   1.00
C699   C     0.11444   0.15979   0.88952   0.00000  Uiso   1.00
C700   C     0.21890   0.17355   0.61048   0.00000  Uiso   1.00
C701   C     0.07155   0.11523   0.95565   0.00000  Uiso   1.00
C702   C     0.26178   0.21811   0.54435   0.00000  Uiso   1.00
C703   C     0.08104   0.12726   0.90955   0.00000  Uiso   1.00
C704   C     0.25230   0.20607   0.59045   0.00000  Uiso   1.00
C705   C     0.13230   0.18315   0.91829   0.00000  Uiso   1.00
C706   C     0.20103   0.15018   0.58171   0.00000  Uiso   1.00
C707   C     0.13345   0.16421   0.95905   0.00000  Uiso   1.00
C708   C     0.19989   0.16912   0.54095   0.00000  Uiso   1.00
C709   C     0.09935   0.13190   0.97998   0.00000  Uiso   1.00
C710   C     0.23399   0.20144   0.52002   0.00000  Uiso   1.00
C711   C     0.16857   0.17522   0.97827   0.00000  Uiso   1.00
C712   C     0.16477   0.15811   0.52173   0.00000  Uiso   1.00
C713   C     0.12455   0.13216   0.54605   0.00000  Uiso   1.00
C714   C     0.20879   0.20117   0.95395   0.00000  Uiso   1.00
C715   C     0.09390   0.11718   0.52458   0.00000  Uiso   1.00
C716   C     0.23943   0.21615   0.97542   0.00000  Uiso   1.00
H717   H     0.04490   0.09084   0.97094   0.00000  Uiso   1.00
H718   H     0.28843   0.24249   0.52906   0.00000  Uiso   1.00
H719   H     0.11737   0.12224   0.58156   0.00000  Uiso   1.00
H720   H     0.21596   0.21110   0.91844   0.00000  Uiso   1.00
C721   C     0.21140   0.31403   0.74169   0.00000  Uiso   1.00
C722   C     0.12193   0.01930   0.75831   0.00000  Uiso   1.00
C723   C     0.20904   0.02291   0.74257   0.00000  Uiso   1.00
C724   C     0.12429   0.31042   0.75743   0.00000  Uiso   1.00
H725   H     0.24228   0.04051   0.73656   0.00000  Uiso   1.00
H726   H     0.09106   0.29282   0.76344   0.00000  Uiso   1.00
C727   C     0.16494   0.04247   0.75067   0.00000  Uiso   1.00
C728   C     0.16839   0.29086   0.74933   0.00000  Uiso   1.00
C729   C     0.32042   0.14106   0.72029   0.00000  Uiso   1.00
C730   C     0.01291   0.19227   0.77971   0.00000  Uiso   1.00
C731   C     0.03496   0.14074   0.72057   0.00000  Uiso   1.00
C732   C     0.29837   0.19259   0.77943   0.00000  Uiso   1.00
N733   N     0.04759   0.16668   0.75001   0.00000  Uiso   1.00
N734   N     0.28574   0.16666   0.74999   0.00000  Uiso   1.00
C735   C     0.05817   0.08576   0.54863   0.00000  Uiso   1.00
N736   N     0.02977   0.06038   0.56757   0.00000  Uiso   1.00
C737   C     0.27517   0.24757   0.95137   0.00000  Uiso   1.00
N738   N     0.30356   0.27295   0.93244   0.00000  Uiso   1.00
N739   N     0.19575   0.10585   0.58751   0.00000  Uiso   1.00
O740   O     0.19967   0.08863   0.62388   0.00000  Uiso   1.00
O741   O     0.19985   0.08223   0.55145   0.00000  Uiso   1.00
N742   N     0.13758   0.22748   0.91249   0.00000  Uiso   1.00
O743   O     0.13348   0.25110   0.94855   0.00000  Uiso   1.00
O744   O     0.13366   0.24470   0.87612   0.00000  Uiso   1.00
C745   C     0.27782   0.22734   0.61590   0.00000  Uiso   1.00
N746   N     0.29878   0.24430   0.63588   0.00000  Uiso   1.00
C747   C     0.05552   0.10599   0.88410   0.00000  Uiso   1.00
N748   N     0.03456   0.08903   0.86412   0.00000  Uiso   1.00
C749   C     0.25878   0.29662   0.73231   0.00000  Uiso   1.00
N750   N     0.29700   0.28336   0.72482   0.00000  Uiso   1.00
C751   C     0.07456   0.03671   0.76769   0.00000  Uiso   1.00
N752   N     0.03634   0.04998   0.77518   0.00000  Uiso   1.00
C753   C     0.30791   0.11467   0.68823   0.00000  Uiso   1.00
N754   N     0.29787   0.09353   0.66249   0.00000  Uiso   1.00
C755   C     0.02542   0.21866   0.81177   0.00000  Uiso   1.00
N756   N     0.03546   0.23980   0.83751   0.00000  Uiso   1.00
C757   C     0.06976   0.11159   0.69084   0.00000  Uiso   1.00
N758   N     0.09681   0.08751   0.66713   0.00000  Uiso   1.00
C759   C     0.26358   0.22174   0.80916   0.00000  Uiso   1.00
N760   N     0.23652   0.24582   0.83288   0.00000  Uiso   1.00
O761   O     0.46179   0.22775   0.75001   0.00000  Uiso   1.00
O762   O     0.53821   0.10558   0.75000   0.00000  Uiso   1.00
O763   O     0.53823   0.22774   0.75000   0.00000  Uiso   1.00
O764   O     0.46177   0.10559   0.75000   0.00000  Uiso   1.00
C765   C     0.50076   0.24665   0.74949   0.00000  Uiso   1.00
C766   C     0.49924   0.08669   0.75051   0.00000  Uiso   1.00
O767   O     0.43994   0.16667   0.81613   0.00000  Uiso   1.00
O768   O     0.56006   0.16666   0.68388   0.00000  Uiso   1.00
O769   O     0.51639   0.16666   0.81612   0.00000  Uiso   1.00
O770   O     0.48361   0.16667   0.68388   0.00000  Uiso   1.00
C771   C     0.46904   0.16586   0.83828   0.00000  Uiso   1.00
C772   C     0.53096   0.16748   0.66172   0.00000  Uiso   1.00
Zn773  Zn    0.44896   0.16667   0.75000   0.00000  Uiso   1.00
Zn774  Zn    0.55104   0.16666   0.75000   0.00000  Uiso   1.00
C775   C     0.44777   0.15979   0.88952   0.00000  Uiso   1.00
C776   C     0.55223   0.17355   0.61048   0.00000  Uiso   1.00
C777   C     0.40489   0.11523   0.95565   0.00000  Uiso   1.00
C778   C     0.59512   0.21811   0.54435   0.00000  Uiso   1.00
C779   C     0.41437   0.12726   0.90955   0.00000  Uiso   1.00
C780   C     0.58563   0.20607   0.59045   0.00000  Uiso   1.00
C781   C     0.46564   0.18315   0.91829   0.00000  Uiso   1.00
C782   C     0.53436   0.15018   0.58171   0.00000  Uiso   1.00
C783   C     0.46678   0.16421   0.95905   0.00000  Uiso   1.00
C784   C     0.53322   0.16912   0.54095   0.00000  Uiso   1.00
C785   C     0.43268   0.13190   0.97998   0.00000  Uiso   1.00
C786   C     0.56732   0.20144   0.52002   0.00000  Uiso   1.00
C787   C     0.50190   0.17522   0.97827   0.00000  Uiso   1.00
C788   C     0.49810   0.15811   0.52173   0.00000  Uiso   1.00
C789   C     0.45788   0.13216   0.54605   0.00000  Uiso   1.00
C790   C     0.54212   0.20117   0.95395   0.00000  Uiso   1.00
C791   C     0.42724   0.11718   0.52458   0.00000  Uiso   1.00
C792   C     0.57276   0.21615   0.97542   0.00000  Uiso   1.00
H793   H     0.37824   0.09084   0.97094   0.00000  Uiso   1.00
H794   H     0.62177   0.24249   0.52906   0.00000  Uiso   1.00
H795   H     0.45071   0.12224   0.58156   0.00000  Uiso   1.00
H796   H     0.54929   0.21110   0.91844   0.00000  Uiso   1.00
C797   C     0.54474   0.31403   0.74169   0.00000  Uiso   1.00
C798   C     0.45526   0.01930   0.75831   0.00000  Uiso   1.00
C799   C     0.54237   0.02291   0.74257   0.00000  Uiso   1.00
C800   C     0.45763   0.31042   0.75743   0.00000  Uiso   1.00
H801   H     0.57561   0.04051   0.73656   0.00000  Uiso   1.00
H802   H     0.42439   0.29282   0.76344   0.00000  Uiso   1.00
C803   C     0.49828   0.04247   0.75067   0.00000  Uiso   1.00
C804   C     0.50172   0.29086   0.74933   0.00000  Uiso   1.00
C805   C     0.65376   0.14106   0.72029   0.00000  Uiso   1.00
C806   C     0.34624   0.19227   0.77971   0.00000  Uiso   1.00
C807   C     0.36830   0.14074   0.72057   0.00000  Uiso   1.00
C808   C     0.63170   0.19259   0.77943   0.00000  Uiso   1.00
N809   N     0.38093   0.16668   0.75001   0.00000  Uiso   1.00
N810   N     0.61907   0.16666   0.74999   0.00000  Uiso   1.00
C811   C     0.39150   0.08576   0.54863   0.00000  Uiso   1.00
N812   N     0.36310   0.06038   0.56757   0.00000  Uiso   1.00
C813   C     0.60850   0.24757   0.95137   0.00000  Uiso   1.00
N814   N     0.63690   0.27295   0.93244   0.00000  Uiso   1.00
N815   N     0.52909   0.10585   0.58751   0.00000  Uiso   1.00
O816   O     0.53300   0.08863   0.62388   0.00000  Uiso   1.00
O817   O     0.53319   0.08223   0.55145   0.00000  Uiso   1.00
N818   N     0.47091   0.22748   0.91249   0.00000  Uiso   1.00
O819   O     0.46682   0.25110   0.94855   0.00000  Uiso   1.00
O820   O     0.46700   0.24470   0.87612   0.00000  Uiso   1.00
C821   C     0.61115   0.22734   0.61590   0.00000  Uiso   1.00
N822   N     0.63211   0.24430   0.63588   0.00000  Uiso   1.00
C823   C     0.38885   0.10599   0.88410   0.00000  Uiso   1.00
N824   N     0.36789   0.08903   0.86412   0.00000  Uiso   1.00
C825   C     0.59211   0.29662   0.73231   0.00000  Uiso   1.00
N826   N     0.63033   0.28336   0.72482   0.00000  Uiso   1.00
C827   C     0.40789   0.03671   0.76769   0.00000  Uiso   1.00
N828   N     0.36967   0.04998   0.77518   0.00000  Uiso   1.00
C829   C     0.64124   0.11467   0.68823   0.00000  Uiso   1.00
N830   N     0.63120   0.09353   0.66249   0.00000  Uiso   1.00
C831   C     0.35876   0.21866   0.81177   0.00000  Uiso   1.00
N832   N     0.36880   0.23980   0.83751   0.00000  Uiso   1.00
C833   C     0.40309   0.11159   0.69084   0.00000  Uiso   1.00
N834   N     0.43015   0.08751   0.66713   0.00000  Uiso   1.00
C835   C     0.59691   0.22174   0.80916   0.00000  Uiso   1.00
N836   N     0.56985   0.24582   0.83288   0.00000  Uiso   1.00
O837   O     0.79512   0.22775   0.75001   0.00000  Uiso   1.00
O838   O     0.87154   0.10558   0.75000   0.00000  Uiso   1.00
O839   O     0.87157   0.22774   0.75000   0.00000  Uiso   1.00
O840   O     0.79510   0.10559   0.75000   0.00000  Uiso   1.00
C841   C     0.83409   0.24665   0.74949   0.00000  Uiso   1.00
C842   C     0.83257   0.08669   0.75051   0.00000  Uiso   1.00
O843   O     0.77328   0.16667   0.81613   0.00000  Uiso   1.00
O844   O     0.89339   0.16666   0.68388   0.00000  Uiso   1.00
O845   O     0.84972   0.16666   0.81612   0.00000  Uiso   1.00
O846   O     0.81695   0.16667   0.68388   0.00000  Uiso   1.00
C847   C     0.80237   0.16586   0.83828   0.00000  Uiso   1.00
C848   C     0.86430   0.16748   0.66172   0.00000  Uiso   1.00
Zn849  Zn    0.78229   0.16667   0.75000   0.00000  Uiso   1.00
Zn850  Zn    0.88438   0.16666   0.75000   0.00000  Uiso   1.00
C851   C     0.78110   0.15979   0.88952   0.00000  Uiso   1.00
C852   C     0.88556   0.17355   0.61048   0.00000  Uiso   1.00
C853   C     0.73822   0.11523   0.95565   0.00000  Uiso   1.00
C854   C     0.92845   0.21811   0.54435   0.00000  Uiso   1.00
C855   C     0.74771   0.12726   0.90955   0.00000  Uiso   1.00
C856   C     0.91896   0.20607   0.59045   0.00000  Uiso   1.00
C857   C     0.79897   0.18315   0.91829   0.00000  Uiso   1.00
C858   C     0.86770   0.15018   0.58171   0.00000  Uiso   1.00
C859   C     0.80011   0.16421   0.95905   0.00000  Uiso   1.00
C860   C     0.86655   0.16912   0.54095   0.00000  Uiso   1.00
C861   C     0.76601   0.13190   0.97998   0.00000  Uiso   1.00
C862   C     0.90066   0.20144   0.52002   0.00000  Uiso   1.00
C863   C     0.83524   0.17522   0.97827   0.00000  Uiso   1.00
C864   C     0.83143   0.15811   0.52173   0.00000  Uiso   1.00
C865   C     0.79121   0.13216   0.54605   0.00000  Uiso   1.00
C866   C     0.87546   0.20117   0.95395   0.00000  Uiso   1.00
C867   C     0.76057   0.11718   0.52458   0.00000  Uiso   1.00
C868   C     0.90610   0.21615   0.97542   0.00000  Uiso   1.00
H869   H     0.71157   0.09084   0.97094   0.00000  Uiso   1.00
H870   H     0.95510   0.24249   0.52906   0.00000  Uiso   1.00
H871   H     0.78404   0.12224   0.58156   0.00000  Uiso   1.00
H872   H     0.88263   0.21110   0.91844   0.00000  Uiso   1.00
C873   C     0.87807   0.31403   0.74169   0.00000  Uiso   1.00
C874   C     0.78860   0.01930   0.75831   0.00000  Uiso   1.00
C875   C     0.87571   0.02291   0.74257   0.00000  Uiso   1.00
C876   C     0.79096   0.31042   0.75743   0.00000  Uiso   1.00
H877   H     0.90895   0.04051   0.73656   0.00000  Uiso   1.00
H878   H     0.75772   0.29282   0.76344   0.00000  Uiso   1.00
C879   C     0.83161   0.04247   0.75067   0.00000  Uiso   1.00
C880   C     0.83506   0.29086   0.74933   0.00000  Uiso   1.00
C881   C     0.98709   0.14106   0.72029   0.00000  Uiso   1.00
C882   C     0.67958   0.19227   0.77971   0.00000  Uiso   1.00
C883   C     0.70163   0.14074   0.72057   0.00000  Uiso   1.00
C884   C     0.96504   0.19259   0.77943   0.00000  Uiso   1.00
N885   N     0.71426   0.16668   0.75001   0.00000  Uiso   1.00
N886   N     0.95241   0.16666   0.74999   0.00000  Uiso   1.00
C887   C     0.72483   0.08576   0.54863   0.00000  Uiso   1.00
N888   N     0.69644   0.06038   0.56757   0.00000  Uiso   1.00
C889   C     0.94183   0.24757   0.95137   0.00000  Uiso   1.00
N890   N     0.97023   0.27295   0.93244   0.00000  Uiso   1.00
N891   N     0.86242   0.10585   0.58751   0.00000  Uiso   1.00
O892   O     0.86633   0.08863   0.62388   0.00000  Uiso   1.00
O893   O     0.86652   0.08223   0.55145   0.00000  Uiso   1.00
N894   N     0.80425   0.22748   0.91249   0.00000  Uiso   1.00
O895   O     0.80015   0.25110   0.94855   0.00000  Uiso   1.00
O896   O     0.80033   0.24470   0.87612   0.00000  Uiso   1.00
C897   C     0.94449   0.22734   0.61590   0.00000  Uiso   1.00
N898   N     0.96545   0.24430   0.63588   0.00000  Uiso   1.00
C899   C     0.72219   0.10599   0.88410   0.00000  Uiso   1.00
N900   N     0.70123   0.08903   0.86412   0.00000  Uiso   1.00
C901   C     0.92544   0.29662   0.73231   0.00000  Uiso   1.00
N902   N     0.96367   0.28336   0.72482   0.00000  Uiso   1.00
C903   C     0.74122   0.03671   0.76769   0.00000  Uiso   1.00
N904   N     0.70300   0.04998   0.77518   0.00000  Uiso   1.00
C905   C     0.97458   0.11467   0.68823   0.00000  Uiso   1.00
N906   N     0.96454   0.09353   0.66249   0.00000  Uiso   1.00
C907   C     0.69209   0.21866   0.81177   0.00000  Uiso   1.00
N908   N     0.70213   0.23980   0.83751   0.00000  Uiso   1.00
C909   C     0.73642   0.11159   0.69084   0.00000  Uiso   1.00
N910   N     0.76348   0.08751   0.66713   0.00000  Uiso   1.00
C911   C     0.93024   0.22174   0.80916   0.00000  Uiso   1.00
N912   N     0.90319   0.24582   0.83288   0.00000  Uiso   1.00
O913   O     0.12846   0.56108   0.75001   0.00000  Uiso   1.00
O914   O     0.20488   0.43892   0.75000   0.00000  Uiso   1.00
O915   O     0.20490   0.56107   0.75000   0.00000  Uiso   1.00
O916   O     0.12843   0.43893   0.75000   0.00000  Uiso   1.00
C917   C     0.16743   0.57998   0.74949   0.00000  Uiso   1.00
C918   C     0.16591   0.42002   0.75051   0.00000  Uiso   1.00
O919   O     0.10661   0.50001   0.81613   0.00000  Uiso   1.00
O920   O     0.22672   0.49999   0.68388   0.00000  Uiso   1.00
O921   O     0.18305   0.50000   0.81612   0.00000  Uiso   1.00
O922   O     0.15028   0.50000   0.68388   0.00000  Uiso   1.00
C923   C     0.13570   0.49919   0.83828   0.00000  Uiso   1.00
C924   C     0.19763   0.50081   0.66172   0.00000  Uiso   1.00
Zn925  Zn    0.11562   0.50001   0.75000   0.00000  Uiso   1.00
Zn926  Zn    0.21771   0.49999   0.75000   0.00000  Uiso   1.00
C927   C     0.11444   0.49312   0.88952   0.00000  Uiso   1.00
C928   C     0.21890   0.50688   0.61048   0.00000  Uiso   1.00
C929   C     0.07155   0.44856   0.95565   0.00000  Uiso   1.00
C930   C     0.26178   0.55144   0.54435   0.00000  Uiso   1.00
C931   C     0.08104   0.46059   0.90955   0.00000  Uiso   1.00
C932   C     0.25230   0.53941   0.59045   0.00000  Uiso   1.00
C933   C     0.13230   0.51649   0.91829   0.00000  Uiso   1.00
C934   C     0.20103   0.48351   0.58171   0.00000  Uiso   1.00
C935   C     0.13345   0.49754   0.95905   0.00000  Uiso   1.00
C936   C     0.19989   0.50246   0.54095   0.00000  Uiso   1.00
C937   C     0.09935   0.46523   0.97998   0.00000  Uiso   1.00
C938   C     0.23399   0.53477   0.52002   0.00000  Uiso   1.00
C939   C     0.16857   0.50856   0.97827   0.00000  Uiso   1.00
C940   C     0.16477   0.49144   0.52173   0.00000  Uiso   1.00
C941   C     0.12455   0.46550   0.54605   0.00000  Uiso   1.00
C942   C     0.20879   0.53450   0.95395   0.00000  Uiso   1.00
C943   C     0.09390   0.45052   0.52458   0.00000  Uiso   1.00
C944   C     0.23943   0.54948   0.97542   0.00000  Uiso   1.00
H945   H     0.04490   0.42417   0.97094   0.00000  Uiso   1.00
H946   H     0.28843   0.57583   0.52906   0.00000  Uiso   1.00
H947   H     0.11737   0.45557   0.58156   0.00000  Uiso   1.00
H948   H     0.21596   0.54443   0.91844   0.00000  Uiso   1.00
C949   C     0.21140   0.64737   0.74169   0.00000  Uiso   1.00
C950   C     0.12193   0.35263   0.75831   0.00000  Uiso   1.00
C951   C     0.20904   0.35625   0.74257   0.00000  Uiso   1.00
C952   C     0.12429   0.64375   0.75743   0.00000  Uiso   1.00
H953   H     0.24228   0.37384   0.73656   0.00000  Uiso   1.00
H954   H     0.09106   0.62616   0.76344   0.00000  Uiso   1.00
C955   C     0.16494   0.37581   0.75067   0.00000  Uiso   1.00
C956   C     0.16839   0.62419   0.74933   0.00000  Uiso   1.00
C957   C     0.32042   0.47439   0.72029   0.00000  Uiso   1.00
C958   C     0.01291   0.52561   0.77971   0.00000  Uiso   1.00
C959   C     0.03496   0.47408   0.72057   0.00000  Uiso   1.00
C960   C     0.29837   0.52592   0.77943   0.00000  Uiso   1.00
N961   N     0.04759   0.50001   0.75001   0.00000  Uiso   1.00
N962   N     0.28574   0.49999   0.74999   0.00000  Uiso   1.00
C963   C     0.05817   0.41909   0.54863   0.00000  Uiso   1.00
N964   N     0.02977   0.39371   0.56757   0.00000  Uiso   1.00
C965   C     0.27517   0.58091   0.95137   0.00000  Uiso   1.00
N966   N     0.30356   0.60629   0.93244   0.00000  Uiso   1.00
N967   N     0.19575   0.43919   0.58751   0.00000  Uiso   1.00
O968   O     0.19967   0.42196   0.62388   0.00000  Uiso   1.00
O969   O     0.19985   0.41557   0.55145   0.00000  Uiso   1.00
N970   N     0.13758   0.56081   0.91249   0.00000  Uiso   1.00
O971   O     0.13348   0.58443   0.94855   0.00000  Uiso   1.00
O972   O     0.13366   0.57804   0.87612   0.00000  Uiso   1.00
C973   C     0.27782   0.56067   0.61590   0.00000  Uiso   1.00
N974   N     0.29878   0.57763   0.63588   0.00000  Uiso   1.00
C975   C     0.05552   0.43933   0.88410   0.00000  Uiso   1.00
N976   N     0.03456   0.42236   0.86412   0.00000  Uiso   1.00
C977   C     0.25878   0.62996   0.73231   0.00000  Uiso   1.00
N978   N     0.29700   0.61669   0.72482   0.00000  Uiso   1.00
C979   C     0.07456   0.37004   0.76769   0.00000  Uiso   1.00
N980   N     0.03634   0.38331   0.77518   0.00000  Uiso   1.00
C981   C     0.30791   0.44801   0.68823   0.00000  Uiso   1.00
N982   N     0.29787   0.42686   0.66249   0.00000  Uiso   1.00
C983   C     0.02542   0.55199   0.81177   0.00000  Uiso   1.00
N984   N     0.03546   0.57314   0.83751   0.00000  Uiso   1.00
C985   C     0.06976   0.44492   0.69084   0.00000  Uiso   1.00
N986   N     0.09681   0.42084   0.66713   0.00000  Uiso   1.00
C987   C     0.26358   0.55508   0.80916   0.00000  Uiso   1.00
N988   N     0.23652   0.57915   0.83288   0.00000  Uiso   1.00
O989   O     0.46179   0.56108   0.75001   0.00000  Uiso   1.00
O990   O     0.53821   0.43892   0.75000   0.00000  Uiso   1.00
O991   O     0.53823   0.56107   0.75000   0.00000  Uiso   1.00
O992   O     0.46177   0.43893   0.75000   0.00000  Uiso   1.00
C993   C     0.50076   0.57998   0.74949   0.00000  Uiso   1.00
C994   C     0.49924   0.42002   0.75051   0.00000  Uiso   1.00
O995   O     0.43994   0.50001   0.81613   0.00000  Uiso   1.00
O996   O     0.56006   0.49999   0.68388   0.00000  Uiso   1.00
O997   O     0.51639   0.50000   0.81612   0.00000  Uiso   1.00
O998   O     0.48361   0.50000   0.68388   0.00000  Uiso   1.00
C999   C     0.46904   0.49919   0.83828   0.00000  Uiso   1.00
C1000  C     0.53096   0.50081   0.66172   0.00000  Uiso   1.00
Zn1001 Zn    0.44896   0.50001   0.75000   0.00000  Uiso   1.00
Zn1002 Zn    0.55104   0.49999   0.75000   0.00000  Uiso   1.00
C1003  C     0.44777   0.49312   0.88952   0.00000  Uiso   1.00
C1004  C     0.55223   0.50688   0.61048   0.00000  Uiso   1.00
C1005  C     0.40489   0.44856   0.95565   0.00000  Uiso   1.00
C1006  C     0.59512   0.55144   0.54435   0.00000  Uiso   1.00
C1007  C     0.41437   0.46059   0.90955   0.00000  Uiso   1.00
C1008  C     0.58563   0.53941   0.59045   0.00000  Uiso   1.00
C1009  C     0.46564   0.51649   0.91829   0.00000  Uiso   1.00
C1010  C     0.53436   0.48351   0.58171   0.00000  Uiso   1.00
C1011  C     0.46678   0.49754   0.95905   0.00000  Uiso   1.00
C1012  C     0.53322   0.50246   0.54095   0.00000  Uiso   1.00
C1013  C     0.43268   0.46523   0.97998   0.00000  Uiso   1.00
C1014  C     0.56732   0.53477   0.52002   0.00000  Uiso   1.00
C1015  C     0.50190   0.50856   0.97827   0.00000  Uiso   1.00
C1016  C     0.49810   0.49144   0.52173   0.00000  Uiso   1.00
C1017  C     0.45788   0.46550   0.54605   0.00000  Uiso   1.00
C1018  C     0.54212   0.53450   0.95395   0.00000  Uiso   1.00
C1019  C     0.42724   0.45052   0.52458   0.00000  Uiso   1.00
C1020  C     0.57276   0.54948   0.97542   0.00000  Uiso   1.00
H1021  H     0.37824   0.42417   0.97094   0.00000  Uiso   1.00
H1022  H     0.62177   0.57583   0.52906   0.00000  Uiso   1.00
H1023  H     0.45071   0.45557   0.58156   0.00000  Uiso   1.00
H1024  H     0.54929   0.54443   0.91844   0.00000  Uiso   1.00
C1025  C     0.54474   0.64737   0.74169   0.00000  Uiso   1.00
C1026  C     0.45526   0.35263   0.75831   0.00000  Uiso   1.00
C1027  C     0.54237   0.35625   0.74257   0.00000  Uiso   1.00
C1028  C     0.45763   0.64375   0.75743   0.00000  Uiso   1.00
H1029  H     0.57561   0.37384   0.73656   0.00000  Uiso   1.00
H1030  H     0.42439   0.62616   0.76344   0.00000  Uiso   1.00
C1031  C     0.49828   0.37581   0.75067   0.00000  Uiso   1.00
C1032  C     0.50172   0.62419   0.74933   0.00000  Uiso   1.00
C1033  C     0.65376   0.47439   0.72029   0.00000  Uiso   1.00
C1034  C     0.34624   0.52561   0.77971   0.00000  Uiso   1.00
C1035  C     0.36830   0.47408   0.72057   0.00000  Uiso   1.00
C1036  C     0.63170   0.52592   0.77943   0.00000  Uiso   1.00
N1037  N     0.38093   0.50001   0.75001   0.00000  Uiso   1.00
N1038  N     0.61907   0.49999   0.74999   0.00000  Uiso   1.00
C1039  C     0.39150   0.41909   0.54863   0.00000  Uiso   1.00
N1040  N     0.36310   0.39371   0.56757   0.00000  Uiso   1.00
C1041  C     0.60850   0.58091   0.95137   0.00000  Uiso   1.00
N1042  N     0.63690   0.60629   0.93244   0.00000  Uiso   1.00
N1043  N     0.52909   0.43919   0.58751   0.00000  Uiso   1.00
O1044  O     0.53300   0.42196   0.62388   0.00000  Uiso   1.00
O1045  O     0.53319   0.41557   0.55145   0.00000  Uiso   1.00
N1046  N     0.47091   0.56081   0.91249   0.00000  Uiso   1.00
O1047  O     0.46682   0.58443   0.94855   0.00000  Uiso   1.00
O1048  O     0.46700   0.57804   0.87612   0.00000  Uiso   1.00
C1049  C     0.61115   0.56067   0.61590   0.00000  Uiso   1.00
N1050  N     0.63211   0.57763   0.63588   0.00000  Uiso   1.00
C1051  C     0.38885   0.43933   0.88410   0.00000  Uiso   1.00
N1052  N     0.36789   0.42236   0.86412   0.00000  Uiso   1.00
C1053  C     0.59211   0.62996   0.73231   0.00000  Uiso   1.00
N1054  N     0.63033   0.61669   0.72482   0.00000  Uiso   1.00
C1055  C     0.40789   0.37004   0.76769   0.00000  Uiso   1.00
N1056  N     0.36967   0.38331   0.77518   0.00000  Uiso   1.00
C1057  C     0.64124   0.44801   0.68823   0.00000  Uiso   1.00
N1058  N     0.63120   0.42686   0.66249   0.00000  Uiso   1.00
C1059  C     0.35876   0.55199   0.81177   0.00000  Uiso   1.00
N1060  N     0.36880   0.57314   0.83751   0.00000  Uiso   1.00
C1061  C     0.40309   0.44492   0.69084   0.00000  Uiso   1.00
N1062  N     0.43015   0.42084   0.66713   0.00000  Uiso   1.00
C1063  C     0.59691   0.55508   0.80916   0.00000  Uiso   1.00
N1064  N     0.56985   0.57915   0.83288   0.00000  Uiso   1.00
O1065  O     0.79512   0.56108   0.75001   0.00000  Uiso   1.00
O1066  O     0.87154   0.43892   0.75000   0.00000  Uiso   1.00
O1067  O     0.87157   0.56107   0.75000   0.00000  Uiso   1.00
O1068  O     0.79510   0.43893   0.75000   0.00000  Uiso   1.00
C1069  C     0.83409   0.57998   0.74949   0.00000  Uiso   1.00
C1070  C     0.83257   0.42002   0.75051   0.00000  Uiso   1.00
O1071  O     0.77328   0.50001   0.81613   0.00000  Uiso   1.00
O1072  O     0.89339   0.49999   0.68388   0.00000  Uiso   1.00
O1073  O     0.84972   0.50000   0.81612   0.00000  Uiso   1.00
O1074  O     0.81695   0.50000   0.68388   0.00000  Uiso   1.00
C1075  C     0.80237   0.49919   0.83828   0.00000  Uiso   1.00
C1076  C     0.86430   0.50081   0.66172   0.00000  Uiso   1.00
Zn1077 Zn    0.78229   0.50001   0.75000   0.00000  Uiso   1.00
Zn1078 Zn    0.88438   0.49999   0.75000   0.00000  Uiso   1.00
C1079  C     0.78110   0.49312   0.88952   0.00000  Uiso   1.00
C1080  C     0.88556   0.50688   0.61048   0.00000  Uiso   1.00
C1081  C     0.73822   0.44856   0.95565   0.00000  Uiso   1.00
C1082  C     0.92845   0.55144   0.54435   0.00000  Uiso   1.00
C1083  C     0.74771   0.46059   0.90955   0.00000  Uiso   1.00
C1084  C     0.91896   0.53941   0.59045   0.00000  Uiso   1.00
C1085  C     0.79897   0.51649   0.91829   0.00000  Uiso   1.00
C1086  C     0.86770   0.48351   0.58171   0.00000  Uiso   1.00
C1087  C     0.80011   0.49754   0.95905   0.00000  Uiso   1.00
C1088  C     0.86655   0.50246   0.54095   0.00000  Uiso   1.00
C1089  C     0.76601   0.46523   0.97998   0.00000  Uiso   1.00
C1090  C     0.90066   0.53477   0.52002   0.00000  Uiso   1.00
C1091  C     0.83524   0.50856   0.97827   0.00000  Uiso   1.00
C1092  C     0.83143   0.49144   0.52173   0.00000  Uiso   1.00
C1093  C     0.79121   0.46550   0.54605   0.00000  Uiso   1.00
C1094  C     0.87546   0.53450   0.95395   0.00000  Uiso   1.00
C1095  C     0.76057   0.45052   0.52458   0.00000  Uiso   1.00
C1096  C     0.90610   0.54948   0.97542   0.00000  Uiso   1.00
H1097  H     0.71157   0.42417   0.97094   0.00000  Uiso   1.00
H1098  H     0.95510   0.57583   0.52906   0.00000  Uiso   1.00
H1099  H     0.78404   0.45557   0.58156   0.00000  Uiso   1.00
H1100  H     0.88263   0.54443   0.91844   0.00000  Uiso   1.00
C1101  C     0.87807   0.64737   0.74169   0.00000  Uiso   1.00
C1102  C     0.78860   0.35263   0.75831   0.00000  Uiso   1.00
C1103  C     0.87571   0.35625   0.74257   0.00000  Uiso   1.00
C1104  C     0.79096   0.64375   0.75743   0.00000  Uiso   1.00
H1105  H     0.90895   0.37384   0.73656   0.00000  Uiso   1.00
H1106  H     0.75772   0.62616   0.76344   0.00000  Uiso   1.00
C1107  C     0.83161   0.37581   0.75067   0.00000  Uiso   1.00
C1108  C     0.83506   0.62419   0.74933   0.00000  Uiso   1.00
C1109  C     0.98709   0.47439   0.72029   0.00000  Uiso   1.00
C1110  C     0.67958   0.52561   0.77971   0.00000  Uiso   1.00
C1111  C     0.70163   0.47408   0.72057   0.00000  Uiso   1.00
C1112  C     0.96504   0.52592   0.77943   0.00000  Uiso   1.00
N1113  N     0.71426   0.50001   0.75001   0.00000  Uiso   1.00
N1114  N     0.95241   0.49999   0.74999   0.00000  Uiso   1.00
C1115  C     0.72483   0.41909   0.54863   0.00000  Uiso   1.00
N1116  N     0.69644   0.39371   0.56757   0.00000  Uiso   1.00
C1117  C     0.94183   0.58091   0.95137   0.00000  Uiso   1.00
N1118  N     0.97023   0.60629   0.93244   0.00000  Uiso   1.00
N1119  N     0.86242   0.43919   0.58751   0.00000  Uiso   1.00
O1120  O     0.86633   0.42196   0.62388   0.00000  Uiso   1.00
O1121  O     0.86652   0.41557   0.55145   0.00000  Uiso   1.00
N1122  N     0.80425   0.56081   0.91249   0.00000  Uiso   1.00
O1123  O     0.80015   0.58443   0.94855   0.00000  Uiso   1.00
O1124  O     0.80033   0.57804   0.87612   0.00000  Uiso   1.00
C1125  C     0.94449   0.56067   0.61590   0.00000  Uiso   1.00
N1126  N     0.96545   0.57763   0.63588   0.00000  Uiso   1.00
C1127  C     0.72219   0.43933   0.88410   0.00000  Uiso   1.00
N1128  N     0.70123   0.42236   0.86412   0.00000  Uiso   1.00
C1129  C     0.92544   0.62996   0.73231   0.00000  Uiso   1.00
N1130  N     0.96367   0.61669   0.72482   0.00000  Uiso   1.00
C1131  C     0.74122   0.37004   0.76769   0.00000  Uiso   1.00
N1132  N     0.70300   0.38331   0.77518   0.00000  Uiso   1.00
C1133  C     0.97458   0.44801   0.68823   0.00000  Uiso   1.00
N1134  N     0.96454   0.42686   0.66249   0.00000  Uiso   1.00
C1135  C     0.69209   0.55199   0.81177   0.00000  Uiso   1.00
N1136  N     0.70213   0.57314   0.83751   0.00000  Uiso   1.00
C1137  C     0.73642   0.44492   0.69084   0.00000  Uiso   1.00
N1138  N     0.76348   0.42084   0.66713   0.00000  Uiso   1.00
C1139  C     0.93024   0.55508   0.80916   0.00000  Uiso   1.00
N1140  N     0.90319   0.57915   0.83288   0.00000  Uiso   1.00
O1141  O     0.12846   0.89442   0.75001   0.00000  Uiso   1.00
O1142  O     0.20488   0.77225   0.75000   0.00000  Uiso   1.00
O1143  O     0.20490   0.89441   0.75000   0.00000  Uiso   1.00
O1144  O     0.12843   0.77226   0.75000   0.00000  Uiso   1.00
C1145  C     0.16743   0.91331   0.74949   0.00000  Uiso   1.00
C1146  C     0.16591   0.75335   0.75051   0.00000  Uiso   1.00
O1147  O     0.10661   0.83334   0.81613   0.00000  Uiso   1.00
O1148  O     0.22672   0.83333   0.68388   0.00000  Uiso   1.00
O1149  O     0.18305   0.83333   0.81612   0.00000  Uiso   1.00
O1150  O     0.15028   0.83334   0.68388   0.00000  Uiso   1.00
C1151  C     0.13570   0.83252   0.83828   0.00000  Uiso   1.00
C1152  C     0.19763   0.83414   0.66172   0.00000  Uiso   1.00
Zn1153 Zn    0.11562   0.83334   0.75000   0.00000  Uiso   1.00
Zn1154 Zn    0.21771   0.83333   0.75000   0.00000  Uiso   1.00
C1155  C     0.11444   0.82645   0.88952   0.00000  Uiso   1.00
C1156  C     0.21890   0.84021   0.61048   0.00000  Uiso   1.00
C1157  C     0.07155   0.78189   0.95565   0.00000  Uiso   1.00
C1158  C     0.26178   0.88477   0.54435   0.00000  Uiso   1.00
C1159  C     0.08104   0.79392   0.90955   0.00000  Uiso   1.00
C1160  C     0.25230   0.87274   0.59045   0.00000  Uiso   1.00
C1161  C     0.13230   0.84982   0.91829   0.00000  Uiso   1.00
C1162  C     0.20103   0.81685   0.58171   0.00000  Uiso   1.00
C1163  C     0.13345   0.83088   0.95905   0.00000  Uiso   1.00
C1164  C     0.19989   0.83579   0.54095   0.00000  Uiso   1.00
C1165  C     0.09935   0.79856   0.97998   0.00000  Uiso   1.00
C1166  C     0.23399   0.86810   0.52002   0.00000  Uiso   1.00
C1167  C     0.16857   0.84189   0.97827   0.00000  Uiso   1.00
C1168  C     0.16477   0.82478   0.52173   0.00000  Uiso   1.00
C1169  C     0.12455   0.79883   0.54605   0.00000  Uiso   1.00
C1170  C     0.20879   0.86784   0.95395   0.00000  Uiso   1.00
C1171  C     0.09390   0.78385   0.52458   0.00000  Uiso   1.00
C1172  C     0.23943   0.88282   0.97542   0.00000  Uiso   1.00
H1173  H     0.04490   0.75751   0.97094   0.00000  Uiso   1.00
H1174  H     0.28843   0.90916   0.52906   0.00000  Uiso   1.00
H1175  H     0.11737   0.78891   0.58156   0.00000  Uiso   1.00
H1176  H     0.21596   0.87776   0.91844   0.00000  Uiso   1.00
C1177  C     0.21140   0.98070   0.74169   0.00000  Uiso   1.00
C1178  C     0.12193   0.68597   0.75831   0.00000  Uiso   1.00
C1179  C     0.20904   0.68958   0.74257   0.00000  Uiso   1.00
C1180  C     0.12429   0.97709   0.75743   0.00000  Uiso   1.00
H1181  H     0.24228   0.70718   0.73656   0.00000  Uiso   1.00
H1182  H     0.09106   0.95949   0.76344   0.00000  Uiso   1.00
C1183  C     0.16494   0.70914   0.75067   0.00000  Uiso   1.00
C1184  C     0.16839   0.95753   0.74933   0.00000  Uiso   1.00
C1185  C     0.32042   0.80773   0.72029   0.00000  Uiso   1.00
C1186  C     0.01291   0.85894   0.77971   0.00000  Uiso   1.00
C1187  C     0.03496   0.80741   0.72057   0.00000  Uiso   1.00
C1188  C     0.29837   0.85926   0.77943   0.00000  Uiso   1.00
N1189  N     0.04759   0.83334   0.75001   0.00000  Uiso   1.00
N1190  N     0.28574   0.83332   0.74999   0.00000  Uiso   1.00
C1191  C     0.05817   0.75243   0.54863   0.00000  Uiso   1.00
N1192  N     0.02977   0.72705   0.56757   0.00000  Uiso   1.00
C1193  C     0.27517   0.91424   0.95137   0.00000  Uiso   1.00
N1194  N     0.30356   0.93962   0.93244   0.00000  Uiso   1.00
N1195  N     0.19575   0.77252   0.58751   0.00000  Uiso   1.00
O1196  O     0.19967   0.75530   0.62388   0.00000  Uiso   1.00
O1197  O     0.19985   0.74890   0.55145   0.00000  Uiso   1.00
N1198  N     0.13758   0.89415   0.91249   0.00000  Uiso   1.00
O1199  O     0.13348   0.91777   0.94855   0.00000  Uiso   1.00
O1200  O     0.13366   0.91137   0.87612   0.00000  Uiso   1.00
C1201  C     0.27782   0.89400   0.61590   0.00000  Uiso   1.00
N1202  N     0.29878   0.91097   0.63588   0.00000  Uiso   1.00
C1203  C     0.05552   0.77266   0.88410   0.00000  Uiso   1.00
N1204  N     0.03456   0.75570   0.86412   0.00000  Uiso   1.00
C1205  C     0.25878   0.96329   0.73231   0.00000  Uiso   1.00
N1206  N     0.29700   0.95002   0.72482   0.00000  Uiso   1.00
C1207  C     0.07456   0.70338   0.76769   0.00000  Uiso   1.00
N1208  N     0.03634   0.71664   0.77518   0.00000  Uiso   1.00
C1209  C     0.30791   0.78134   0.68823   0.00000  Uiso   1.00
N1210  N     0.29787   0.76020   0.66249   0.00000  Uiso   1.00
C1211  C     0.02542   0.88533   0.81177   0.00000  Uiso   1.00
N1212  N     0.03546   0.90647   0.83751   0.00000  Uiso   1.00
C1213  C     0.06976   0.77825   0.69084   0.00000  Uiso   1.00
N1214  N     0.09681   0.75418   0.66713   0.00000  Uiso   1.00
C1215  C     0.26358   0.88841   0.80916   0.00000  Uiso   1.00
N1216  N     0.23652   0.91249   0.83288   0.00000  Uiso   1.00
O1217  O     0.46179   0.89442   0.75001   0.00000  Uiso   1.00
O1218  O     0.53821   0.77225   0.75000   0.00000  Uiso   1.00
O1219  O     0.53823   0.89441   0.75000   0.00000  Uiso   1.00
O1220  O     0.46177   0.77226   0.75000   0.00000  Uiso   1.00
C1221  C     0.50076   0.91331   0.74949   0.00000  Uiso   1.00
C1222  C     0.49924   0.75335   0.75051   0.00000  Uiso   1.00
O1223  O     0.43994   0.83334   0.81613   0.00000  Uiso   1.00
O1224  O     0.56006   0.83333   0.68388   0.00000  Uiso   1.00
O1225  O     0.51639   0.83333   0.81612   0.00000  Uiso   1.00
O1226  O     0.48361   0.83334   0.68388   0.00000  Uiso   1.00
C1227  C     0.46904   0.83252   0.83828   0.00000  Uiso   1.00
C1228  C     0.53096   0.83414   0.66172   0.00000  Uiso   1.00
Zn1229 Zn    0.44896   0.83334   0.75000   0.00000  Uiso   1.00
Zn1230 Zn    0.55104   0.83333   0.75000   0.00000  Uiso   1.00
C1231  C     0.44777   0.82645   0.88952   0.00000  Uiso   1.00
C1232  C     0.55223   0.84021   0.61048   0.00000  Uiso   1.00
C1233  C     0.40489   0.78189   0.95565   0.00000  Uiso   1.00
C1234  C     0.59512   0.88477   0.54435   0.00000  Uiso   1.00
C1235  C     0.41437   0.79392   0.90955   0.00000  Uiso   1.00
C1236  C     0.58563   0.87274   0.59045   0.00000  Uiso   1.00
C1237  C     0.46564   0.84982   0.91829   0.00000  Uiso   1.00
C1238  C     0.53436   0.81685   0.58171   0.00000  Uiso   1.00
C1239  C     0.46678   0.83088   0.95905   0.00000  Uiso   1.00
C1240  C     0.53322   0.83579   0.54095   0.00000  Uiso   1.00
C1241  C     0.43268   0.79856   0.97998   0.00000  Uiso   1.00
C1242  C     0.56732   0.86810   0.52002   0.00000  Uiso   1.00
C1243  C     0.50190   0.84189   0.97827   0.00000  Uiso   1.00
C1244  C     0.49810   0.82478   0.52173   0.00000  Uiso   1.00
C1245  C     0.45788   0.79883   0.54605   0.00000  Uiso   1.00
C1246  C     0.54212   0.86784   0.95395   0.00000  Uiso   1.00
C1247  C     0.42724   0.78385   0.52458   0.00000  Uiso   1.00
C1248  C     0.57276   0.88282   0.97542   0.00000  Uiso   1.00
H1249  H     0.37824   0.75751   0.97094   0.00000  Uiso   1.00
H1250  H     0.62177   0.90916   0.52906   0.00000  Uiso   1.00
H1251  H     0.45071   0.78891   0.58156   0.00000  Uiso   1.00
H1252  H     0.54929   0.87776   0.91844   0.00000  Uiso   1.00
C1253  C     0.54474   0.98070   0.74169   0.00000  Uiso   1.00
C1254  C     0.45526   0.68597   0.75831   0.00000  Uiso   1.00
C1255  C     0.54237   0.68958   0.74257   0.00000  Uiso   1.00
C1256  C     0.45763   0.97709   0.75743   0.00000  Uiso   1.00
H1257  H     0.57561   0.70718   0.73656   0.00000  Uiso   1.00
H1258  H     0.42439   0.95949   0.76344   0.00000  Uiso   1.00
C1259  C     0.49828   0.70914   0.75067   0.00000  Uiso   1.00
C1260  C     0.50172   0.95753   0.74933   0.00000  Uiso   1.00
C1261  C     0.65376   0.80773   0.72029   0.00000  Uiso   1.00
C1262  C     0.34624   0.85894   0.77971   0.00000  Uiso   1.00
C1263  C     0.36830   0.80741   0.72057   0.00000  Uiso   1.00
C1264  C     0.63170   0.85926   0.77943   0.00000  Uiso   1.00
N1265  N     0.38093   0.83334   0.75001   0.00000  Uiso   1.00
N1266  N     0.61907   0.83332   0.74999   0.00000  Uiso   1.00
C1267  C     0.39150   0.75243   0.54863   0.00000  Uiso   1.00
N1268  N     0.36310   0.72705   0.56757   0.00000  Uiso   1.00
C1269  C     0.60850   0.91424   0.95137   0.00000  Uiso   1.00
N1270  N     0.63690   0.93962   0.93244   0.00000  Uiso   1.00
N1271  N     0.52909   0.77252   0.58751   0.00000  Uiso   1.00
O1272  O     0.53300   0.75530   0.62388   0.00000  Uiso   1.00
O1273  O     0.53319   0.74890   0.55145   0.00000  Uiso   1.00
N1274  N     0.47091   0.89415   0.91249   0.00000  Uiso   1.00
O1275  O     0.46682   0.91777   0.94855   0.00000  Uiso   1.00
O1276  O     0.46700   0.91137   0.87612   0.00000  Uiso   1.00
C1277  C     0.61115   0.89400   0.61590   0.00000  Uiso   1.00
N1278  N     0.63211   0.91097   0.63588   0.00000  Uiso   1.00
C1279  C     0.38885   0.77266   0.88410   0.00000  Uiso   1.00
N1280  N     0.36789   0.75570   0.86412   0.00000  Uiso   1.00
C1281  C     0.59211   0.96329   0.73231   0.00000  Uiso   1.00
N1282  N     0.63033   0.95002   0.72482   0.00000  Uiso   1.00
C1283  C     0.40789   0.70338   0.76769   0.00000  Uiso   1.00
N1284  N     0.36967   0.71664   0.77518   0.00000  Uiso   1.00
C1285  C     0.64124   0.78134   0.68823   0.00000  Uiso   1.00
N1286  N     0.63120   0.76020   0.66249   0.00000  Uiso   1.00
C1287  C     0.35876   0.88533   0.81177   0.00000  Uiso   1.00
N1288  N     0.36880   0.90647   0.83751   0.00000  Uiso   1.00
C1289  C     0.40309   0.77825   0.69084   0.00000  Uiso   1.00
N1290  N     0.43015   0.75418   0.66713   0.00000  Uiso   1.00
C1291  C     0.59691   0.88841   0.80916   0.00000  Uiso   1.00
N1292  N     0.56985   0.91249   0.83288   0.00000  Uiso   1.00
O1293  O     0.79512   0.89442   0.75001   0.00000  Uiso   1.00
O1294  O     0.87154   0.77225   0.75000   0.00000  Uiso   1.00
O1295  O     0.87157   0.89441   0.75000   0.00000  Uiso   1.00
O1296  O     0.79510   0.77226   0.75000   0.00000  Uiso   1.00
C1297  C     0.83409   0.91331   0.74949   0.00000  Uiso   1.00
C1298  C     0.83257   0.75335   0.75051   0.00000  Uiso   1.00
O1299  O     0.77328   0.83334   0.81613   0.00000  Uiso   1.00
O1300  O     0.89339   0.83333   0.68388   0.00000  Uiso   1.00
O1301  O     0.84972   0.83333   0.81612   0.00000  Uiso   1.00
O1302  O     0.81695   0.83334   0.68388   0.00000  Uiso   1.00
C1303  C     0.80237   0.83252   0.83828   0.00000  Uiso   1.00
C1304  C     0.86430   0.83414   0.66172   0.00000  Uiso   1.00
Zn1305 Zn    0.78229   0.83334   0.75000   0.00000  Uiso   1.00
Zn1306 Zn    0.88438   0.83333   0.75000   0.00000  Uiso   1.00
C1307  C     0.78110   0.82645   0.88952   0.00000  Uiso   1.00
C1308  C     0.88556   0.84021   0.61048   0.00000  Uiso   1.00
C1309  C     0.73822   0.78189   0.95565   0.00000  Uiso   1.00
C1310  C     0.92845   0.88477   0.54435   0.00000  Uiso   1.00
C1311  C     0.74771   0.79392   0.90955   0.00000  Uiso   1.00
C1312  C     0.91896   0.87274   0.59045   0.00000  Uiso   1.00
C1313  C     0.79897   0.84982   0.91829   0.00000  Uiso   1.00
C1314  C     0.86770   0.81685   0.58171   0.00000  Uiso   1.00
C1315  C     0.80011   0.83088   0.95905   0.00000  Uiso   1.00
C1316  C     0.86655   0.83579   0.54095   0.00000  Uiso   1.00
C1317  C     0.76601   0.79856   0.97998   0.00000  Uiso   1.00
C1318  C     0.90066   0.86810   0.52002   0.00000  Uiso   1.00
C1319  C     0.83524   0.84189   0.97827   0.00000  Uiso   1.00
C1320  C     0.83143   0.82478   0.52173   0.00000  Uiso   1.00
C1321  C     0.79121   0.79883   0.54605   0.00000  Uiso   1.00
C1322  C     0.87546   0.86784   0.95395   0.00000  Uiso   1.00
C1323  C     0.76057   0.78385   0.52458   0.00000  Uiso   1.00
C1324  C     0.90610   0.88282   0.97542   0.00000  Uiso   1.00
H1325  H     0.71157   0.75751   0.97094   0.00000  Uiso   1.00
H1326  H     0.95510   0.90916   0.52906   0.00000  Uiso   1.00
H1327  H     0.78404   0.78891   0.58156   0.00000  Uiso   1.00
H1328  H     0.88263   0.87776   0.91844   0.00000  Uiso   1.00
C1329  C     0.87807   0.98070   0.74169   0.00000  Uiso   1.00
C1330  C     0.78860   0.68597   0.75831   0.00000  Uiso   1.00
C1331  C     0.87571   0.68958   0.74257   0.00000  Uiso   1.00
C1332  C     0.79096   0.97709   0.75743   0.00000  Uiso   1.00
H1333  H     0.90895   0.70718   0.73656   0.00000  Uiso   1.00
H1334  H     0.75772   0.95949   0.76344   0.00000  Uiso   1.00
C1335  C     0.83161   0.70914   0.75067   0.00000  Uiso   1.00
C1336  C     0.83506   0.95753   0.74933   0.00000  Uiso   1.00
C1337  C     0.98709   0.80773   0.72029   0.00000  Uiso   1.00
C1338  C     0.67958   0.85894   0.77971   0.00000  Uiso   1.00
C1339  C     0.70163   0.80741   0.72057   0.00000  Uiso   1.00
C1340  C     0.96504   0.85926   0.77943   0.00000  Uiso   1.00
N1341  N     0.71426   0.83334   0.75001   0.00000  Uiso   1.00
N1342  N     0.95241   0.83332   0.74999   0.00000  Uiso   1.00
C1343  C     0.72483   0.75243   0.54863   0.00000  Uiso   1.00
N1344  N     0.69644   0.72705   0.56757   0.00000  Uiso   1.00
C1345  C     0.94183   0.91424   0.95137   0.00000  Uiso   1.00
N1346  N     0.97023   0.93962   0.93244   0.00000  Uiso   1.00
N1347  N     0.86242   0.77252   0.58751   0.00000  Uiso   1.00
O1348  O     0.86633   0.75530   0.62388   0.00000  Uiso   1.00
O1349  O     0.86652   0.74890   0.55145   0.00000  Uiso   1.00
N1350  N     0.80425   0.89415   0.91249   0.00000  Uiso   1.00
O1351  O     0.80015   0.91777   0.94855   0.00000  Uiso   1.00
O1352  O     0.80033   0.91137   0.87612   0.00000  Uiso   1.00
C1353  C     0.94449   0.89400   0.61590   0.00000  Uiso   1.00
N1354  N     0.96545   0.91097   0.63588   0.00000  Uiso   1.00
C1355  C     0.72219   0.77266   0.88410   0.00000  Uiso   1.00
N1356  N     0.70123   0.75570   0.86412   0.00000  Uiso   1.00
C1357  C     0.92544   0.96329   0.73231   0.00000  Uiso   1.00
N1358  N     0.96367   0.95002   0.72482   0.00000  Uiso   1.00
C1359  C     0.74122   0.70338   0.76769   0.00000  Uiso   1.00
N1360  N     0.70300   0.71664   0.77518   0.00000  Uiso   1.00
C1361  C     0.97458   0.78134   0.68823   0.00000  Uiso   1.00
N1362  N     0.96454   0.76020   0.66249   0.00000  Uiso   1.00
C1363  C     0.69209   0.88533   0.81177   0.00000  Uiso   1.00
N1364  N     0.70213   0.90647   0.83751   0.00000  Uiso   1.00
C1365  C     0.73642   0.77825   0.69084   0.00000  Uiso   1.00
N1366  N     0.76348   0.75418   0.66713   0.00000  Uiso   1.00
C1367  C     0.93024   0.88841   0.80916   0.00000  Uiso   1.00
N1368  N     0.90319   0.91249   0.83288   0.00000  Uiso   1.00
loop_
_geom_bond_atom_site_label_1
_geom_bond_atom_site_label_2
_geom_bond_distance
_geom_bond_site_symmetry_2
_ccdc_geom_bond_type
O1     C5      1.294   .     A
O1     Zn13    2.009   .     S
O2     C6      1.294   .     A
O2     Zn14    2.009   .     S
O3     Zn14    2.023   .     S
O3     C5      1.286   .     A
O4     Zn13    2.023   .     S
O4     C6      1.286   .     A
C5     C44     1.433   .     S
C6     C43     1.433   .     S
O7     C11     1.290   .     A
O7     Zn13    1.941   .     S
O8     Zn14    1.941   .     S
O8     C12     1.290   .     A
O9     Zn14    1.888   .     S
O9     C11     1.305   .     A
O10    C12     1.305   .     A
O10    Zn13    1.888   .     S
C11    C15     1.466   .     S
C12    C16     1.466   .     S
Zn13   N49     2.021   .     S
Zn14   N50     2.021   .     S
C15    C19     1.410   .     A
C15    C21     1.399   .     A
C16    C20     1.410   .     A
C16    C22     1.399   .     A
C17    H33     1.084   .     S
C17    C25     1.406   .     A
C17    C19     1.393   .     A
C18    C26     1.406   .     A
C18    H34     1.084   .     S
C18    C20     1.393   .     A
C19    C63     1.442   .     S
C20    C61     1.442   .     S
C21    N58     1.449   .     S
C21    C23     1.415   .     A
C22    C24     1.415   .     A
C22    N55     1.449   .     S
C23    C27     1.421   .     A
C23    C25     1.421   .     A
C24    C26     1.421   .     A
C24    C28     1.421   .     A
C25    C715    1.406   .     S
C26    C716    1.406   1_554 S
C27    C30     1.410   .     A
C27    C712    1.416   .     S
C28    C29     1.410   .     A
C28    C711    1.416   1_554 S
C29    H35     1.080   .     S
C29    C31     1.391   .     A
C30    C32     1.391   .     A
C30    H36     1.080   .     S
C31    C51     1.446   .     S
C31    C709    1.406   1_554 S
C32    C53     1.446   .     S
C32    C710    1.406   .     S
C37    C65     1.446   .     S
C37    C44     1.411   .     A
C37    C267    1.371   .     S
C38    C43     1.411   .     A
C38    C67     1.446   .     S
C38    C496    1.371   1_545 S
C39    H41     1.085   .     S
C39    C43     1.397   .     A
C39    C493    1.371   1_545 S
C40    C44     1.398   .     A
C40    H42     1.085   .     S
C40    C266    1.371   .     S
C45    C69     1.442   .     S
C45    N50     1.364   .     A
C45    C123    1.426   .     S
C46    N49     1.364   .     A
C46    C71     1.442   .     S
C46    C200    1.426   1_455 S
C47    C73     1.439   .     S
C47    N49     1.374   .     A
C47    C197    1.426   1_455 S
C48    N50     1.374   .     A
C48    C75     1.439   .     S
C48    C122    1.426   .     S
C51    N52     1.157   .     T
C53    N54     1.157   .     T
N55    O56     1.302   .     A
N55    O57     1.302   .     A
N58    O60     1.302   .     A
N58    O59     1.302   .     A
C61    N62     1.156   .     T
C63    N64     1.156   .     T
C65    N66     1.157   .     T
C67    N68     1.157   .     T
C69    N70     1.157   .     T
C71    N72     1.157   .     T
C73    N74     1.156   .     T
C75    N76     1.156   .     T
O77    C81     1.294   .     A
O77    Zn89    2.009   .     S
O78    C82     1.294   .     A
O78    Zn90    2.009   .     S
O79    Zn90    2.023   .     S
O79    C81     1.286   .     A
O80    Zn89    2.023   .     S
O80    C82     1.286   .     A
C81    C120    1.433   .     S
C82    C119    1.433   .     S
O83    C87     1.290   .     A
O83    Zn89    1.941   .     S
O84    Zn90    1.941   .     S
O84    C88     1.290   .     A
O85    Zn90    1.888   .     S
O85    C87     1.305   .     A
O86    C88     1.305   .     A
O86    Zn89    1.888   .     S
C87    C91     1.466   .     S
C88    C92     1.466   .     S
Zn89   N125    2.021   .     S
Zn90   N126    2.021   .     S
C91    C95     1.410   .     A
C91    C97     1.399   .     A
C92    C96     1.410   .     A
C92    C98     1.399   .     A
C93    H109    1.084   .     S
C93    C101    1.406   .     A
C93    C95     1.393   .     A
C94    C102    1.406   .     A
C94    H110    1.084   .     S
C94    C96     1.393   .     A
C95    C139    1.442   .     S
C96    C137    1.442   .     S
C97    N134    1.449   .     S
C97    C99     1.415   .     A
C98    C100    1.415   .     A
C98    N131    1.449   .     S
C99    C103    1.421   .     A
C99    C101    1.421   .     A
C100   C102    1.421   .     A
C100   C104    1.421   .     A
C101   C791    1.406   .     S
C102   C792    1.406   1_554 S
C103   C106    1.410   .     A
C103   C788    1.416   .     S
C104   C105    1.410   .     A
C104   C787    1.416   1_554 S
C105   H111    1.080   .     S
C105   C107    1.391   .     A
C106   C108    1.391   .     A
C106   H112    1.080   .     S
C107   C127    1.446   .     S
C107   C785    1.406   1_554 S
C108   C129    1.446   .     S
C108   C786    1.406   .     S
C113   C141    1.446   .     S
C113   C120    1.411   .     A
C113   C343    1.371   .     S
C114   C119    1.411   .     A
C114   C143    1.446   .     S
C114   C572    1.371   1_545 S
C115   H117    1.085   .     S
C115   C119    1.397   .     A
C115   C569    1.371   1_545 S
C116   C120    1.398   .     A
C116   H118    1.085   .     S
C116   C342    1.371   .     S
C121   C145    1.442   .     S
C121   N126    1.364   .     A
C121   C199    1.426   .     S
C122   N125    1.364   .     A
C122   C147    1.442   .     S
C123   C149    1.439   .     S
C123   N125    1.374   .     A
C124   N126    1.374   .     A
C124   C151    1.439   .     S
C124   C198    1.426   .     S
C127   N128    1.157   .     T
C129   N130    1.157   .     T
N131   O132    1.302   .     A
N131   O133    1.302   .     A
N134   O136    1.302   .     A
N134   O135    1.302   .     A
C137   N138    1.156   .     T
C139   N140    1.156   .     T
C141   N142    1.157   .     T
C143   N144    1.157   .     T
C145   N146    1.157   .     T
C147   N148    1.157   .     T
C149   N150    1.156   .     T
C151   N152    1.156   .     T
O153   C157    1.294   .     A
O153   Zn165   2.009   .     S
O154   C158    1.294   .     A
O154   Zn166   2.009   .     S
O155   Zn166   2.023   .     S
O155   C157    1.286   .     A
O156   Zn165   2.023   .     S
O156   C158    1.286   .     A
C157   C196    1.433   .     S
C158   C195    1.433   .     S
O159   C163    1.290   .     A
O159   Zn165   1.941   .     S
O160   Zn166   1.941   .     S
O160   C164    1.290   .     A
O161   Zn166   1.888   .     S
O161   C163    1.305   .     A
O162   C164    1.305   .     A
O162   Zn165   1.888   .     S
C163   C167    1.466   .     S
C164   C168    1.466   .     S
Zn165  N201    2.021   .     S
Zn166  N202    2.021   .     S
C167   C171    1.410   .     A
C167   C173    1.399   .     A
C168   C172    1.410   .     A
C168   C174    1.399   .     A
C169   H185    1.084   .     S
C169   C177    1.406   .     A
C169   C171    1.393   .     A
C170   C178    1.406   .     A
C170   H186    1.084   .     S
C170   C172    1.393   .     A
C171   C215    1.442   .     S
C172   C213    1.442   .     S
C173   N210    1.449   .     S
C173   C175    1.415   .     A
C174   C176    1.415   .     A
C174   N207    1.449   .     S
C175   C179    1.421   .     A
C175   C177    1.421   .     A
C176   C178    1.421   .     A
C176   C180    1.421   .     A
C177   C867    1.406   .     S
C178   C868    1.406   1_554 S
C179   C182    1.410   .     A
C179   C864    1.416   .     S
C180   C181    1.410   .     A
C180   C863    1.416   1_554 S
C181   H187    1.080   .     S
C181   C183    1.391   .     A
C182   C184    1.391   .     A
C182   H188    1.080   .     S
C183   C203    1.446   .     S
C183   C861    1.406   1_554 S
C184   C205    1.446   .     S
C184   C862    1.406   .     S
C189   C217    1.446   .     S
C189   C196    1.411   .     A
C189   C419    1.371   .     S
C190   C195    1.411   .     A
C190   C219    1.446   .     S
C190   C648    1.371   1_545 S
C191   H193    1.085   .     S
C191   C195    1.397   .     A
C191   C645    1.371   1_545 S
C192   C196    1.398   .     A
C192   H194    1.085   .     S
C192   C418    1.371   .     S
C197   C221    1.442   .     S
C197   N202    1.364   .     A
C197   C47     1.426   1_655 S
C198   N201    1.364   .     A
C198   C223    1.442   .     S
C199   C225    1.439   .     S
C199   N201    1.374   .     A
C200   N202    1.374   .     A
C200   C227    1.439   .     S
C200   C46     1.426   1_655 S
C203   N204    1.157   .     T
C205   N206    1.157   .     T
N207   O208    1.302   .     A
N207   O209    1.302   .     A
N210   O212    1.302   .     A
N210   O211    1.302   .     A
C213   N214    1.156   .     T
C215   N216    1.156   .     T
C217   N218    1.157   .     T
C219   N220    1.157   .     T
C221   N222    1.157   .     T
C223   N224    1.157   .     T
C225   N226    1.156   .     T
C227   N228    1.156   .     T
O229   C233    1.294   .     A
O229   Zn241   2.009   .     S
O230   C234    1.294   .     A
O230   Zn242   2.009   .     S
O231   Zn242   2.023   .     S
O231   C233    1.286   .     A
O232   Zn241   2.023   .     S
O232   C234    1.286   .     A
C233   C272    1.433   .     S
C234   C271    1.433   .     S
O235   C239    1.290   .     A
O235   Zn241   1.941   .     S
O236   Zn242   1.941   .     S
O236   C240    1.290   .     A
O237   Zn242   1.888   .     S
O237   C239    1.305   .     A
O238   C240    1.305   .     A
O238   Zn241   1.888   .     S
C239   C243    1.466   .     S
C240   C244    1.466   .     S
Zn241  N277    2.021   .     S
Zn242  N278    2.021   .     S
C243   C247    1.410   .     A
C243   C249    1.399   .     A
C244   C248    1.410   .     A
C244   C250    1.399   .     A
C245   H261    1.084   .     S
C245   C253    1.406   .     A
C245   C247    1.393   .     A
C246   C254    1.406   .     A
C246   H262    1.084   .     S
C246   C248    1.393   .     A
C247   C291    1.442   .     S
C248   C289    1.442   .     S
C249   N286    1.449   .     S
C249   C251    1.415   .     A
C250   C252    1.415   .     A
C250   N283    1.449   .     S
C251   C255    1.421   .     A
C251   C253    1.421   .     A
C252   C254    1.421   .     A
C252   C256    1.421   .     A
C253   C943    1.406   .     S
C254   C944    1.406   1_554 S
C255   C258    1.410   .     A
C255   C940    1.416   .     S
C256   C257    1.410   .     A
C256   C939    1.416   1_554 S
C257   H263    1.080   .     S
C257   C259    1.391   .     A
C258   C260    1.391   .     A
C258   H264    1.080   .     S
C259   C279    1.446   .     S
C259   C937    1.406   1_554 S
C260   C281    1.446   .     S
C260   C938    1.406   .     S
C265   C293    1.446   .     S
C265   C272    1.411   .     A
C265   C495    1.371   .     S
C266   C271    1.411   .     A
C266   C295    1.446   .     S
C267   H269    1.085   .     S
C267   C271    1.397   .     A
C268   C272    1.398   .     A
C268   H270    1.085   .     S
C268   C494    1.371   .     S
C273   C297    1.442   .     S
C273   N278    1.364   .     A
C273   C351    1.426   .     S
C274   N277    1.364   .     A
C274   C299    1.442   .     S
C274   C428    1.426   1_455 S
C275   C301    1.439   .     S
C275   N277    1.374   .     A
C275   C425    1.426   1_455 S
C276   N278    1.374   .     A
C276   C303    1.439   .     S
C276   C350    1.426   .     S
C279   N280    1.157   .     T
C281   N282    1.157   .     T
N283   O284    1.302   .     A
N283   O285    1.302   .     A
N286   O288    1.302   .     A
N286   O287    1.302   .     A
C289   N290    1.156   .     T
C291   N292    1.156   .     T
C293   N294    1.157   .     T
C295   N296    1.157   .     T
C297   N298    1.157   .     T
C299   N300    1.157   .     T
C301   N302    1.156   .     T
C303   N304    1.156   .     T
O305   C309    1.294   .     A
O305   Zn317   2.009   .     S
O306   C310    1.294   .     A
O306   Zn318   2.009   .     S
O307   Zn318   2.023   .     S
O307   C309    1.286   .     A
O308   Zn317   2.023   .     S
O308   C310    1.286   .     A
C309   C348    1.433   .     S
C310   C347    1.433   .     S
O311   C315    1.290   .     A
O311   Zn317   1.941   .     S
O312   Zn318   1.941   .     S
O312   C316    1.290   .     A
O313   Zn318   1.888   .     S
O313   C315    1.305   .     A
O314   C316    1.305   .     A
O314   Zn317   1.888   .     S
C315   C319    1.466   .     S
C316   C320    1.466   .     S
Zn317  N353    2.021   .     S
Zn318  N354    2.021   .     S
C319   C323    1.410   .     A
C319   C325    1.399   .     A
C320   C324    1.410   .     A
C320   C326    1.399   .     A
C321   H337    1.084   .     S
C321   C329    1.406   .     A
C321   C323    1.393   .     A
C322   C330    1.406   .     A
C322   H338    1.084   .     S
C322   C324    1.393   .     A
C323   C367    1.442   .     S
C324   C365    1.442   .     S
C325   N362    1.449   .     S
C325   C327    1.415   .     A
C326   C328    1.415   .     A
C326   N359    1.449   .     S
C327   C331    1.421   .     A
C327   C329    1.421   .     A
C328   C330    1.421   .     A
C328   C332    1.421   .     A
C329   C1019   1.406   .     S
C330   C1020   1.406   1_554 S
C331   C334    1.410   .     A
C331   C1016   1.416   .     S
C332   C333    1.410   .     A
C332   C1015   1.416   1_554 S
C333   H339    1.080   .     S
C333   C335    1.391   .     A
C334   C336    1.391   .     A
C334   H340    1.080   .     S
C335   C355    1.446   .     S
C335   C1013   1.406   1_554 S
C336   C357    1.446   .     S
C336   C1014   1.406   .     S
C341   C369    1.446   .     S
C341   C348    1.411   .     A
C341   C571    1.371   .     S
C342   C347    1.411   .     A
C342   C371    1.446   .     S
C343   H345    1.085   .     S
C343   C347    1.397   .     A
C344   C348    1.398   .     A
C344   H346    1.085   .     S
C344   C570    1.371   .     S
C349   C373    1.442   .     S
C349   N354    1.364   .     A
C349   C427    1.426   .     S
C350   N353    1.364   .     A
C350   C375    1.442   .     S
C351   C377    1.439   .     S
C351   N353    1.374   .     A
C352   N354    1.374   .     A
C352   C379    1.439   .     S
C352   C426    1.426   .     S
C355   N356    1.157   .     T
C357   N358    1.157   .     T
N359   O360    1.302   .     A
N359   O361    1.302   .     A
N362   O364    1.302   .     A
N362   O363    1.302   .     A
C365   N366    1.156   .     T
C367   N368    1.156   .     T
C369   N370    1.157   .     T
C371   N372    1.157   .     T
C373   N374    1.157   .     T
C375   N376    1.157   .     T
C377   N378    1.156   .     T
C379   N380    1.156   .     T
O381   C385    1.294   .     A
O381   Zn393   2.009   .     S
O382   C386    1.294   .     A
O382   Zn394   2.009   .     S
O383   Zn394   2.023   .     S
O383   C385    1.286   .     A
O384   Zn393   2.023   .     S
O384   C386    1.286   .     A
C385   C424    1.433   .     S
C386   C423    1.433   .     S
O387   C391    1.290   .     A
O387   Zn393   1.941   .     S
O388   Zn394   1.941   .     S
O388   C392    1.290   .     A
O389   Zn394   1.888   .     S
O389   C391    1.305   .     A
O390   C392    1.305   .     A
O390   Zn393   1.888   .     S
C391   C395    1.466   .     S
C392   C396    1.466   .     S
Zn393  N429    2.021   .     S
Zn394  N430    2.021   .     S
C395   C399    1.410   .     A
C395   C401    1.399   .     A
C396   C400    1.410   .     A
C396   C402    1.399   .     A
C397   H413    1.084   .     S
C397   C405    1.406   .     A
C397   C399    1.393   .     A
C398   C406    1.406   .     A
C398   H414    1.084   .     S
C398   C400    1.393   .     A
C399   C443    1.442   .     S
C400   C441    1.442   .     S
C401   N438    1.449   .     S
C401   C403    1.415   .     A
C402   C404    1.415   .     A
C402   N435    1.449   .     S
C403   C407    1.421   .     A
C403   C405    1.421   .     A
C404   C406    1.421   .     A
C404   C408    1.421   .     A
C405   C1095   1.406   .     S
C406   C1096   1.406   1_554 S
C407   C410    1.410   .     A
C407   C1092   1.416   .     S
C408   C409    1.410   .     A
C408   C1091   1.416   1_554 S
C409   H415    1.080   .     S
C409   C411    1.391   .     A
C410   C412    1.391   .     A
C410   H416    1.080   .     S
C411   C431    1.446   .     S
C411   C1089   1.406   1_554 S
C412   C433    1.446   .     S
C412   C1090   1.406   .     S
C417   C445    1.446   .     S
C417   C424    1.411   .     A
C417   C647    1.371   .     S
C418   C423    1.411   .     A
C418   C447    1.446   .     S
C419   H421    1.085   .     S
C419   C423    1.397   .     A
C420   C424    1.398   .     A
C420   H422    1.085   .     S
C420   C646    1.371   .     S
C425   C449    1.442   .     S
C425   N430    1.364   .     A
C425   C275    1.426   1_655 S
C426   N429    1.364   .     A
C426   C451    1.442   .     S
C427   C453    1.439   .     S
C427   N429    1.374   .     A
C428   N430    1.374   .     A
C428   C455    1.439   .     S
C428   C274    1.426   1_655 S
C431   N432    1.157   .     T
C433   N434    1.157   .     T
N435   O436    1.302   .     A
N435   O437    1.302   .     A
N438   O440    1.302   .     A
N438   O439    1.302   .     A
C441   N442    1.156   .     T
C443   N444    1.156   .     T
C445   N446    1.157   .     T
C447   N448    1.157   .     T
C449   N450    1.157   .     T
C451   N452    1.157   .     T
C453   N454    1.156   .     T
C455   N456    1.156   .     T
O457   C461    1.294   .     A
O457   Zn469   2.009   .     S
O458   C462    1.294   .     A
O458   Zn470   2.009   .     S
O459   Zn470   2.023   .     S
O459   C461    1.286   .     A
O460   Zn469   2.023   .     S
O460   C462    1.286   .     A
C461   C500    1.433   .     S
C462   C499    1.433   .     S
O463   C467    1.290   .     A
O463   Zn469   1.941   .     S
O464   Zn470   1.941   .     S
O464   C468    1.290   .     A
O465   Zn470   1.888   .     S
O465   C467    1.305   .     A
O466   C468    1.305   .     A
O466   Zn469   1.888   .     S
C467   C471    1.466   .     S
C468   C472    1.466   .     S
Zn469  N505    2.021   .     S
Zn470  N506    2.021   .     S
C471   C475    1.410   .     A
C471   C477    1.399   .     A
C472   C476    1.410   .     A
C472   C478    1.399   .     A
C473   H489    1.084   .     S
C473   C481    1.406   .     A
C473   C475    1.393   .     A
C474   C482    1.406   .     A
C474   H490    1.084   .     S
C474   C476    1.393   .     A
C475   C519    1.442   .     S
C476   C517    1.442   .     S
C477   N514    1.449   .     S
C477   C479    1.415   .     A
C478   C480    1.415   .     A
C478   N511    1.449   .     S
C479   C483    1.421   .     A
C479   C481    1.421   .     A
C480   C482    1.421   .     A
C480   C484    1.421   .     A
C481   C1171   1.406   .     S
C482   C1172   1.406   1_554 S
C483   C486    1.410   .     A
C483   C1168   1.416   .     S
C484   C485    1.410   .     A
C484   C1167   1.416   1_554 S
C485   H491    1.080   .     S
C485   C487    1.391   .     A
C486   C488    1.391   .     A
C486   H492    1.080   .     S
C487   C507    1.446   .     S
C487   C1165   1.406   1_554 S
C488   C509    1.446   .     S
C488   C1166   1.406   .     S
C493   C521    1.446   .     S
C493   C500    1.411   .     A
C493   C39     1.371   1_565 S
C494   C499    1.411   .     A
C494   C523    1.446   .     S
C495   H497    1.085   .     S
C495   C499    1.397   .     A
C496   C500    1.398   .     A
C496   H498    1.085   .     S
C496   C38     1.371   1_565 S
C501   C525    1.442   .     S
C501   N506    1.364   .     A
C501   C579    1.426   .     S
C502   N505    1.364   .     A
C502   C527    1.442   .     S
C502   C656    1.426   1_455 S
C503   C529    1.439   .     S
C503   N505    1.374   .     A
C503   C653    1.426   1_455 S
C504   N506    1.374   .     A
C504   C531    1.439   .     S
C504   C578    1.426   .     S
C507   N508    1.157   .     T
C509   N510    1.157   .     T
N511   O512    1.302   .     A
N511   O513    1.302   .     A
N514   O516    1.302   .     A
N514   O515    1.302   .     A
C517   N518    1.156   .     T
C519   N520    1.156   .     T
C521   N522    1.157   .     T
C523   N524    1.157   .     T
C525   N526    1.157   .     T
C527   N528    1.157   .     T
C529   N530    1.156   .     T
C531   N532    1.156   .     T
O533   C537    1.294   .     A
O533   Zn545   2.009   .     S
O534   C538    1.294   .     A
O534   Zn546   2.009   .     S
O535   Zn546   2.023   .     S
O535   C537    1.286   .     A
O536   Zn545   2.023   .     S
O536   C538    1.286   .     A
C537   C576    1.433   .     S
C538   C575    1.433   .     S
O539   C543    1.290   .     A
O539   Zn545   1.941   .     S
O540   Zn546   1.941   .     S
O540   C544    1.290   .     A
O541   Zn546   1.888   .     S
O541   C543    1.305   .     A
O542   C544    1.305   .     A
O542   Zn545   1.888   .     S
C543   C547    1.466   .     S
C544   C548    1.466   .     S
Zn545  N581    2.021   .     S
Zn546  N582    2.021   .     S
C547   C551    1.410   .     A
C547   C553    1.399   .     A
C548   C552    1.410   .     A
C548   C554    1.399   .     A
C549   H565    1.084   .     S
C549   C557    1.406   .     A
C549   C551    1.393   .     A
C550   C558    1.406   .     A
C550   H566    1.084   .     S
C550   C552    1.393   .     A
C551   C595    1.442   .     S
C552   C593    1.442   .     S
C553   N590    1.449   .     S
C553   C555    1.415   .     A
C554   C556    1.415   .     A
C554   N587    1.449   .     S
C555   C559    1.421   .     A
C555   C557    1.421   .     A
C556   C558    1.421   .     A
C556   C560    1.421   .     A
C557   C1247   1.406   .     S
C558   C1248   1.406   1_554 S
C559   C562    1.410   .     A
C559   C1244   1.416   .     S
C560   C561    1.410   .     A
C560   C1243   1.416   1_554 S
C561   H567    1.080   .     S
C561   C563    1.391   .     A
C562   C564    1.391   .     A
C562   H568    1.080   .     S
C563   C583    1.446   .     S
C563   C1241   1.406   1_554 S
C564   C585    1.446   .     S
C564   C1242   1.406   .     S
C569   C597    1.446   .     S
C569   C576    1.411   .     A
C569   C115    1.371   1_565 S
C570   C575    1.411   .     A
C570   C599    1.446   .     S
C571   H573    1.085   .     S
C571   C575    1.397   .     A
C572   C576    1.398   .     A
C572   H574    1.085   .     S
C572   C114    1.371   1_565 S
C577   C601    1.442   .     S
C577   N582    1.364   .     A
C577   C655    1.426   .     S
C578   N581    1.364   .     A
C578   C603    1.442   .     S
C579   C605    1.439   .     S
C579   N581    1.374   .     A
C580   N582    1.374   .     A
C580   C607    1.439   .     S
C580   C654    1.426   .     S
C583   N584    1.157   .     T
C585   N586    1.157   .     T
N587   O588    1.302   .     A
N587   O589    1.302   .     A
N590   O592    1.302   .     A
N590   O591    1.302   .     A
C593   N594    1.156   .     T
C595   N596    1.156   .     T
C597   N598    1.157   .     T
C599   N600    1.157   .     T
C601   N602    1.157   .     T
C603   N604    1.157   .     T
C605   N606    1.156   .     T
C607   N608    1.156   .     T
O609   C613    1.294   .     A
O609   Zn621   2.009   .     S
O610   C614    1.294   .     A
O610   Zn622   2.009   .     S
O611   Zn622   2.023   .     S
O611   C613    1.286   .     A
O612   Zn621   2.023   .     S
O612   C614    1.286   .     A
C613   C652    1.433   .     S
C614   C651    1.433   .     S
O615   C619    1.290   .     A
O615   Zn621   1.941   .     S
O616   Zn622   1.941   .     S
O616   C620    1.290   .     A
O617   Zn622   1.888   .     S
O617   C619    1.305   .     A
O618   C620    1.305   .     A
O618   Zn621   1.888   .     S
C619   C623    1.466   .     S
C620   C624    1.466   .     S
Zn621  N657    2.021   .     S
Zn622  N658    2.021   .     S
C623   C627    1.410   .     A
C623   C629    1.399   .     A
C624   C628    1.410   .     A
C624   C630    1.399   .     A
C625   H641    1.084   .     S
C625   C633    1.406   .     A
C625   C627    1.393   .     A
C626   C634    1.406   .     A
C626   H642    1.084   .     S
C626   C628    1.393   .     A
C627   C671    1.442   .     S
C628   C669    1.442   .     S
C629   N666    1.449   .     S
C629   C631    1.415   .     A
C630   C632    1.415   .     A
C630   N663    1.449   .     S
C631   C635    1.421   .     A
C631   C633    1.421   .     A
C632   C634    1.421   .     A
C632   C636    1.421   .     A
C633   C1323   1.406   .     S
C634   C1324   1.406   1_554 S
C635   C638    1.410   .     A
C635   C1320   1.416   .     S
C636   C637    1.410   .     A
C636   C1319   1.416   1_554 S
C637   H643    1.080   .     S
C637   C639    1.391   .     A
C638   C640    1.391   .     A
C638   H644    1.080   .     S
C639   C659    1.446   .     S
C639   C1317   1.406   1_554 S
C640   C661    1.446   .     S
C640   C1318   1.406   .     S
C645   C673    1.446   .     S
C645   C652    1.411   .     A
C645   C191    1.371   1_565 S
C646   C651    1.411   .     A
C646   C675    1.446   .     S
C647   H649    1.085   .     S
C647   C651    1.397   .     A
C648   C652    1.398   .     A
C648   H650    1.085   .     S
C648   C190    1.371   1_565 S
C653   C677    1.442   .     S
C653   N658    1.364   .     A
C653   C503    1.426   1_655 S
C654   N657    1.364   .     A
C654   C679    1.442   .     S
C655   C681    1.439   .     S
C655   N657    1.374   .     A
C656   N658    1.374   .     A
C656   C683    1.439   .     S
C656   C502    1.426   1_655 S
C659   N660    1.157   .     T
C661   N662    1.157   .     T
N663   O664    1.302   .     A
N663   O665    1.302   .     A
N666   O668    1.302   .     A
N666   O667    1.302   .     A
C669   N670    1.156   .     T
C671   N672    1.156   .     T
C673   N674    1.157   .     T
C675   N676    1.157   .     T
C677   N678    1.157   .     T
C679   N680    1.157   .     T
C681   N682    1.156   .     T
C683   N684    1.156   .     T
O685   C689    1.294   .     A
O685   Zn697   2.009   .     S
O686   C690    1.294   .     A
O686   Zn698   2.009   .     S
O687   Zn698   2.023   .     S
O687   C689    1.286   .     A
O688   Zn697   2.023   .     S
O688   C690    1.286   .     A
C689   C728    1.433   .     S
C690   C727    1.433   .     S
O691   C695    1.290   .     A
O691   Zn697   1.941   .     S
O692   Zn698   1.941   .     S
O692   C696    1.290   .     A
O693   Zn698   1.888   .     S
O693   C695    1.305   .     A
O694   C696    1.305   .     A
O694   Zn697   1.888   .     S
C695   C699    1.466   .     S
C696   C700    1.466   .     S
Zn697  N733    2.021   .     S
Zn698  N734    2.021   .     S
C699   C703    1.410   .     A
C699   C705    1.399   .     A
C700   C704    1.410   .     A
C700   C706    1.399   .     A
C701   H717    1.084   .     S
C701   C709    1.406   .     A
C701   C703    1.393   .     A
C702   C710    1.406   .     A
C702   H718    1.084   .     S
C702   C704    1.393   .     A
C703   C747    1.442   .     S
C704   C745    1.442   .     S
C705   N742    1.449   .     S
C705   C707    1.415   .     A
C706   C708    1.415   .     A
C706   N739    1.449   .     S
C707   C711    1.421   .     A
C707   C709    1.421   .     A
C708   C710    1.421   .     A
C708   C712    1.421   .     A
C709   C31     1.406   1_556 S
C711   C714    1.410   .     A
C711   C28     1.416   1_556 S
C712   C713    1.410   .     A
C713   H719    1.080   .     S
C713   C715    1.391   .     A
C714   C716    1.391   .     A
C714   H720    1.080   .     S
C715   C735    1.446   .     S
C716   C737    1.446   .     S
C716   C26     1.406   1_556 S
C721   C749    1.446   .     S
C721   C728    1.411   .     A
C721   C951    1.371   .     S
C722   C727    1.411   .     A
C722   C751    1.446   .     S
C722   C1180   1.371   1_545 S
C723   H725    1.085   .     S
C723   C727    1.397   .     A
C723   C1177   1.371   1_545 S
C724   C728    1.398   .     A
C724   H726    1.085   .     S
C724   C950    1.371   .     S
C729   C753    1.442   .     S
C729   N734    1.364   .     A
C729   C807    1.426   .     S
C730   N733    1.364   .     A
C730   C755    1.442   .     S
C730   C884    1.426   1_455 S
C731   C757    1.439   .     S
C731   N733    1.374   .     A
C731   C881    1.426   1_455 S
C732   N734    1.374   .     A
C732   C759    1.439   .     S
C732   C806    1.426   .     S
C735   N736    1.157   .     T
C737   N738    1.157   .     T
N739   O740    1.302   .     A
N739   O741    1.302   .     A
N742   O744    1.302   .     A
N742   O743    1.302   .     A
C745   N746    1.156   .     T
C747   N748    1.156   .     T
C749   N750    1.157   .     T
C751   N752    1.157   .     T
C753   N754    1.157   .     T
C755   N756    1.157   .     T
C757   N758    1.156   .     T
C759   N760    1.156   .     T
O761   C765    1.294   .     A
O761   Zn773   2.009   .     S
O762   C766    1.294   .     A
O762   Zn774   2.009   .     S
O763   Zn774   2.023   .     S
O763   C765    1.286   .     A
O764   Zn773   2.023   .     S
O764   C766    1.286   .     A
C765   C804    1.433   .     S
C766   C803    1.433   .     S
O767   C771    1.290   .     A
O767   Zn773   1.941   .     S
O768   Zn774   1.941   .     S
O768   C772    1.290   .     A
O769   Zn774   1.888   .     S
O769   C771    1.305   .     A
O770   C772    1.305   .     A
O770   Zn773   1.888   .     S
C771   C775    1.466   .     S
C772   C776    1.466   .     S
Zn773  N809    2.021   .     S
Zn774  N810    2.021   .     S
C775   C779    1.410   .     A
C775   C781    1.399   .     A
C776   C780    1.410   .     A
C776   C782    1.399   .     A
C777   H793    1.084   .     S
C777   C785    1.406   .     A
C777   C779    1.393   .     A
C778   C786    1.406   .     A
C778   H794    1.084   .     S
C778   C780    1.393   .     A
C779   C823    1.442   .     S
C780   C821    1.442   .     S
C781   N818    1.449   .     S
C781   C783    1.415   .     A
C782   C784    1.415   .     A
C782   N815    1.449   .     S
C783   C787    1.421   .     A
C783   C785    1.421   .     A
C784   C786    1.421   .     A
C784   C788    1.421   .     A
C785   C107    1.406   1_556 S
C787   C790    1.410   .     A
C787   C104    1.416   1_556 S
C788   C789    1.410   .     A
C789   H795    1.080   .     S
C789   C791    1.391   .     A
C790   C792    1.391   .     A
C790   H796    1.080   .     S
C791   C811    1.446   .     S
C792   C813    1.446   .     S
C792   C102    1.406   1_556 S
C797   C825    1.446   .     S
C797   C804    1.411   .     A
C797   C1027   1.371   .     S
C798   C803    1.411   .     A
C798   C827    1.446   .     S
C798   C1256   1.371   1_545 S
C799   H801    1.085   .     S
C799   C803    1.397   .     A
C799   C1253   1.371   1_545 S
C800   C804    1.398   .     A
C800   H802    1.085   .     S
C800   C1026   1.371   .     S
C805   C829    1.442   .     S
C805   N810    1.364   .     A
C805   C883    1.426   .     S
C806   N809    1.364   .     A
C806   C831    1.442   .     S
C807   C833    1.439   .     S
C807   N809    1.374   .     A
C808   N810    1.374   .     A
C808   C835    1.439   .     S
C808   C882    1.426   .     S
C811   N812    1.157   .     T
C813   N814    1.157   .     T
N815   O816    1.302   .     A
N815   O817    1.302   .     A
N818   O820    1.302   .     A
N818   O819    1.302   .     A
C821   N822    1.156   .     T
C823   N824    1.156   .     T
C825   N826    1.157   .     T
C827   N828    1.157   .     T
C829   N830    1.157   .     T
C831   N832    1.157   .     T
C833   N834    1.156   .     T
C835   N836    1.156   .     T
O837   C841    1.294   .     A
O837   Zn849   2.009   .     S
O838   C842    1.294   .     A
O838   Zn850   2.009   .     S
O839   Zn850   2.023   .     S
O839   C841    1.286   .     A
O840   Zn849   2.023   .     S
O840   C842    1.286   .     A
C841   C880    1.433   .     S
C842   C879    1.433   .     S
O843   C847    1.290   .     A
O843   Zn849   1.941   .     S
O844   Zn850   1.941   .     S
O844   C848    1.290   .     A
O845   Zn850   1.888   .     S
O845   C847    1.305   .     A
O846   C848    1.305   .     A
O846   Zn849   1.888   .     S
C847   C851    1.466   .     S
C848   C852    1.466   .     S
Zn849  N885    2.021   .     S
Zn850  N886    2.021   .     S
C851   C855    1.410   .     A
C851   C857    1.399   .     A
C852   C856    1.410   .     A
C852   C858    1.399   .     A
C853   H869    1.084   .     S
C853   C861    1.406   .     A
C853   C855    1.393   .     A
C854   C862    1.406   .     A
C854   H870    1.084   .     S
C854   C856    1.393   .     A
C855   C899    1.442   .     S
C856   C897    1.442   .     S
C857   N894    1.449   .     S
C857   C859    1.415   .     A
C858   C860    1.415   .     A
C858   N891    1.449   .     S
C859   C863    1.421   .     A
C859   C861    1.421   .     A
C860   C862    1.421   .     A
C860   C864    1.421   .     A
C861   C183    1.406   1_556 S
C863   C866    1.410   .     A
C863   C180    1.416   1_556 S
C864   C865    1.410   .     A
C865   H871    1.080   .     S
C865   C867    1.391   .     A
C866   C868    1.391   .     A
C866   H872    1.080   .     S
C867   C887    1.446   .     S
C868   C889    1.446   .     S
C868   C178    1.406   1_556 S
C873   C901    1.446   .     S
C873   C880    1.411   .     A
C873   C1103   1.371   .     S
C874   C879    1.411   .     A
C874   C903    1.446   .     S
C874   C1332   1.371   1_545 S
C875   H877    1.085   .     S
C875   C879    1.397   .     A
C875   C1329   1.371   1_545 S
C876   C880    1.398   .     A
C876   H878    1.085   .     S
C876   C1102   1.371   .     S
C881   C905    1.442   .     S
C881   N886    1.364   .     A
C881   C731    1.426   1_655 S
C882   N885    1.364   .     A
C882   C907    1.442   .     S
C883   C909    1.439   .     S
C883   N885    1.374   .     A
C884   N886    1.374   .     A
C884   C911    1.439   .     S
C884   C730    1.426   1_655 S
C887   N888    1.157   .     T
C889   N890    1.157   .     T
N891   O892    1.302   .     A
N891   O893    1.302   .     A
N894   O896    1.302   .     A
N894   O895    1.302   .     A
C897   N898    1.156   .     T
C899   N900    1.156   .     T
C901   N902    1.157   .     T
C903   N904    1.157   .     T
C905   N906    1.157   .     T
C907   N908    1.157   .     T
C909   N910    1.156   .     T
C911   N912    1.156   .     T
O913   C917    1.294   .     A
O913   Zn925   2.009   .     S
O914   C918    1.294   .     A
O914   Zn926   2.009   .     S
O915   Zn926   2.023   .     S
O915   C917    1.286   .     A
O916   Zn925   2.023   .     S
O916   C918    1.286   .     A
C917   C956    1.433   .     S
C918   C955    1.433   .     S
O919   C923    1.290   .     A
O919   Zn925   1.941   .     S
O920   Zn926   1.941   .     S
O920   C924    1.290   .     A
O921   Zn926   1.888   .     S
O921   C923    1.305   .     A
O922   C924    1.305   .     A
O922   Zn925   1.888   .     S
C923   C927    1.466   .     S
C924   C928    1.466   .     S
Zn925  N961    2.021   .     S
Zn926  N962    2.021   .     S
C927   C931    1.410   .     A
C927   C933    1.399   .     A
C928   C932    1.410   .     A
C928   C934    1.399   .     A
C929   H945    1.084   .     S
C929   C937    1.406   .     A
C929   C931    1.393   .     A
C930   C938    1.406   .     A
C930   H946    1.084   .     S
C930   C932    1.393   .     A
C931   C975    1.442   .     S
C932   C973    1.442   .     S
C933   N970    1.449   .     S
C933   C935    1.415   .     A
C934   C936    1.415   .     A
C934   N967    1.449   .     S
C935   C939    1.421   .     A
C935   C937    1.421   .     A
C936   C938    1.421   .     A
C936   C940    1.421   .     A
C937   C259    1.406   1_556 S
C939   C942    1.410   .     A
C939   C256    1.416   1_556 S
C940   C941    1.410   .     A
C941   H947    1.080   .     S
C941   C943    1.391   .     A
C942   C944    1.391   .     A
C942   H948    1.080   .     S
C943   C963    1.446   .     S
C944   C965    1.446   .     S
C944   C254    1.406   1_556 S
C949   C977    1.446   .     S
C949   C956    1.411   .     A
C949   C1179   1.371   .     S
C950   C955    1.411   .     A
C950   C979    1.446   .     S
C951   H953    1.085   .     S
C951   C955    1.397   .     A
C952   C956    1.398   .     A
C952   H954    1.085   .     S
C952   C1178   1.371   .     S
C957   C981    1.442   .     S
C957   N962    1.364   .     A
C957   C1035   1.426   .     S
C958   N961    1.364   .     A
C958   C983    1.442   .     S
C958   C1112   1.426   1_455 S
C959   C985    1.439   .     S
C959   N961    1.374   .     A
C959   C1109   1.426   1_455 S
C960   N962    1.374   .     A
C960   C987    1.439   .     S
C960   C1034   1.426   .     S
C963   N964    1.157   .     T
C965   N966    1.157   .     T
N967   O968    1.302   .     A
N967   O969    1.302   .     A
N970   O972    1.302   .     A
N970   O971    1.302   .     A
C973   N974    1.156   .     T
C975   N976    1.156   .     T
C977   N978    1.157   .     T
C979   N980    1.157   .     T
C981   N982    1.157   .     T
C983   N984    1.157   .     T
C985   N986    1.156   .     T
C987   N988    1.156   .     T
O989   C993    1.294   .     A
O989   Zn1001  2.009   .     S
O990   C994    1.294   .     A
O990   Zn1002  2.009   .     S
O991   Zn1002  2.023   .     S
O991   C993    1.286   .     A
O992   Zn1001  2.023   .     S
O992   C994    1.286   .     A
C993   C1032   1.433   .     S
C994   C1031   1.433   .     S
O995   C999    1.290   .     A
O995   Zn1001  1.941   .     S
O996   Zn1002  1.941   .     S
O996   C1000   1.290   .     A
O997   Zn1002  1.888   .     S
O997   C999    1.305   .     A
O998   C1000   1.305   .     A
O998   Zn1001  1.888   .     S
C999   C1003   1.466   .     S
C1000  C1004   1.466   .     S
Zn1001 N1037   2.021   .     S
Zn1002 N1038   2.021   .     S
C1003  C1007   1.410   .     A
C1003  C1009   1.399   .     A
C1004  C1008   1.410   .     A
C1004  C1010   1.399   .     A
C1005  H1021   1.084   .     S
C1005  C1013   1.406   .     A
C1005  C1007   1.393   .     A
C1006  C1014   1.406   .     A
C1006  H1022   1.084   .     S
C1006  C1008   1.393   .     A
C1007  C1051   1.442   .     S
C1008  C1049   1.442   .     S
C1009  N1046   1.449   .     S
C1009  C1011   1.415   .     A
C1010  C1012   1.415   .     A
C1010  N1043   1.449   .     S
C1011  C1015   1.421   .     A
C1011  C1013   1.421   .     A
C1012  C1014   1.421   .     A
C1012  C1016   1.421   .     A
C1013  C335    1.406   1_556 S
C1015  C1018   1.410   .     A
C1015  C332    1.416   1_556 S
C1016  C1017   1.410   .     A
C1017  H1023   1.080   .     S
C1017  C1019   1.391   .     A
C1018  C1020   1.391   .     A
C1018  H1024   1.080   .     S
C1019  C1039   1.446   .     S
C1020  C1041   1.446   .     S
C1020  C330    1.406   1_556 S
C1025  C1053   1.446   .     S
C1025  C1032   1.411   .     A
C1025  C1255   1.371   .     S
C1026  C1031   1.411   .     A
C1026  C1055   1.446   .     S
C1027  H1029   1.085   .     S
C1027  C1031   1.397   .     A
C1028  C1032   1.398   .     A
C1028  H1030   1.085   .     S
C1028  C1254   1.371   .     S
C1033  C1057   1.442   .     S
C1033  N1038   1.364   .     A
C1033  C1111   1.426   .     S
C1034  N1037   1.364   .     A
C1034  C1059   1.442   .     S
C1035  C1061   1.439   .     S
C1035  N1037   1.374   .     A
C1036  N1038   1.374   .     A
C1036  C1063   1.439   .     S
C1036  C1110   1.426   .     S
C1039  N1040   1.157   .     T
C1041  N1042   1.157   .     T
N1043  O1044   1.302   .     A
N1043  O1045   1.302   .     A
N1046  O1048   1.302   .     A
N1046  O1047   1.302   .     A
C1049  N1050   1.156   .     T
C1051  N1052   1.156   .     T
C1053  N1054   1.157   .     T
C1055  N1056   1.157   .     T
C1057  N1058   1.157   .     T
C1059  N1060   1.157   .     T
C1061  N1062   1.156   .     T
C1063  N1064   1.156   .     T
O1065  C1069   1.294   .     A
O1065  Zn1077  2.009   .     S
O1066  C1070   1.294   .     A
O1066  Zn1078  2.009   .     S
O1067  Zn1078  2.023   .     S
O1067  C1069   1.286   .     A
O1068  Zn1077  2.023   .     S
O1068  C1070   1.286   .     A
C1069  C1108   1.433   .     S
C1070  C1107   1.433   .     S
O1071  C1075   1.290   .     A
O1071  Zn1077  1.941   .     S
O1072  Zn1078  1.941   .     S
O1072  C1076   1.290   .     A
O1073  Zn1078  1.888   .     S
O1073  C1075   1.305   .     A
O1074  C1076   1.305   .     A
O1074  Zn1077  1.888   .     S
C1075  C1079   1.466   .     S
C1076  C1080   1.466   .     S
Zn1077 N1113   2.021   .     S
Zn1078 N1114   2.021   .     S
C1079  C1083   1.410   .     A
C1079  C1085   1.399   .     A
C1080  C1084   1.410   .     A
C1080  C1086   1.399   .     A
C1081  H1097   1.084   .     S
C1081  C1089   1.406   .     A
C1081  C1083   1.393   .     A
C1082  C1090   1.406   .     A
C1082  H1098   1.084   .     S
C1082  C1084   1.393   .     A
C1083  C1127   1.442   .     S
C1084  C1125   1.442   .     S
C1085  N1122   1.449   .     S
C1085  C1087   1.415   .     A
C1086  C1088   1.415   .     A
C1086  N1119   1.449   .     S
C1087  C1091   1.421   .     A
C1087  C1089   1.421   .     A
C1088  C1090   1.421   .     A
C1088  C1092   1.421   .     A
C1089  C411    1.406   1_556 S
C1091  C1094   1.410   .     A
C1091  C408    1.416   1_556 S
C1092  C1093   1.410   .     A
C1093  H1099   1.080   .     S
C1093  C1095   1.391   .     A
C1094  C1096   1.391   .     A
C1094  H1100   1.080   .     S
C1095  C1115   1.446   .     S
C1096  C1117   1.446   .     S
C1096  C406    1.406   1_556 S
C1101  C1129   1.446   .     S
C1101  C1108   1.411   .     A
C1101  C1331   1.371   .     S
C1102  C1107   1.411   .     A
C1102  C1131   1.446   .     S
C1103  H1105   1.085   .     S
C1103  C1107   1.397   .     A
C1104  C1108   1.398   .     A
C1104  H1106   1.085   .     S
C1104  C1330   1.371   .     S
C1109  C1133   1.442   .     S
C1109  N1114   1.364   .     A
C1109  C959    1.426   1_655 S
C1110  N1113   1.364   .     A
C1110  C1135   1.442   .     S
C1111  C1137   1.439   .     S
C1111  N1113   1.374   .     A
C1112  N1114   1.374   .     A
C1112  C1139   1.439   .     S
C1112  C958    1.426   1_655 S
C1115  N1116   1.157   .     T
C1117  N1118   1.157   .     T
N1119  O1120   1.302   .     A
N1119  O1121   1.302   .     A
N1122  O1124   1.302   .     A
N1122  O1123   1.302   .     A
C1125  N1126   1.156   .     T
C1127  N1128   1.156   .     T
C1129  N1130   1.157   .     T
C1131  N1132   1.157   .     T
C1133  N1134   1.157   .     T
C1135  N1136   1.157   .     T
C1137  N1138   1.156   .     T
C1139  N1140   1.156   .     T
O1141  C1145   1.294   .     A
O1141  Zn1153  2.009   .     S
O1142  C1146   1.294   .     A
O1142  Zn1154  2.009   .     S
O1143  Zn1154  2.023   .     S
O1143  C1145   1.286   .     A
O1144  Zn1153  2.023   .     S
O1144  C1146   1.286   .     A
C1145  C1184   1.433   .     S
C1146  C1183   1.433   .     S
O1147  C1151   1.290   .     A
O1147  Zn1153  1.941   .     S
O1148  Zn1154  1.941   .     S
O1148  C1152   1.290   .     A
O1149  Zn1154  1.888   .     S
O1149  C1151   1.305   .     A
O1150  C1152   1.305   .     A
O1150  Zn1153  1.888   .     S
C1151  C1155   1.466   .     S
C1152  C1156   1.466   .     S
Zn1153 N1189   2.021   .     S
Zn1154 N1190   2.021   .     S
C1155  C1159   1.410   .     A
C1155  C1161   1.399   .     A
C1156  C1160   1.410   .     A
C1156  C1162   1.399   .     A
C1157  H1173   1.084   .     S
C1157  C1165   1.406   .     A
C1157  C1159   1.393   .     A
C1158  C1166   1.406   .     A
C1158  H1174   1.084   .     S
C1158  C1160   1.393   .     A
C1159  C1203   1.442   .     S
C1160  C1201   1.442   .     S
C1161  N1198   1.449   .     S
C1161  C1163   1.415   .     A
C1162  C1164   1.415   .     A
C1162  N1195   1.449   .     S
C1163  C1167   1.421   .     A
C1163  C1165   1.421   .     A
C1164  C1166   1.421   .     A
C1164  C1168   1.421   .     A
C1165  C487    1.406   1_556 S
C1167  C1170   1.410   .     A
C1167  C484    1.416   1_556 S
C1168  C1169   1.410   .     A
C1169  H1175   1.080   .     S
C1169  C1171   1.391   .     A
C1170  C1172   1.391   .     A
C1170  H1176   1.080   .     S
C1171  C1191   1.446   .     S
C1172  C1193   1.446   .     S
C1172  C482    1.406   1_556 S
C1177  C1205   1.446   .     S
C1177  C1184   1.411   .     A
C1177  C723    1.371   1_565 S
C1178  C1183   1.411   .     A
C1178  C1207   1.446   .     S
C1179  H1181   1.085   .     S
C1179  C1183   1.397   .     A
C1180  C1184   1.398   .     A
C1180  H1182   1.085   .     S
C1180  C722    1.371   1_565 S
C1185  C1209   1.442   .     S
C1185  N1190   1.364   .     A
C1185  C1263   1.426   .     S
C1186  N1189   1.364   .     A
C1186  C1211   1.442   .     S
C1186  C1340   1.426   1_455 S
C1187  C1213   1.439   .     S
C1187  N1189   1.374   .     A
C1187  C1337   1.426   1_455 S
C1188  N1190   1.374   .     A
C1188  C1215   1.439   .     S
C1188  C1262   1.426   .     S
C1191  N1192   1.157   .     T
C1193  N1194   1.157   .     T
N1195  O1196   1.302   .     A
N1195  O1197   1.302   .     A
N1198  O1200   1.302   .     A
N1198  O1199   1.302   .     A
C1201  N1202   1.156   .     T
C1203  N1204   1.156   .     T
C1205  N1206   1.157   .     T
C1207  N1208   1.157   .     T
C1209  N1210   1.157   .     T
C1211  N1212   1.157   .     T
C1213  N1214   1.156   .     T
C1215  N1216   1.156   .     T
O1217  C1221   1.294   .     A
O1217  Zn1229  2.009   .     S
O1218  C1222   1.294   .     A
O1218  Zn1230  2.009   .     S
O1219  Zn1230  2.023   .     S
O1219  C1221   1.286   .     A
O1220  Zn1229  2.023   .     S
O1220  C1222   1.286   .     A
C1221  C1260   1.433   .     S
C1222  C1259   1.433   .     S
O1223  C1227   1.290   .     A
O1223  Zn1229  1.941   .     S
O1224  Zn1230  1.941   .     S
O1224  C1228   1.290   .     A
O1225  Zn1230  1.888   .     S
O1225  C1227   1.305   .     A
O1226  C1228   1.305   .     A
O1226  Zn1229  1.888   .     S
C1227  C1231   1.466   .     S
C1228  C1232   1.466   .     S
Zn1229 N1265   2.021   .     S
Zn1230 N1266   2.021   .     S
C1231  C1235   1.410   .     A
C1231  C1237   1.399   .     A
C1232  C1236   1.410   .     A
C1232  C1238   1.399   .     A
C1233  H1249   1.084   .     S
C1233  C1241   1.406   .     A
C1233  C1235   1.393   .     A
C1234  C1242   1.406   .     A
C1234  H1250   1.084   .     S
C1234  C1236   1.393   .     A
C1235  C1279   1.442   .     S
C1236  C1277   1.442   .     S
C1237  N1274   1.449   .     S
C1237  C1239   1.415   .     A
C1238  C1240   1.415   .     A
C1238  N1271   1.449   .     S
C1239  C1243   1.421   .     A
C1239  C1241   1.421   .     A
C1240  C1242   1.421   .     A
C1240  C1244   1.421   .     A
C1241  C563    1.406   1_556 S
C1243  C1246   1.410   .     A
C1243  C560    1.416   1_556 S
C1244  C1245   1.410   .     A
C1245  H1251   1.080   .     S
C1245  C1247   1.391   .     A
C1246  C1248   1.391   .     A
C1246  H1252   1.080   .     S
C1247  C1267   1.446   .     S
C1248  C1269   1.446   .     S
C1248  C558    1.406   1_556 S
C1253  C1281   1.446   .     S
C1253  C1260   1.411   .     A
C1253  C799    1.371   1_565 S
C1254  C1259   1.411   .     A
C1254  C1283   1.446   .     S
C1255  H1257   1.085   .     S
C1255  C1259   1.397   .     A
C1256  C1260   1.398   .     A
C1256  H1258   1.085   .     S
C1256  C798    1.371   1_565 S
C1261  C1285   1.442   .     S
C1261  N1266   1.364   .     A
C1261  C1339   1.426   .     S
C1262  N1265   1.364   .     A
C1262  C1287   1.442   .     S
C1263  C1289   1.439   .     S
C1263  N1265   1.374   .     A
C1264  N1266   1.374   .     A
C1264  C1291   1.439   .     S
C1264  C1338   1.426   .     S
C1267  N1268   1.157   .     T
C1269  N1270   1.157   .     T
N1271  O1272   1.302   .     A
N1271  O1273   1.302   .     A
N1274  O1276   1.302   .     A
N1274  O1275   1.302   .     A
C1277  N1278   1.156   .     T
C1279  N1280   1.156   .     T
C1281  N1282   1.157   .     T
C1283  N1284   1.157   .     T
C1285  N1286   1.157   .     T
C1287  N1288   1.157   .     T
C1289  N1290   1.156   .     T
C1291  N1292   1.156   .     T
O1293  C1297   1.294   .     A
O1293  Zn1305  2.009   .     S
O1294  C1298   1.294   .     A
O1294  Zn1306  2.009   .     S
O1295  Zn1306  2.023   .     S
O1295  C1297   1.286   .     A
O1296  Zn1305  2.023   .     S
O1296  C1298   1.286   .     A
C1297  C1336   1.433   .     S
C1298  C1335   1.433   .     S
O1299  C1303   1.290   .     A
O1299  Zn1305  1.941   .     S
O1300  Zn1306  1.941   .     S
O1300  C1304   1.290   .     A
O1301  Zn1306  1.888   .     S
O1301  C1303   1.305   .     A
O1302  C1304   1.305   .     A
O1302  Zn1305  1.888   .     S
C1303  C1307   1.466   .     S
C1304  C1308   1.466   .     S
Zn1305 N1341   2.021   .     S
Zn1306 N1342   2.021   .     S
C1307  C1311   1.410   .     A
C1307  C1313   1.399   .     A
C1308  C1312   1.410   .     A
C1308  C1314   1.399   .     A
C1309  H1325   1.084   .     S
C1309  C1317   1.406   .     A
C1309  C1311   1.393   .     A
C1310  C1318   1.406   .     A
C1310  H1326   1.084   .     S
C1310  C1312   1.393   .     A
C1311  C1355   1.442   .     S
C1312  C1353   1.442   .     S
C1313  N1350   1.449   .     S
C1313  C1315   1.415   .     A
C1314  C1316   1.415   .     A
C1314  N1347   1.449   .     S
C1315  C1319   1.421   .     A
C1315  C1317   1.421   .     A
C1316  C1318   1.421   .     A
C1316  C1320   1.421   .     A
C1317  C639    1.406   1_556 S
C1319  C1322   1.410   .     A
C1319  C636    1.416   1_556 S
C1320  C1321   1.410   .     A
C1321  H1327   1.080   .     S
C1321  C1323   1.391   .     A
C1322  C1324   1.391   .     A
C1322  H1328   1.080   .     S
C1323  C1343   1.446   .     S
C1324  C1345   1.446   .     S
C1324  C634    1.406   1_556 S
C1329  C1357   1.446   .     S
C1329  C1336   1.411   .     A
C1329  C875    1.371   1_565 S
C1330  C1335   1.411   .     A
C1330  C1359   1.446   .     S
C1331  H1333   1.085   .     S
C1331  C1335   1.397   .     A
C1332  C1336   1.398   .     A
C1332  H1334   1.085   .     S
C1332  C874    1.371   1_565 S
C1337  C1361   1.442   .     S
C1337  N1342   1.364   .     A
C1337  C1187   1.426   1_655 S
C1338  N1341   1.364   .     A
C1338  C1363   1.442   .     S
C1339  C1365   1.439   .     S
C1339  N1341   1.374   .     A
C1340  N1342   1.374   .     A
C1340  C1367   1.439   .     S
C1340  C1186   1.426   1_655 S
C1343  N1344   1.157   .     T
C1345  N1346   1.157   .     T
N1347  O1348   1.302   .     A
N1347  O1349   1.302   .     A
N1350  O1352   1.302   .     A
N1350  O1351   1.302   .     A
C1353  N1354   1.156   .     T
C1355  N1356   1.156   .     T
C1357  N1358   1.157   .     T
C1359  N1360   1.157   .     T
C1361  N1362   1.157   .     T
C1363  N1364   1.157   .     T
C1365  N1366   1.156   .     T
C1367  N1368   1.156   .     T
