data_str_m3_o10_o18_pcu_sym.112
_audit_creation_date              2020-01-03
_audit_creation_method            'Materials Studio'
_symmetry_space_group_name_H-M    'P1'
_symmetry_Int_Tables_number       1
_symmetry_cell_setting            triclinic
loop_
_symmetry_equiv_pos_as_xyz
  x,y,z
_cell_length_a                    23.5020
_cell_length_b                    25.9758
_cell_length_c                    27.5392
_cell_angle_alpha                 94.4767
_cell_angle_beta                  93.2799
_cell_angle_gamma                 94.0461
loop_
_atom_site_label
_atom_site_type_symbol
_atom_site_fract_x
_atom_site_fract_y
_atom_site_fract_z
_atom_site_U_iso_or_equiv
_atom_site_adp_type
_atom_site_occupancy
C1     C     0.01485   0.26462   0.24841   0.00000  Uiso   1.00
C2     C     0.31162   0.15915   0.15896   0.00000  Uiso   1.00
C3     C     0.03259   0.17646   0.39461   0.00000  Uiso   1.00
C4     C     0.29957   0.14325   0.10701   0.00000  Uiso   1.00
C5     C     0.01310   0.20306   0.47810   0.00000  Uiso   1.00
C6     C     0.30115   0.08301   0.03499   0.00000  Uiso   1.00
C7     C     0.32826   0.19680   0.42844   0.00000  Uiso   1.00
C8     C     0.31827   0.09701   0.08406   0.00000  Uiso   1.00
C9     C     0.08536   0.16126   0.41151   0.00000  Uiso   1.00
C10    C     0.25837   0.16915   0.08260   0.00000  Uiso   1.00
C11    C     0.10082   0.16209   0.46086   0.00000  Uiso   1.00
C12    C     0.31874   0.06872   0.25172   0.00000  Uiso   1.00
C13    C     0.22977   0.14568   0.03984   0.00000  Uiso   1.00
C14    C     0.06593   0.18665   0.49428   0.00000  Uiso   1.00
C15    C     0.25564   0.10631   0.01307   0.00000  Uiso   1.00
C16    C     0.15211   0.14182   0.47736   0.00000  Uiso   1.00
C17    C     0.17412   0.15768   0.02536   0.00000  Uiso   1.00
C18    C     0.01302   0.05663   0.11124   0.00000  Uiso   1.00
C19    C     0.27049   0.21398   0.41300   0.00000  Uiso   1.00
C20    C     0.14465   0.12211   0.11970   0.00000  Uiso   1.00
C21    C     0.11880   0.03552   0.41867   0.00000  Uiso   1.00
C22    C     0.08790   0.31632   0.18357   0.00000  Uiso   1.00
C23    C     0.13644   0.17783   0.05966   0.00000  Uiso   1.00
C24    C     0.26573   0.00591   0.32656   0.00000  Uiso   1.00
C25    C     0.17999   0.10331   0.44944   0.00000  Uiso   1.00
C26    C     0.08364   0.19336   0.04357   0.00000  Uiso   1.00
C27    C     0.23146   0.08643   0.46762   0.00000  Uiso   1.00
C28    C     0.02224   0.31848   0.24383   0.00000  Uiso   1.00
C29    C     0.31273   0.01512   0.25731   0.00000  Uiso   1.00
C30    C     0.02141   0.17190   0.34138   0.00000  Uiso   1.00
H31    H     0.05585   0.20929   0.07005   0.00000  Uiso   1.00
H32    H     0.05195   0.04560   0.09345   0.00000  Uiso   1.00
H33    H     0.02369   0.06859   0.15016   0.00000  Uiso   1.00
H34    H     0.27540   0.24458   0.38732   0.00000  Uiso   1.00
H35    H     0.24291   0.18052   0.39532   0.00000  Uiso   1.00
H36    H     0.24817   0.23008   0.44462   0.00000  Uiso   1.00
H37    H     0.18603   0.11401   0.13755   0.00000  Uiso   1.00
H38    H     0.13587   0.09316   0.08758   0.00000  Uiso   1.00
H39    H     0.11147   0.11483   0.14542   0.00000  Uiso   1.00
H40    H     0.09820   0.01554   0.38437   0.00000  Uiso   1.00
H41    H     0.08414   0.04867   0.44149   0.00000  Uiso   1.00
H42    H     0.25079   0.05565   0.44706   0.00000  Uiso   1.00
H43    H     0.14333   0.00687   0.43741   0.00000  Uiso   1.00
H44    H     0.04951   0.30135   0.15962   0.00000  Uiso   1.00
H45    H     0.11670   0.28482   0.18859   0.00000  Uiso   1.00
H46    H     0.11180   0.01270   0.16430   0.00000  Uiso   1.00
H47    H     0.26601   0.04811   0.33730   0.00000  Uiso   1.00
H48    H     0.30407   0.32323   0.34366   0.00000  Uiso   1.00
H49    H     0.22743   0.32006   0.34122   0.00000  Uiso   1.00
H50    H     0.24382   0.20420   0.10020   0.00000  Uiso   1.00
H51    H     0.11605   0.15088   0.38554   0.00000  Uiso   1.00
H52    H     0.31936   0.22066   0.00427   0.00000  Uiso   1.00
H53    H     0.31753   0.04928   0.01640   0.00000  Uiso   1.00
H54    H     0.16226   0.12055   0.21911   0.00000  Uiso   1.00
H55    H     0.17122   0.21120   0.28352   0.00000  Uiso   1.00
H56    H     0.31642   0.02141   0.10977   0.00000  Uiso   1.00
N57    N     0.14695   0.15216   0.23739   0.00000  Uiso   1.00
N58    N     0.18638   0.18117   0.26260   0.00000  Uiso   1.00
O59    O     0.29719   0.24631   0.25309   0.00000  Uiso   1.00
O60    O     0.15515   0.07763   0.40673   0.00000  Uiso   1.00
O61    O     0.07460   0.00590   0.22946   0.00000  Uiso   1.00
O62    O     0.26214   0.32908   0.27531   0.00000  Uiso   1.00
O63    O     0.03614   0.08702   0.24690   0.00000  Uiso   1.00
O64    O     0.05822   0.23702   0.24501   0.00000  Uiso   1.00
O65    O     0.27512   0.09632   0.25498   0.00000  Uiso   1.00
O66    O     0.30328   0.17397   0.32247   0.00000  Uiso   1.00
O67    O     0.03005   0.15937   0.17753   0.00000  Uiso   1.00
O68    O     0.06431   0.16467   0.31439   0.00000  Uiso   1.00
O69    O     0.26902   0.16866   0.18561   0.00000  Uiso   1.00
O70    O     0.14611   0.17485   0.10937   0.00000  Uiso   1.00
Zn71   Zn    0.27033   0.17287   0.25539   0.00000  Uiso   1.00
Zn72   Zn    0.06300   0.16046   0.24460   0.00000  Uiso   1.00
C73    C     0.34818   0.26462   0.24841   0.00000  Uiso   1.00
C74    C     0.64495   0.15915   0.15896   0.00000  Uiso   1.00
C75    C     0.36592   0.17646   0.39461   0.00000  Uiso   1.00
C76    C     0.63290   0.14325   0.10701   0.00000  Uiso   1.00
C77    C     0.34643   0.20306   0.47810   0.00000  Uiso   1.00
C78    C     0.63448   0.08301   0.03499   0.00000  Uiso   1.00
C79    C     0.66160   0.19680   0.42844   0.00000  Uiso   1.00
C80    C     0.65161   0.09701   0.08406   0.00000  Uiso   1.00
C81    C     0.41870   0.16126   0.41151   0.00000  Uiso   1.00
C82    C     0.59170   0.16915   0.08260   0.00000  Uiso   1.00
C83    C     0.43416   0.16209   0.46086   0.00000  Uiso   1.00
C84    C     0.65208   0.06872   0.25172   0.00000  Uiso   1.00
C85    C     0.56310   0.14568   0.03984   0.00000  Uiso   1.00
C86    C     0.39927   0.18665   0.49428   0.00000  Uiso   1.00
C87    C     0.58898   0.10631   0.01307   0.00000  Uiso   1.00
C88    C     0.48544   0.14182   0.47736   0.00000  Uiso   1.00
C89    C     0.50745   0.15768   0.02536   0.00000  Uiso   1.00
C90    C     0.34636   0.05663   0.11124   0.00000  Uiso   1.00
C91    C     0.60382   0.21398   0.41300   0.00000  Uiso   1.00
C92    C     0.47799   0.12211   0.11970   0.00000  Uiso   1.00
C93    C     0.45214   0.03552   0.41867   0.00000  Uiso   1.00
C94    C     0.42124   0.31632   0.18357   0.00000  Uiso   1.00
C95    C     0.46977   0.17783   0.05966   0.00000  Uiso   1.00
C96    C     0.59907   0.00591   0.32656   0.00000  Uiso   1.00
C97    C     0.51333   0.10331   0.44944   0.00000  Uiso   1.00
C98    C     0.41697   0.19336   0.04357   0.00000  Uiso   1.00
C99    C     0.56479   0.08643   0.46762   0.00000  Uiso   1.00
C100   C     0.35557   0.31848   0.24383   0.00000  Uiso   1.00
C101   C     0.64606   0.01512   0.25731   0.00000  Uiso   1.00
C102   C     0.35474   0.17190   0.34138   0.00000  Uiso   1.00
H103   H     0.38918   0.20929   0.07005   0.00000  Uiso   1.00
H104   H     0.38529   0.04560   0.09345   0.00000  Uiso   1.00
H105   H     0.35702   0.06859   0.15016   0.00000  Uiso   1.00
H106   H     0.60873   0.24458   0.38732   0.00000  Uiso   1.00
H107   H     0.57624   0.18052   0.39532   0.00000  Uiso   1.00
H108   H     0.58150   0.23008   0.44462   0.00000  Uiso   1.00
H109   H     0.51936   0.11401   0.13755   0.00000  Uiso   1.00
H110   H     0.46920   0.09316   0.08758   0.00000  Uiso   1.00
H111   H     0.44481   0.11483   0.14542   0.00000  Uiso   1.00
H112   H     0.43154   0.01554   0.38437   0.00000  Uiso   1.00
H113   H     0.41747   0.04867   0.44149   0.00000  Uiso   1.00
H114   H     0.58413   0.05565   0.44706   0.00000  Uiso   1.00
H115   H     0.47666   0.00687   0.43741   0.00000  Uiso   1.00
H116   H     0.38284   0.30135   0.15962   0.00000  Uiso   1.00
H117   H     0.45004   0.28482   0.18859   0.00000  Uiso   1.00
H118   H     0.44513   0.01270   0.16430   0.00000  Uiso   1.00
H119   H     0.59934   0.04811   0.33730   0.00000  Uiso   1.00
H120   H     0.63740   0.32323   0.34366   0.00000  Uiso   1.00
H121   H     0.56076   0.32006   0.34122   0.00000  Uiso   1.00
H122   H     0.57716   0.20420   0.10020   0.00000  Uiso   1.00
H123   H     0.44938   0.15088   0.38554   0.00000  Uiso   1.00
H124   H     0.65269   0.22066   0.00427   0.00000  Uiso   1.00
H125   H     0.65086   0.04928   0.01640   0.00000  Uiso   1.00
H126   H     0.49559   0.12055   0.21911   0.00000  Uiso   1.00
H127   H     0.50455   0.21120   0.28352   0.00000  Uiso   1.00
H128   H     0.64975   0.02141   0.10977   0.00000  Uiso   1.00
N129   N     0.48029   0.15216   0.23739   0.00000  Uiso   1.00
N130   N     0.51971   0.18117   0.26260   0.00000  Uiso   1.00
O131   O     0.63052   0.24631   0.25309   0.00000  Uiso   1.00
O132   O     0.48848   0.07763   0.40673   0.00000  Uiso   1.00
O133   O     0.40794   0.00590   0.22946   0.00000  Uiso   1.00
O134   O     0.59547   0.32908   0.27531   0.00000  Uiso   1.00
O135   O     0.36948   0.08702   0.24690   0.00000  Uiso   1.00
O136   O     0.39155   0.23702   0.24501   0.00000  Uiso   1.00
O137   O     0.60845   0.09632   0.25498   0.00000  Uiso   1.00
O138   O     0.63662   0.17397   0.32247   0.00000  Uiso   1.00
O139   O     0.36338   0.15937   0.17753   0.00000  Uiso   1.00
O140   O     0.39764   0.16467   0.31439   0.00000  Uiso   1.00
O141   O     0.60236   0.16866   0.18561   0.00000  Uiso   1.00
O142   O     0.47944   0.17485   0.10937   0.00000  Uiso   1.00
Zn143  Zn    0.60366   0.17287   0.25539   0.00000  Uiso   1.00
Zn144  Zn    0.39634   0.16046   0.24460   0.00000  Uiso   1.00
C145   C     0.68152   0.26462   0.24841   0.00000  Uiso   1.00
C146   C     0.97829   0.15915   0.15896   0.00000  Uiso   1.00
C147   C     0.69926   0.17646   0.39461   0.00000  Uiso   1.00
C148   C     0.96623   0.14325   0.10701   0.00000  Uiso   1.00
C149   C     0.67976   0.20306   0.47810   0.00000  Uiso   1.00
C150   C     0.96782   0.08301   0.03499   0.00000  Uiso   1.00
C151   C     0.99493   0.19680   0.42844   0.00000  Uiso   1.00
C152   C     0.98494   0.09701   0.08406   0.00000  Uiso   1.00
C153   C     0.75203   0.16126   0.41151   0.00000  Uiso   1.00
C154   C     0.92504   0.16915   0.08260   0.00000  Uiso   1.00
C155   C     0.76749   0.16209   0.46086   0.00000  Uiso   1.00
C156   C     0.98541   0.06872   0.25172   0.00000  Uiso   1.00
C157   C     0.89643   0.14568   0.03984   0.00000  Uiso   1.00
C158   C     0.73260   0.18665   0.49428   0.00000  Uiso   1.00
C159   C     0.92231   0.10631   0.01307   0.00000  Uiso   1.00
C160   C     0.81877   0.14182   0.47736   0.00000  Uiso   1.00
C161   C     0.84079   0.15768   0.02536   0.00000  Uiso   1.00
C162   C     0.67969   0.05663   0.11124   0.00000  Uiso   1.00
C163   C     0.93715   0.21398   0.41300   0.00000  Uiso   1.00
C164   C     0.81132   0.12211   0.11970   0.00000  Uiso   1.00
C165   C     0.78547   0.03552   0.41867   0.00000  Uiso   1.00
C166   C     0.75457   0.31632   0.18357   0.00000  Uiso   1.00
C167   C     0.80310   0.17783   0.05966   0.00000  Uiso   1.00
C168   C     0.93240   0.00591   0.32656   0.00000  Uiso   1.00
C169   C     0.84666   0.10331   0.44944   0.00000  Uiso   1.00
C170   C     0.75031   0.19336   0.04357   0.00000  Uiso   1.00
C171   C     0.89812   0.08643   0.46762   0.00000  Uiso   1.00
C172   C     0.68890   0.31848   0.24383   0.00000  Uiso   1.00
C173   C     0.97939   0.01512   0.25731   0.00000  Uiso   1.00
C174   C     0.68807   0.17190   0.34138   0.00000  Uiso   1.00
H175   H     0.72251   0.20929   0.07005   0.00000  Uiso   1.00
H176   H     0.71862   0.04560   0.09345   0.00000  Uiso   1.00
H177   H     0.69035   0.06859   0.15016   0.00000  Uiso   1.00
H178   H     0.94206   0.24458   0.38732   0.00000  Uiso   1.00
H179   H     0.90958   0.18052   0.39532   0.00000  Uiso   1.00
H180   H     0.91483   0.23008   0.44462   0.00000  Uiso   1.00
H181   H     0.85270   0.11401   0.13755   0.00000  Uiso   1.00
H182   H     0.80253   0.09316   0.08758   0.00000  Uiso   1.00
H183   H     0.77814   0.11483   0.14542   0.00000  Uiso   1.00
H184   H     0.76487   0.01554   0.38437   0.00000  Uiso   1.00
H185   H     0.75081   0.04867   0.44149   0.00000  Uiso   1.00
H186   H     0.91746   0.05565   0.44706   0.00000  Uiso   1.00
H187   H     0.80999   0.00687   0.43741   0.00000  Uiso   1.00
H188   H     0.71618   0.30135   0.15962   0.00000  Uiso   1.00
H189   H     0.78337   0.28482   0.18859   0.00000  Uiso   1.00
H190   H     0.77847   0.01270   0.16430   0.00000  Uiso   1.00
H191   H     0.93268   0.04811   0.33730   0.00000  Uiso   1.00
H192   H     0.97074   0.32323   0.34366   0.00000  Uiso   1.00
H193   H     0.89409   0.32006   0.34122   0.00000  Uiso   1.00
H194   H     0.91049   0.20420   0.10020   0.00000  Uiso   1.00
H195   H     0.78272   0.15088   0.38554   0.00000  Uiso   1.00
H196   H     0.98602   0.22066   0.00427   0.00000  Uiso   1.00
H197   H     0.98419   0.04928   0.01640   0.00000  Uiso   1.00
H198   H     0.82893   0.12055   0.21911   0.00000  Uiso   1.00
H199   H     0.83789   0.21120   0.28352   0.00000  Uiso   1.00
H200   H     0.98309   0.02141   0.10977   0.00000  Uiso   1.00
N201   N     0.81362   0.15216   0.23739   0.00000  Uiso   1.00
N202   N     0.85305   0.18117   0.26260   0.00000  Uiso   1.00
O203   O     0.96386   0.24631   0.25309   0.00000  Uiso   1.00
O204   O     0.82182   0.07763   0.40673   0.00000  Uiso   1.00
O205   O     0.74127   0.00590   0.22946   0.00000  Uiso   1.00
O206   O     0.92880   0.32908   0.27531   0.00000  Uiso   1.00
O207   O     0.70281   0.08702   0.24690   0.00000  Uiso   1.00
O208   O     0.72488   0.23702   0.24501   0.00000  Uiso   1.00
O209   O     0.94178   0.09632   0.25498   0.00000  Uiso   1.00
O210   O     0.96995   0.17397   0.32247   0.00000  Uiso   1.00
O211   O     0.69672   0.15937   0.17753   0.00000  Uiso   1.00
O212   O     0.73098   0.16467   0.31439   0.00000  Uiso   1.00
O213   O     0.93569   0.16866   0.18561   0.00000  Uiso   1.00
O214   O     0.81277   0.17485   0.10937   0.00000  Uiso   1.00
Zn215  Zn    0.93700   0.17287   0.25539   0.00000  Uiso   1.00
Zn216  Zn    0.72967   0.16046   0.24460   0.00000  Uiso   1.00
C217   C     0.01485   0.59795   0.24841   0.00000  Uiso   1.00
C218   C     0.31162   0.49248   0.15896   0.00000  Uiso   1.00
C219   C     0.03259   0.50979   0.39461   0.00000  Uiso   1.00
C220   C     0.29957   0.47658   0.10701   0.00000  Uiso   1.00
C221   C     0.01310   0.53639   0.47810   0.00000  Uiso   1.00
C222   C     0.30115   0.41634   0.03499   0.00000  Uiso   1.00
C223   C     0.32826   0.53014   0.42844   0.00000  Uiso   1.00
C224   C     0.31827   0.43034   0.08406   0.00000  Uiso   1.00
C225   C     0.08536   0.49459   0.41151   0.00000  Uiso   1.00
C226   C     0.25837   0.50248   0.08260   0.00000  Uiso   1.00
C227   C     0.10082   0.49543   0.46086   0.00000  Uiso   1.00
C228   C     0.31874   0.40205   0.25172   0.00000  Uiso   1.00
C229   C     0.22977   0.47901   0.03984   0.00000  Uiso   1.00
C230   C     0.06593   0.51998   0.49428   0.00000  Uiso   1.00
C231   C     0.25564   0.43964   0.01307   0.00000  Uiso   1.00
C232   C     0.15211   0.47515   0.47736   0.00000  Uiso   1.00
C233   C     0.17412   0.49102   0.02536   0.00000  Uiso   1.00
C234   C     0.01302   0.38997   0.11124   0.00000  Uiso   1.00
C235   C     0.27049   0.54732   0.41300   0.00000  Uiso   1.00
C236   C     0.14465   0.45545   0.11970   0.00000  Uiso   1.00
C237   C     0.11880   0.36885   0.41867   0.00000  Uiso   1.00
C238   C     0.08790   0.64965   0.18357   0.00000  Uiso   1.00
C239   C     0.13644   0.51116   0.05966   0.00000  Uiso   1.00
C240   C     0.26573   0.33924   0.32656   0.00000  Uiso   1.00
C241   C     0.17999   0.43664   0.44944   0.00000  Uiso   1.00
C242   C     0.08364   0.52669   0.04357   0.00000  Uiso   1.00
C243   C     0.23146   0.41976   0.46762   0.00000  Uiso   1.00
C244   C     0.02224   0.65181   0.24383   0.00000  Uiso   1.00
C245   C     0.31273   0.34846   0.25731   0.00000  Uiso   1.00
C246   C     0.02141   0.50524   0.34138   0.00000  Uiso   1.00
H247   H     0.05585   0.54262   0.07005   0.00000  Uiso   1.00
H248   H     0.05195   0.37894   0.09345   0.00000  Uiso   1.00
H249   H     0.02369   0.40192   0.15016   0.00000  Uiso   1.00
H250   H     0.27540   0.57792   0.38732   0.00000  Uiso   1.00
H251   H     0.24291   0.51385   0.39532   0.00000  Uiso   1.00
H252   H     0.24817   0.56342   0.44462   0.00000  Uiso   1.00
H253   H     0.18603   0.44735   0.13755   0.00000  Uiso   1.00
H254   H     0.13587   0.42650   0.08758   0.00000  Uiso   1.00
H255   H     0.11147   0.44816   0.14542   0.00000  Uiso   1.00
H256   H     0.09820   0.34887   0.38437   0.00000  Uiso   1.00
H257   H     0.08414   0.38201   0.44149   0.00000  Uiso   1.00
H258   H     0.25079   0.38898   0.44706   0.00000  Uiso   1.00
H259   H     0.14333   0.34020   0.43741   0.00000  Uiso   1.00
H260   H     0.04951   0.63468   0.15962   0.00000  Uiso   1.00
H261   H     0.11670   0.61816   0.18859   0.00000  Uiso   1.00
H262   H     0.11180   0.34604   0.16430   0.00000  Uiso   1.00
H263   H     0.26601   0.38144   0.33730   0.00000  Uiso   1.00
H264   H     0.30407   0.65657   0.34366   0.00000  Uiso   1.00
H265   H     0.22743   0.65340   0.34122   0.00000  Uiso   1.00
H266   H     0.24382   0.53753   0.10020   0.00000  Uiso   1.00
H267   H     0.11605   0.48421   0.38554   0.00000  Uiso   1.00
H268   H     0.31936   0.55399   0.00427   0.00000  Uiso   1.00
H269   H     0.31753   0.38262   0.01640   0.00000  Uiso   1.00
H270   H     0.16226   0.45389   0.21911   0.00000  Uiso   1.00
H271   H     0.17122   0.54453   0.28352   0.00000  Uiso   1.00
H272   H     0.31642   0.35475   0.10977   0.00000  Uiso   1.00
N273   N     0.14695   0.48550   0.23739   0.00000  Uiso   1.00
N274   N     0.18638   0.51450   0.26260   0.00000  Uiso   1.00
O275   O     0.29719   0.57964   0.25309   0.00000  Uiso   1.00
O276   O     0.15515   0.41097   0.40673   0.00000  Uiso   1.00
O277   O     0.07460   0.33923   0.22946   0.00000  Uiso   1.00
O278   O     0.26214   0.66241   0.27531   0.00000  Uiso   1.00
O279   O     0.03614   0.42036   0.24690   0.00000  Uiso   1.00
O280   O     0.05822   0.57035   0.24501   0.00000  Uiso   1.00
O281   O     0.27512   0.42965   0.25498   0.00000  Uiso   1.00
O282   O     0.30328   0.50730   0.32247   0.00000  Uiso   1.00
O283   O     0.03005   0.49270   0.17753   0.00000  Uiso   1.00
O284   O     0.06431   0.49801   0.31439   0.00000  Uiso   1.00
O285   O     0.26902   0.50199   0.18561   0.00000  Uiso   1.00
O286   O     0.14611   0.50818   0.10937   0.00000  Uiso   1.00
Zn287  Zn    0.27033   0.50621   0.25539   0.00000  Uiso   1.00
Zn288  Zn    0.06300   0.49379   0.24460   0.00000  Uiso   1.00
C289   C     0.34818   0.59795   0.24841   0.00000  Uiso   1.00
C290   C     0.64495   0.49248   0.15896   0.00000  Uiso   1.00
C291   C     0.36592   0.50979   0.39461   0.00000  Uiso   1.00
C292   C     0.63290   0.47658   0.10701   0.00000  Uiso   1.00
C293   C     0.34643   0.53639   0.47810   0.00000  Uiso   1.00
C294   C     0.63448   0.41634   0.03499   0.00000  Uiso   1.00
C295   C     0.66160   0.53014   0.42844   0.00000  Uiso   1.00
C296   C     0.65161   0.43034   0.08406   0.00000  Uiso   1.00
C297   C     0.41870   0.49459   0.41151   0.00000  Uiso   1.00
C298   C     0.59170   0.50248   0.08260   0.00000  Uiso   1.00
C299   C     0.43416   0.49543   0.46086   0.00000  Uiso   1.00
C300   C     0.65208   0.40205   0.25172   0.00000  Uiso   1.00
C301   C     0.56310   0.47901   0.03984   0.00000  Uiso   1.00
C302   C     0.39927   0.51998   0.49428   0.00000  Uiso   1.00
C303   C     0.58898   0.43964   0.01307   0.00000  Uiso   1.00
C304   C     0.48544   0.47515   0.47736   0.00000  Uiso   1.00
C305   C     0.50745   0.49102   0.02536   0.00000  Uiso   1.00
C306   C     0.34636   0.38997   0.11124   0.00000  Uiso   1.00
C307   C     0.60382   0.54732   0.41300   0.00000  Uiso   1.00
C308   C     0.47799   0.45545   0.11970   0.00000  Uiso   1.00
C309   C     0.45214   0.36885   0.41867   0.00000  Uiso   1.00
C310   C     0.42124   0.64965   0.18357   0.00000  Uiso   1.00
C311   C     0.46977   0.51116   0.05966   0.00000  Uiso   1.00
C312   C     0.59907   0.33924   0.32656   0.00000  Uiso   1.00
C313   C     0.51333   0.43664   0.44944   0.00000  Uiso   1.00
C314   C     0.41697   0.52669   0.04357   0.00000  Uiso   1.00
C315   C     0.56479   0.41976   0.46762   0.00000  Uiso   1.00
C316   C     0.35557   0.65181   0.24383   0.00000  Uiso   1.00
C317   C     0.64606   0.34846   0.25731   0.00000  Uiso   1.00
C318   C     0.35474   0.50524   0.34138   0.00000  Uiso   1.00
H319   H     0.38918   0.54262   0.07005   0.00000  Uiso   1.00
H320   H     0.38529   0.37894   0.09345   0.00000  Uiso   1.00
H321   H     0.35702   0.40192   0.15016   0.00000  Uiso   1.00
H322   H     0.60873   0.57792   0.38732   0.00000  Uiso   1.00
H323   H     0.57624   0.51385   0.39532   0.00000  Uiso   1.00
H324   H     0.58150   0.56342   0.44462   0.00000  Uiso   1.00
H325   H     0.51936   0.44735   0.13755   0.00000  Uiso   1.00
H326   H     0.46920   0.42650   0.08758   0.00000  Uiso   1.00
H327   H     0.44481   0.44816   0.14542   0.00000  Uiso   1.00
H328   H     0.43154   0.34887   0.38437   0.00000  Uiso   1.00
H329   H     0.41747   0.38201   0.44149   0.00000  Uiso   1.00
H330   H     0.58413   0.38898   0.44706   0.00000  Uiso   1.00
H331   H     0.47666   0.34020   0.43741   0.00000  Uiso   1.00
H332   H     0.38284   0.63468   0.15962   0.00000  Uiso   1.00
H333   H     0.45004   0.61816   0.18859   0.00000  Uiso   1.00
H334   H     0.44513   0.34604   0.16430   0.00000  Uiso   1.00
H335   H     0.59934   0.38144   0.33730   0.00000  Uiso   1.00
H336   H     0.63740   0.65657   0.34366   0.00000  Uiso   1.00
H337   H     0.56076   0.65340   0.34122   0.00000  Uiso   1.00
H338   H     0.57716   0.53753   0.10020   0.00000  Uiso   1.00
H339   H     0.44938   0.48421   0.38554   0.00000  Uiso   1.00
H340   H     0.65269   0.55399   0.00427   0.00000  Uiso   1.00
H341   H     0.65086   0.38262   0.01640   0.00000  Uiso   1.00
H342   H     0.49559   0.45389   0.21911   0.00000  Uiso   1.00
H343   H     0.50455   0.54453   0.28352   0.00000  Uiso   1.00
H344   H     0.64975   0.35475   0.10977   0.00000  Uiso   1.00
N345   N     0.48029   0.48550   0.23739   0.00000  Uiso   1.00
N346   N     0.51971   0.51450   0.26260   0.00000  Uiso   1.00
O347   O     0.63052   0.57964   0.25309   0.00000  Uiso   1.00
O348   O     0.48848   0.41097   0.40673   0.00000  Uiso   1.00
O349   O     0.40794   0.33923   0.22946   0.00000  Uiso   1.00
O350   O     0.59547   0.66241   0.27531   0.00000  Uiso   1.00
O351   O     0.36948   0.42036   0.24690   0.00000  Uiso   1.00
O352   O     0.39155   0.57035   0.24501   0.00000  Uiso   1.00
O353   O     0.60845   0.42965   0.25498   0.00000  Uiso   1.00
O354   O     0.63662   0.50730   0.32247   0.00000  Uiso   1.00
O355   O     0.36338   0.49270   0.17753   0.00000  Uiso   1.00
O356   O     0.39764   0.49801   0.31439   0.00000  Uiso   1.00
O357   O     0.60236   0.50199   0.18561   0.00000  Uiso   1.00
O358   O     0.47944   0.50818   0.10937   0.00000  Uiso   1.00
Zn359  Zn    0.60366   0.50621   0.25539   0.00000  Uiso   1.00
Zn360  Zn    0.39634   0.49379   0.24460   0.00000  Uiso   1.00
C361   C     0.68152   0.59795   0.24841   0.00000  Uiso   1.00
C362   C     0.97829   0.49248   0.15896   0.00000  Uiso   1.00
C363   C     0.69926   0.50979   0.39461   0.00000  Uiso   1.00
C364   C     0.96623   0.47658   0.10701   0.00000  Uiso   1.00
C365   C     0.67976   0.53639   0.47810   0.00000  Uiso   1.00
C366   C     0.96782   0.41634   0.03499   0.00000  Uiso   1.00
C367   C     0.99493   0.53014   0.42844   0.00000  Uiso   1.00
C368   C     0.98494   0.43034   0.08406   0.00000  Uiso   1.00
C369   C     0.75203   0.49459   0.41151   0.00000  Uiso   1.00
C370   C     0.92504   0.50248   0.08260   0.00000  Uiso   1.00
C371   C     0.76749   0.49543   0.46086   0.00000  Uiso   1.00
C372   C     0.98541   0.40205   0.25172   0.00000  Uiso   1.00
C373   C     0.89643   0.47901   0.03984   0.00000  Uiso   1.00
C374   C     0.73260   0.51998   0.49428   0.00000  Uiso   1.00
C375   C     0.92231   0.43964   0.01307   0.00000  Uiso   1.00
C376   C     0.81877   0.47515   0.47736   0.00000  Uiso   1.00
C377   C     0.84079   0.49102   0.02536   0.00000  Uiso   1.00
C378   C     0.67969   0.38997   0.11124   0.00000  Uiso   1.00
C379   C     0.93715   0.54732   0.41300   0.00000  Uiso   1.00
C380   C     0.81132   0.45545   0.11970   0.00000  Uiso   1.00
C381   C     0.78547   0.36885   0.41867   0.00000  Uiso   1.00
C382   C     0.75457   0.64965   0.18357   0.00000  Uiso   1.00
C383   C     0.80310   0.51116   0.05966   0.00000  Uiso   1.00
C384   C     0.93240   0.33924   0.32656   0.00000  Uiso   1.00
C385   C     0.84666   0.43664   0.44944   0.00000  Uiso   1.00
C386   C     0.75031   0.52669   0.04357   0.00000  Uiso   1.00
C387   C     0.89812   0.41976   0.46762   0.00000  Uiso   1.00
C388   C     0.68890   0.65181   0.24383   0.00000  Uiso   1.00
C389   C     0.97939   0.34846   0.25731   0.00000  Uiso   1.00
C390   C     0.68807   0.50524   0.34138   0.00000  Uiso   1.00
H391   H     0.72251   0.54262   0.07005   0.00000  Uiso   1.00
H392   H     0.71862   0.37894   0.09345   0.00000  Uiso   1.00
H393   H     0.69035   0.40192   0.15016   0.00000  Uiso   1.00
H394   H     0.94206   0.57792   0.38732   0.00000  Uiso   1.00
H395   H     0.90958   0.51385   0.39532   0.00000  Uiso   1.00
H396   H     0.91483   0.56342   0.44462   0.00000  Uiso   1.00
H397   H     0.85270   0.44735   0.13755   0.00000  Uiso   1.00
H398   H     0.80253   0.42650   0.08758   0.00000  Uiso   1.00
H399   H     0.77814   0.44816   0.14542   0.00000  Uiso   1.00
H400   H     0.76487   0.34887   0.38437   0.00000  Uiso   1.00
H401   H     0.75081   0.38201   0.44149   0.00000  Uiso   1.00
H402   H     0.91746   0.38898   0.44706   0.00000  Uiso   1.00
H403   H     0.80999   0.34020   0.43741   0.00000  Uiso   1.00
H404   H     0.71618   0.63468   0.15962   0.00000  Uiso   1.00
H405   H     0.78337   0.61816   0.18859   0.00000  Uiso   1.00
H406   H     0.77847   0.34604   0.16430   0.00000  Uiso   1.00
H407   H     0.93268   0.38144   0.33730   0.00000  Uiso   1.00
H408   H     0.97074   0.65657   0.34366   0.00000  Uiso   1.00
H409   H     0.89409   0.65340   0.34122   0.00000  Uiso   1.00
H410   H     0.91049   0.53753   0.10020   0.00000  Uiso   1.00
H411   H     0.78272   0.48421   0.38554   0.00000  Uiso   1.00
H412   H     0.98602   0.55399   0.00427   0.00000  Uiso   1.00
H413   H     0.98419   0.38262   0.01640   0.00000  Uiso   1.00
H414   H     0.82893   0.45389   0.21911   0.00000  Uiso   1.00
H415   H     0.83789   0.54453   0.28352   0.00000  Uiso   1.00
H416   H     0.98309   0.35475   0.10977   0.00000  Uiso   1.00
N417   N     0.81362   0.48550   0.23739   0.00000  Uiso   1.00
N418   N     0.85305   0.51450   0.26260   0.00000  Uiso   1.00
O419   O     0.96386   0.57964   0.25309   0.00000  Uiso   1.00
O420   O     0.82182   0.41097   0.40673   0.00000  Uiso   1.00
O421   O     0.74127   0.33923   0.22946   0.00000  Uiso   1.00
O422   O     0.92880   0.66241   0.27531   0.00000  Uiso   1.00
O423   O     0.70281   0.42036   0.24690   0.00000  Uiso   1.00
O424   O     0.72488   0.57035   0.24501   0.00000  Uiso   1.00
O425   O     0.94178   0.42965   0.25498   0.00000  Uiso   1.00
O426   O     0.96995   0.50730   0.32247   0.00000  Uiso   1.00
O427   O     0.69672   0.49270   0.17753   0.00000  Uiso   1.00
O428   O     0.73098   0.49801   0.31439   0.00000  Uiso   1.00
O429   O     0.93569   0.50199   0.18561   0.00000  Uiso   1.00
O430   O     0.81277   0.50818   0.10937   0.00000  Uiso   1.00
Zn431  Zn    0.93700   0.50621   0.25539   0.00000  Uiso   1.00
Zn432  Zn    0.72967   0.49379   0.24460   0.00000  Uiso   1.00
C433   C     0.01485   0.93128   0.24841   0.00000  Uiso   1.00
C434   C     0.31162   0.82581   0.15896   0.00000  Uiso   1.00
C435   C     0.03259   0.84313   0.39461   0.00000  Uiso   1.00
C436   C     0.29957   0.80992   0.10701   0.00000  Uiso   1.00
C437   C     0.01310   0.86972   0.47810   0.00000  Uiso   1.00
C438   C     0.30115   0.74967   0.03499   0.00000  Uiso   1.00
C439   C     0.32826   0.86347   0.42844   0.00000  Uiso   1.00
C440   C     0.31827   0.76367   0.08406   0.00000  Uiso   1.00
C441   C     0.08536   0.82792   0.41151   0.00000  Uiso   1.00
C442   C     0.25837   0.83581   0.08260   0.00000  Uiso   1.00
C443   C     0.10082   0.82876   0.46086   0.00000  Uiso   1.00
C444   C     0.31874   0.73538   0.25172   0.00000  Uiso   1.00
C445   C     0.22977   0.81235   0.03984   0.00000  Uiso   1.00
C446   C     0.06593   0.85331   0.49428   0.00000  Uiso   1.00
C447   C     0.25564   0.77298   0.01307   0.00000  Uiso   1.00
C448   C     0.15211   0.80849   0.47736   0.00000  Uiso   1.00
C449   C     0.17412   0.82435   0.02536   0.00000  Uiso   1.00
C450   C     0.01302   0.72330   0.11124   0.00000  Uiso   1.00
C451   C     0.27049   0.88065   0.41300   0.00000  Uiso   1.00
C452   C     0.14465   0.78878   0.11970   0.00000  Uiso   1.00
C453   C     0.11880   0.70219   0.41867   0.00000  Uiso   1.00
C454   C     0.08790   0.98299   0.18357   0.00000  Uiso   1.00
C455   C     0.13644   0.84450   0.05966   0.00000  Uiso   1.00
C456   C     0.26573   0.67257   0.32656   0.00000  Uiso   1.00
C457   C     0.17999   0.76998   0.44944   0.00000  Uiso   1.00
C458   C     0.08364   0.86003   0.04357   0.00000  Uiso   1.00
C459   C     0.23146   0.75309   0.46762   0.00000  Uiso   1.00
C460   C     0.02224   0.98515   0.24383   0.00000  Uiso   1.00
C461   C     0.31273   0.68179   0.25731   0.00000  Uiso   1.00
C462   C     0.02141   0.83857   0.34138   0.00000  Uiso   1.00
H463   H     0.05585   0.87596   0.07005   0.00000  Uiso   1.00
H464   H     0.05195   0.71227   0.09345   0.00000  Uiso   1.00
H465   H     0.02369   0.73525   0.15016   0.00000  Uiso   1.00
H466   H     0.27540   0.91125   0.38732   0.00000  Uiso   1.00
H467   H     0.24291   0.84718   0.39532   0.00000  Uiso   1.00
H468   H     0.24817   0.89675   0.44462   0.00000  Uiso   1.00
H469   H     0.18603   0.78068   0.13755   0.00000  Uiso   1.00
H470   H     0.13587   0.75983   0.08758   0.00000  Uiso   1.00
H471   H     0.11147   0.78149   0.14542   0.00000  Uiso   1.00
H472   H     0.09820   0.68221   0.38437   0.00000  Uiso   1.00
H473   H     0.08414   0.71534   0.44149   0.00000  Uiso   1.00
H474   H     0.25079   0.72232   0.44706   0.00000  Uiso   1.00
H475   H     0.14333   0.67353   0.43741   0.00000  Uiso   1.00
H476   H     0.04951   0.96801   0.15962   0.00000  Uiso   1.00
H477   H     0.11670   0.95149   0.18859   0.00000  Uiso   1.00
H478   H     0.11180   0.67937   0.16430   0.00000  Uiso   1.00
H479   H     0.26601   0.71478   0.33730   0.00000  Uiso   1.00
H480   H     0.30407   0.98990   0.34366   0.00000  Uiso   1.00
H481   H     0.22743   0.98673   0.34122   0.00000  Uiso   1.00
H482   H     0.24382   0.87086   0.10020   0.00000  Uiso   1.00
H483   H     0.11605   0.81755   0.38554   0.00000  Uiso   1.00
H484   H     0.31936   0.88732   0.00427   0.00000  Uiso   1.00
H485   H     0.31753   0.71595   0.01640   0.00000  Uiso   1.00
H486   H     0.16226   0.78722   0.21911   0.00000  Uiso   1.00
H487   H     0.17122   0.87787   0.28352   0.00000  Uiso   1.00
H488   H     0.31642   0.68808   0.10977   0.00000  Uiso   1.00
N489   N     0.14695   0.81883   0.23739   0.00000  Uiso   1.00
N490   N     0.18638   0.84784   0.26260   0.00000  Uiso   1.00
O491   O     0.29719   0.91298   0.25309   0.00000  Uiso   1.00
O492   O     0.15515   0.74430   0.40673   0.00000  Uiso   1.00
O493   O     0.07460   0.67256   0.22946   0.00000  Uiso   1.00
O494   O     0.26214   0.99575   0.27531   0.00000  Uiso   1.00
O495   O     0.03614   0.75369   0.24690   0.00000  Uiso   1.00
O496   O     0.05822   0.90368   0.24501   0.00000  Uiso   1.00
O497   O     0.27512   0.76298   0.25498   0.00000  Uiso   1.00
O498   O     0.30328   0.84063   0.32247   0.00000  Uiso   1.00
O499   O     0.03005   0.82603   0.17753   0.00000  Uiso   1.00
O500   O     0.06431   0.83134   0.31439   0.00000  Uiso   1.00
O501   O     0.26902   0.83533   0.18561   0.00000  Uiso   1.00
O502   O     0.14611   0.84152   0.10937   0.00000  Uiso   1.00
Zn503  Zn    0.27033   0.83954   0.25539   0.00000  Uiso   1.00
Zn504  Zn    0.06300   0.82713   0.24460   0.00000  Uiso   1.00
C505   C     0.34818   0.93128   0.24841   0.00000  Uiso   1.00
C506   C     0.64495   0.82581   0.15896   0.00000  Uiso   1.00
C507   C     0.36592   0.84313   0.39461   0.00000  Uiso   1.00
C508   C     0.63290   0.80992   0.10701   0.00000  Uiso   1.00
C509   C     0.34643   0.86972   0.47810   0.00000  Uiso   1.00
C510   C     0.63448   0.74967   0.03499   0.00000  Uiso   1.00
C511   C     0.66160   0.86347   0.42844   0.00000  Uiso   1.00
C512   C     0.65161   0.76367   0.08406   0.00000  Uiso   1.00
C513   C     0.41870   0.82792   0.41151   0.00000  Uiso   1.00
C514   C     0.59170   0.83581   0.08260   0.00000  Uiso   1.00
C515   C     0.43416   0.82876   0.46086   0.00000  Uiso   1.00
C516   C     0.65208   0.73538   0.25172   0.00000  Uiso   1.00
C517   C     0.56310   0.81235   0.03984   0.00000  Uiso   1.00
C518   C     0.39927   0.85331   0.49428   0.00000  Uiso   1.00
C519   C     0.58898   0.77298   0.01307   0.00000  Uiso   1.00
C520   C     0.48544   0.80849   0.47736   0.00000  Uiso   1.00
C521   C     0.50745   0.82435   0.02536   0.00000  Uiso   1.00
C522   C     0.34636   0.72330   0.11124   0.00000  Uiso   1.00
C523   C     0.60382   0.88065   0.41300   0.00000  Uiso   1.00
C524   C     0.47799   0.78878   0.11970   0.00000  Uiso   1.00
C525   C     0.45214   0.70219   0.41867   0.00000  Uiso   1.00
C526   C     0.42124   0.98299   0.18357   0.00000  Uiso   1.00
C527   C     0.46977   0.84450   0.05966   0.00000  Uiso   1.00
C528   C     0.59907   0.67257   0.32656   0.00000  Uiso   1.00
C529   C     0.51333   0.76998   0.44944   0.00000  Uiso   1.00
C530   C     0.41697   0.86003   0.04357   0.00000  Uiso   1.00
C531   C     0.56479   0.75309   0.46762   0.00000  Uiso   1.00
C532   C     0.35557   0.98515   0.24383   0.00000  Uiso   1.00
C533   C     0.64606   0.68179   0.25731   0.00000  Uiso   1.00
C534   C     0.35474   0.83857   0.34138   0.00000  Uiso   1.00
H535   H     0.38918   0.87596   0.07005   0.00000  Uiso   1.00
H536   H     0.38529   0.71227   0.09345   0.00000  Uiso   1.00
H537   H     0.35702   0.73525   0.15016   0.00000  Uiso   1.00
H538   H     0.60873   0.91125   0.38732   0.00000  Uiso   1.00
H539   H     0.57624   0.84718   0.39532   0.00000  Uiso   1.00
H540   H     0.58150   0.89675   0.44462   0.00000  Uiso   1.00
H541   H     0.51936   0.78068   0.13755   0.00000  Uiso   1.00
H542   H     0.46920   0.75983   0.08758   0.00000  Uiso   1.00
H543   H     0.44481   0.78149   0.14542   0.00000  Uiso   1.00
H544   H     0.43154   0.68221   0.38437   0.00000  Uiso   1.00
H545   H     0.41747   0.71534   0.44149   0.00000  Uiso   1.00
H546   H     0.58413   0.72232   0.44706   0.00000  Uiso   1.00
H547   H     0.47666   0.67353   0.43741   0.00000  Uiso   1.00
H548   H     0.38284   0.96801   0.15962   0.00000  Uiso   1.00
H549   H     0.45004   0.95149   0.18859   0.00000  Uiso   1.00
H550   H     0.44513   0.67937   0.16430   0.00000  Uiso   1.00
H551   H     0.59934   0.71478   0.33730   0.00000  Uiso   1.00
H552   H     0.63740   0.98990   0.34366   0.00000  Uiso   1.00
H553   H     0.56076   0.98673   0.34122   0.00000  Uiso   1.00
H554   H     0.57716   0.87086   0.10020   0.00000  Uiso   1.00
H555   H     0.44938   0.81755   0.38554   0.00000  Uiso   1.00
H556   H     0.65269   0.88732   0.00427   0.00000  Uiso   1.00
H557   H     0.65086   0.71595   0.01640   0.00000  Uiso   1.00
H558   H     0.49559   0.78722   0.21911   0.00000  Uiso   1.00
H559   H     0.50455   0.87787   0.28352   0.00000  Uiso   1.00
H560   H     0.64975   0.68808   0.10977   0.00000  Uiso   1.00
N561   N     0.48029   0.81883   0.23739   0.00000  Uiso   1.00
N562   N     0.51971   0.84784   0.26260   0.00000  Uiso   1.00
O563   O     0.63052   0.91298   0.25309   0.00000  Uiso   1.00
O564   O     0.48848   0.74430   0.40673   0.00000  Uiso   1.00
O565   O     0.40794   0.67256   0.22946   0.00000  Uiso   1.00
O566   O     0.59547   0.99575   0.27531   0.00000  Uiso   1.00
O567   O     0.36948   0.75369   0.24690   0.00000  Uiso   1.00
O568   O     0.39155   0.90368   0.24501   0.00000  Uiso   1.00
O569   O     0.60845   0.76298   0.25498   0.00000  Uiso   1.00
O570   O     0.63662   0.84063   0.32247   0.00000  Uiso   1.00
O571   O     0.36338   0.82603   0.17753   0.00000  Uiso   1.00
O572   O     0.39764   0.83134   0.31439   0.00000  Uiso   1.00
O573   O     0.60236   0.83533   0.18561   0.00000  Uiso   1.00
O574   O     0.47944   0.84152   0.10937   0.00000  Uiso   1.00
Zn575  Zn    0.60366   0.83954   0.25539   0.00000  Uiso   1.00
Zn576  Zn    0.39634   0.82713   0.24460   0.00000  Uiso   1.00
C577   C     0.68152   0.93128   0.24841   0.00000  Uiso   1.00
C578   C     0.97829   0.82581   0.15896   0.00000  Uiso   1.00
C579   C     0.69926   0.84313   0.39461   0.00000  Uiso   1.00
C580   C     0.96623   0.80992   0.10701   0.00000  Uiso   1.00
C581   C     0.67976   0.86972   0.47810   0.00000  Uiso   1.00
C582   C     0.96782   0.74967   0.03499   0.00000  Uiso   1.00
C583   C     0.99493   0.86347   0.42844   0.00000  Uiso   1.00
C584   C     0.98494   0.76367   0.08406   0.00000  Uiso   1.00
C585   C     0.75203   0.82792   0.41151   0.00000  Uiso   1.00
C586   C     0.92504   0.83581   0.08260   0.00000  Uiso   1.00
C587   C     0.76749   0.82876   0.46086   0.00000  Uiso   1.00
C588   C     0.98541   0.73538   0.25172   0.00000  Uiso   1.00
C589   C     0.89643   0.81235   0.03984   0.00000  Uiso   1.00
C590   C     0.73260   0.85331   0.49428   0.00000  Uiso   1.00
C591   C     0.92231   0.77298   0.01307   0.00000  Uiso   1.00
C592   C     0.81877   0.80849   0.47736   0.00000  Uiso   1.00
C593   C     0.84079   0.82435   0.02536   0.00000  Uiso   1.00
C594   C     0.67969   0.72330   0.11124   0.00000  Uiso   1.00
C595   C     0.93715   0.88065   0.41300   0.00000  Uiso   1.00
C596   C     0.81132   0.78878   0.11970   0.00000  Uiso   1.00
C597   C     0.78547   0.70219   0.41867   0.00000  Uiso   1.00
C598   C     0.75457   0.98299   0.18357   0.00000  Uiso   1.00
C599   C     0.80310   0.84450   0.05966   0.00000  Uiso   1.00
C600   C     0.93240   0.67257   0.32656   0.00000  Uiso   1.00
C601   C     0.84666   0.76998   0.44944   0.00000  Uiso   1.00
C602   C     0.75031   0.86003   0.04357   0.00000  Uiso   1.00
C603   C     0.89812   0.75309   0.46762   0.00000  Uiso   1.00
C604   C     0.68890   0.98515   0.24383   0.00000  Uiso   1.00
C605   C     0.97939   0.68179   0.25731   0.00000  Uiso   1.00
C606   C     0.68807   0.83857   0.34138   0.00000  Uiso   1.00
H607   H     0.72251   0.87596   0.07005   0.00000  Uiso   1.00
H608   H     0.71862   0.71227   0.09345   0.00000  Uiso   1.00
H609   H     0.69035   0.73525   0.15016   0.00000  Uiso   1.00
H610   H     0.94206   0.91125   0.38732   0.00000  Uiso   1.00
H611   H     0.90958   0.84718   0.39532   0.00000  Uiso   1.00
H612   H     0.91483   0.89675   0.44462   0.00000  Uiso   1.00
H613   H     0.85270   0.78068   0.13755   0.00000  Uiso   1.00
H614   H     0.80253   0.75983   0.08758   0.00000  Uiso   1.00
H615   H     0.77814   0.78149   0.14542   0.00000  Uiso   1.00
H616   H     0.76487   0.68221   0.38437   0.00000  Uiso   1.00
H617   H     0.75081   0.71534   0.44149   0.00000  Uiso   1.00
H618   H     0.91746   0.72232   0.44706   0.00000  Uiso   1.00
H619   H     0.80999   0.67353   0.43741   0.00000  Uiso   1.00
H620   H     0.71618   0.96801   0.15962   0.00000  Uiso   1.00
H621   H     0.78337   0.95149   0.18859   0.00000  Uiso   1.00
H622   H     0.77847   0.67937   0.16430   0.00000  Uiso   1.00
H623   H     0.93268   0.71478   0.33730   0.00000  Uiso   1.00
H624   H     0.97074   0.98990   0.34366   0.00000  Uiso   1.00
H625   H     0.89409   0.98673   0.34122   0.00000  Uiso   1.00
H626   H     0.91049   0.87086   0.10020   0.00000  Uiso   1.00
H627   H     0.78272   0.81755   0.38554   0.00000  Uiso   1.00
H628   H     0.98602   0.88732   0.00427   0.00000  Uiso   1.00
H629   H     0.98419   0.71595   0.01640   0.00000  Uiso   1.00
H630   H     0.82893   0.78722   0.21911   0.00000  Uiso   1.00
H631   H     0.83789   0.87787   0.28352   0.00000  Uiso   1.00
H632   H     0.98309   0.68808   0.10977   0.00000  Uiso   1.00
N633   N     0.81362   0.81883   0.23739   0.00000  Uiso   1.00
N634   N     0.85305   0.84784   0.26260   0.00000  Uiso   1.00
O635   O     0.96386   0.91298   0.25309   0.00000  Uiso   1.00
O636   O     0.82182   0.74430   0.40673   0.00000  Uiso   1.00
O637   O     0.74127   0.67256   0.22946   0.00000  Uiso   1.00
O638   O     0.92880   0.99575   0.27531   0.00000  Uiso   1.00
O639   O     0.70281   0.75369   0.24690   0.00000  Uiso   1.00
O640   O     0.72488   0.90368   0.24501   0.00000  Uiso   1.00
O641   O     0.94178   0.76298   0.25498   0.00000  Uiso   1.00
O642   O     0.96995   0.84063   0.32247   0.00000  Uiso   1.00
O643   O     0.69672   0.82603   0.17753   0.00000  Uiso   1.00
O644   O     0.73098   0.83134   0.31439   0.00000  Uiso   1.00
O645   O     0.93569   0.83533   0.18561   0.00000  Uiso   1.00
O646   O     0.81277   0.84152   0.10937   0.00000  Uiso   1.00
Zn647  Zn    0.93700   0.83954   0.25539   0.00000  Uiso   1.00
Zn648  Zn    0.72967   0.82713   0.24460   0.00000  Uiso   1.00
C649   C     0.01485   0.26462   0.74841   0.00000  Uiso   1.00
C650   C     0.31162   0.15915   0.65896   0.00000  Uiso   1.00
C651   C     0.03259   0.17646   0.89461   0.00000  Uiso   1.00
C652   C     0.29957   0.14325   0.60701   0.00000  Uiso   1.00
C653   C     0.01310   0.20306   0.97810   0.00000  Uiso   1.00
C654   C     0.30115   0.08301   0.53499   0.00000  Uiso   1.00
C655   C     0.32826   0.19680   0.92844   0.00000  Uiso   1.00
C656   C     0.31827   0.09701   0.58406   0.00000  Uiso   1.00
C657   C     0.08536   0.16126   0.91151   0.00000  Uiso   1.00
C658   C     0.25837   0.16915   0.58260   0.00000  Uiso   1.00
C659   C     0.10082   0.16209   0.96086   0.00000  Uiso   1.00
C660   C     0.31874   0.06872   0.75172   0.00000  Uiso   1.00
C661   C     0.22977   0.14568   0.53984   0.00000  Uiso   1.00
C662   C     0.06593   0.18665   0.99428   0.00000  Uiso   1.00
C663   C     0.25564   0.10631   0.51307   0.00000  Uiso   1.00
C664   C     0.15211   0.14182   0.97736   0.00000  Uiso   1.00
C665   C     0.17412   0.15768   0.52536   0.00000  Uiso   1.00
C666   C     0.01302   0.05663   0.61124   0.00000  Uiso   1.00
C667   C     0.27049   0.21398   0.91300   0.00000  Uiso   1.00
C668   C     0.14465   0.12211   0.61970   0.00000  Uiso   1.00
C669   C     0.11880   0.03552   0.91867   0.00000  Uiso   1.00
C670   C     0.08790   0.31632   0.68357   0.00000  Uiso   1.00
C671   C     0.13644   0.17783   0.55966   0.00000  Uiso   1.00
C672   C     0.26573   0.00591   0.82656   0.00000  Uiso   1.00
C673   C     0.17999   0.10331   0.94944   0.00000  Uiso   1.00
C674   C     0.08364   0.19336   0.54357   0.00000  Uiso   1.00
C675   C     0.23146   0.08643   0.96762   0.00000  Uiso   1.00
C676   C     0.02224   0.31848   0.74383   0.00000  Uiso   1.00
C677   C     0.31273   0.01512   0.75731   0.00000  Uiso   1.00
C678   C     0.02141   0.17190   0.84138   0.00000  Uiso   1.00
H679   H     0.05585   0.20929   0.57005   0.00000  Uiso   1.00
H680   H     0.05195   0.04560   0.59345   0.00000  Uiso   1.00
H681   H     0.02369   0.06859   0.65016   0.00000  Uiso   1.00
H682   H     0.27540   0.24458   0.88732   0.00000  Uiso   1.00
H683   H     0.24291   0.18052   0.89532   0.00000  Uiso   1.00
H684   H     0.24817   0.23008   0.94462   0.00000  Uiso   1.00
H685   H     0.18603   0.11401   0.63755   0.00000  Uiso   1.00
H686   H     0.13587   0.09316   0.58758   0.00000  Uiso   1.00
H687   H     0.11147   0.11483   0.64542   0.00000  Uiso   1.00
H688   H     0.09820   0.01554   0.88437   0.00000  Uiso   1.00
H689   H     0.08414   0.04867   0.94149   0.00000  Uiso   1.00
H690   H     0.25079   0.05565   0.94706   0.00000  Uiso   1.00
H691   H     0.14333   0.00687   0.93741   0.00000  Uiso   1.00
H692   H     0.04951   0.30135   0.65962   0.00000  Uiso   1.00
H693   H     0.11670   0.28482   0.68859   0.00000  Uiso   1.00
H694   H     0.11180   0.01270   0.66430   0.00000  Uiso   1.00
H695   H     0.26601   0.04811   0.83730   0.00000  Uiso   1.00
H696   H     0.30407   0.32323   0.84366   0.00000  Uiso   1.00
H697   H     0.22743   0.32006   0.84122   0.00000  Uiso   1.00
H698   H     0.24382   0.20420   0.60020   0.00000  Uiso   1.00
H699   H     0.11605   0.15088   0.88554   0.00000  Uiso   1.00
H700   H     0.31936   0.22066   0.50427   0.00000  Uiso   1.00
H701   H     0.31753   0.04928   0.51640   0.00000  Uiso   1.00
H702   H     0.16226   0.12055   0.71911   0.00000  Uiso   1.00
H703   H     0.17122   0.21120   0.78352   0.00000  Uiso   1.00
H704   H     0.31642   0.02141   0.60977   0.00000  Uiso   1.00
N705   N     0.14695   0.15216   0.73739   0.00000  Uiso   1.00
N706   N     0.18638   0.18117   0.76260   0.00000  Uiso   1.00
O707   O     0.29719   0.24631   0.75309   0.00000  Uiso   1.00
O708   O     0.15515   0.07763   0.90673   0.00000  Uiso   1.00
O709   O     0.07460   0.00590   0.72946   0.00000  Uiso   1.00
O710   O     0.26214   0.32908   0.77531   0.00000  Uiso   1.00
O711   O     0.03614   0.08702   0.74690   0.00000  Uiso   1.00
O712   O     0.05822   0.23702   0.74501   0.00000  Uiso   1.00
O713   O     0.27512   0.09632   0.75498   0.00000  Uiso   1.00
O714   O     0.30328   0.17397   0.82247   0.00000  Uiso   1.00
O715   O     0.03005   0.15937   0.67753   0.00000  Uiso   1.00
O716   O     0.06431   0.16467   0.81439   0.00000  Uiso   1.00
O717   O     0.26902   0.16866   0.68561   0.00000  Uiso   1.00
O718   O     0.14611   0.17485   0.60937   0.00000  Uiso   1.00
Zn719  Zn    0.27033   0.17287   0.75539   0.00000  Uiso   1.00
Zn720  Zn    0.06300   0.16046   0.74460   0.00000  Uiso   1.00
C721   C     0.34818   0.26462   0.74841   0.00000  Uiso   1.00
C722   C     0.64495   0.15915   0.65896   0.00000  Uiso   1.00
C723   C     0.36592   0.17646   0.89461   0.00000  Uiso   1.00
C724   C     0.63290   0.14325   0.60701   0.00000  Uiso   1.00
C725   C     0.34643   0.20306   0.97810   0.00000  Uiso   1.00
C726   C     0.63448   0.08301   0.53499   0.00000  Uiso   1.00
C727   C     0.66160   0.19680   0.92844   0.00000  Uiso   1.00
C728   C     0.65161   0.09701   0.58406   0.00000  Uiso   1.00
C729   C     0.41870   0.16126   0.91151   0.00000  Uiso   1.00
C730   C     0.59170   0.16915   0.58260   0.00000  Uiso   1.00
C731   C     0.43416   0.16209   0.96086   0.00000  Uiso   1.00
C732   C     0.65208   0.06872   0.75172   0.00000  Uiso   1.00
C733   C     0.56310   0.14568   0.53984   0.00000  Uiso   1.00
C734   C     0.39927   0.18665   0.99428   0.00000  Uiso   1.00
C735   C     0.58898   0.10631   0.51307   0.00000  Uiso   1.00
C736   C     0.48544   0.14182   0.97736   0.00000  Uiso   1.00
C737   C     0.50745   0.15768   0.52536   0.00000  Uiso   1.00
C738   C     0.34636   0.05663   0.61124   0.00000  Uiso   1.00
C739   C     0.60382   0.21398   0.91300   0.00000  Uiso   1.00
C740   C     0.47799   0.12211   0.61970   0.00000  Uiso   1.00
C741   C     0.45214   0.03552   0.91867   0.00000  Uiso   1.00
C742   C     0.42124   0.31632   0.68357   0.00000  Uiso   1.00
C743   C     0.46977   0.17783   0.55966   0.00000  Uiso   1.00
C744   C     0.59907   0.00591   0.82656   0.00000  Uiso   1.00
C745   C     0.51333   0.10331   0.94944   0.00000  Uiso   1.00
C746   C     0.41697   0.19336   0.54357   0.00000  Uiso   1.00
C747   C     0.56479   0.08643   0.96762   0.00000  Uiso   1.00
C748   C     0.35557   0.31848   0.74383   0.00000  Uiso   1.00
C749   C     0.64606   0.01512   0.75731   0.00000  Uiso   1.00
C750   C     0.35474   0.17190   0.84138   0.00000  Uiso   1.00
H751   H     0.38918   0.20929   0.57005   0.00000  Uiso   1.00
H752   H     0.38529   0.04560   0.59345   0.00000  Uiso   1.00
H753   H     0.35702   0.06859   0.65016   0.00000  Uiso   1.00
H754   H     0.60873   0.24458   0.88732   0.00000  Uiso   1.00
H755   H     0.57624   0.18052   0.89532   0.00000  Uiso   1.00
H756   H     0.58150   0.23008   0.94462   0.00000  Uiso   1.00
H757   H     0.51936   0.11401   0.63755   0.00000  Uiso   1.00
H758   H     0.46920   0.09316   0.58758   0.00000  Uiso   1.00
H759   H     0.44481   0.11483   0.64542   0.00000  Uiso   1.00
H760   H     0.43154   0.01554   0.88437   0.00000  Uiso   1.00
H761   H     0.41747   0.04867   0.94149   0.00000  Uiso   1.00
H762   H     0.58413   0.05565   0.94706   0.00000  Uiso   1.00
H763   H     0.47666   0.00687   0.93741   0.00000  Uiso   1.00
H764   H     0.38284   0.30135   0.65962   0.00000  Uiso   1.00
H765   H     0.45004   0.28482   0.68859   0.00000  Uiso   1.00
H766   H     0.44513   0.01270   0.66430   0.00000  Uiso   1.00
H767   H     0.59934   0.04811   0.83730   0.00000  Uiso   1.00
H768   H     0.63740   0.32323   0.84366   0.00000  Uiso   1.00
H769   H     0.56076   0.32006   0.84122   0.00000  Uiso   1.00
H770   H     0.57716   0.20420   0.60020   0.00000  Uiso   1.00
H771   H     0.44938   0.15088   0.88554   0.00000  Uiso   1.00
H772   H     0.65269   0.22066   0.50427   0.00000  Uiso   1.00
H773   H     0.65086   0.04928   0.51640   0.00000  Uiso   1.00
H774   H     0.49559   0.12055   0.71911   0.00000  Uiso   1.00
H775   H     0.50455   0.21120   0.78352   0.00000  Uiso   1.00
H776   H     0.64975   0.02141   0.60977   0.00000  Uiso   1.00
N777   N     0.48029   0.15216   0.73739   0.00000  Uiso   1.00
N778   N     0.51971   0.18117   0.76260   0.00000  Uiso   1.00
O779   O     0.63052   0.24631   0.75309   0.00000  Uiso   1.00
O780   O     0.48848   0.07763   0.90673   0.00000  Uiso   1.00
O781   O     0.40794   0.00590   0.72946   0.00000  Uiso   1.00
O782   O     0.59547   0.32908   0.77531   0.00000  Uiso   1.00
O783   O     0.36948   0.08702   0.74690   0.00000  Uiso   1.00
O784   O     0.39155   0.23702   0.74501   0.00000  Uiso   1.00
O785   O     0.60845   0.09632   0.75498   0.00000  Uiso   1.00
O786   O     0.63662   0.17397   0.82247   0.00000  Uiso   1.00
O787   O     0.36338   0.15937   0.67753   0.00000  Uiso   1.00
O788   O     0.39764   0.16467   0.81439   0.00000  Uiso   1.00
O789   O     0.60236   0.16866   0.68561   0.00000  Uiso   1.00
O790   O     0.47944   0.17485   0.60937   0.00000  Uiso   1.00
Zn791  Zn    0.60366   0.17287   0.75539   0.00000  Uiso   1.00
Zn792  Zn    0.39634   0.16046   0.74460   0.00000  Uiso   1.00
C793   C     0.68152   0.26462   0.74841   0.00000  Uiso   1.00
C794   C     0.97829   0.15915   0.65896   0.00000  Uiso   1.00
C795   C     0.69926   0.17646   0.89461   0.00000  Uiso   1.00
C796   C     0.96623   0.14325   0.60701   0.00000  Uiso   1.00
C797   C     0.67976   0.20306   0.97810   0.00000  Uiso   1.00
C798   C     0.96782   0.08301   0.53499   0.00000  Uiso   1.00
C799   C     0.99493   0.19680   0.92844   0.00000  Uiso   1.00
C800   C     0.98494   0.09701   0.58406   0.00000  Uiso   1.00
C801   C     0.75203   0.16126   0.91151   0.00000  Uiso   1.00
C802   C     0.92504   0.16915   0.58260   0.00000  Uiso   1.00
C803   C     0.76749   0.16209   0.96086   0.00000  Uiso   1.00
C804   C     0.98541   0.06872   0.75172   0.00000  Uiso   1.00
C805   C     0.89643   0.14568   0.53984   0.00000  Uiso   1.00
C806   C     0.73260   0.18665   0.99428   0.00000  Uiso   1.00
C807   C     0.92231   0.10631   0.51307   0.00000  Uiso   1.00
C808   C     0.81877   0.14182   0.97736   0.00000  Uiso   1.00
C809   C     0.84079   0.15768   0.52536   0.00000  Uiso   1.00
C810   C     0.67969   0.05663   0.61124   0.00000  Uiso   1.00
C811   C     0.93715   0.21398   0.91300   0.00000  Uiso   1.00
C812   C     0.81132   0.12211   0.61970   0.00000  Uiso   1.00
C813   C     0.78547   0.03552   0.91867   0.00000  Uiso   1.00
C814   C     0.75457   0.31632   0.68357   0.00000  Uiso   1.00
C815   C     0.80310   0.17783   0.55966   0.00000  Uiso   1.00
C816   C     0.93240   0.00591   0.82656   0.00000  Uiso   1.00
C817   C     0.84666   0.10331   0.94944   0.00000  Uiso   1.00
C818   C     0.75031   0.19336   0.54357   0.00000  Uiso   1.00
C819   C     0.89812   0.08643   0.96762   0.00000  Uiso   1.00
C820   C     0.68890   0.31848   0.74383   0.00000  Uiso   1.00
C821   C     0.97939   0.01512   0.75731   0.00000  Uiso   1.00
C822   C     0.68807   0.17190   0.84138   0.00000  Uiso   1.00
H823   H     0.72251   0.20929   0.57005   0.00000  Uiso   1.00
H824   H     0.71862   0.04560   0.59345   0.00000  Uiso   1.00
H825   H     0.69035   0.06859   0.65016   0.00000  Uiso   1.00
H826   H     0.94206   0.24458   0.88732   0.00000  Uiso   1.00
H827   H     0.90958   0.18052   0.89532   0.00000  Uiso   1.00
H828   H     0.91483   0.23008   0.94462   0.00000  Uiso   1.00
H829   H     0.85270   0.11401   0.63755   0.00000  Uiso   1.00
H830   H     0.80253   0.09316   0.58758   0.00000  Uiso   1.00
H831   H     0.77814   0.11483   0.64542   0.00000  Uiso   1.00
H832   H     0.76487   0.01554   0.88437   0.00000  Uiso   1.00
H833   H     0.75081   0.04867   0.94149   0.00000  Uiso   1.00
H834   H     0.91746   0.05565   0.94706   0.00000  Uiso   1.00
H835   H     0.80999   0.00687   0.93741   0.00000  Uiso   1.00
H836   H     0.71618   0.30135   0.65962   0.00000  Uiso   1.00
H837   H     0.78337   0.28482   0.68859   0.00000  Uiso   1.00
H838   H     0.77847   0.01270   0.66430   0.00000  Uiso   1.00
H839   H     0.93268   0.04811   0.83730   0.00000  Uiso   1.00
H840   H     0.97074   0.32323   0.84366   0.00000  Uiso   1.00
H841   H     0.89409   0.32006   0.84122   0.00000  Uiso   1.00
H842   H     0.91049   0.20420   0.60020   0.00000  Uiso   1.00
H843   H     0.78272   0.15088   0.88554   0.00000  Uiso   1.00
H844   H     0.98602   0.22066   0.50427   0.00000  Uiso   1.00
H845   H     0.98419   0.04928   0.51640   0.00000  Uiso   1.00
H846   H     0.82893   0.12055   0.71911   0.00000  Uiso   1.00
H847   H     0.83789   0.21120   0.78352   0.00000  Uiso   1.00
H848   H     0.98309   0.02141   0.60977   0.00000  Uiso   1.00
N849   N     0.81362   0.15216   0.73739   0.00000  Uiso   1.00
N850   N     0.85305   0.18117   0.76260   0.00000  Uiso   1.00
O851   O     0.96386   0.24631   0.75309   0.00000  Uiso   1.00
O852   O     0.82182   0.07763   0.90673   0.00000  Uiso   1.00
O853   O     0.74127   0.00590   0.72946   0.00000  Uiso   1.00
O854   O     0.92880   0.32908   0.77531   0.00000  Uiso   1.00
O855   O     0.70281   0.08702   0.74690   0.00000  Uiso   1.00
O856   O     0.72488   0.23702   0.74501   0.00000  Uiso   1.00
O857   O     0.94178   0.09632   0.75498   0.00000  Uiso   1.00
O858   O     0.96995   0.17397   0.82247   0.00000  Uiso   1.00
O859   O     0.69672   0.15937   0.67753   0.00000  Uiso   1.00
O860   O     0.73098   0.16467   0.81439   0.00000  Uiso   1.00
O861   O     0.93569   0.16866   0.68561   0.00000  Uiso   1.00
O862   O     0.81277   0.17485   0.60937   0.00000  Uiso   1.00
Zn863  Zn    0.93700   0.17287   0.75539   0.00000  Uiso   1.00
Zn864  Zn    0.72967   0.16046   0.74460   0.00000  Uiso   1.00
C865   C     0.01485   0.59795   0.74841   0.00000  Uiso   1.00
C866   C     0.31162   0.49248   0.65896   0.00000  Uiso   1.00
C867   C     0.03259   0.50979   0.89461   0.00000  Uiso   1.00
C868   C     0.29957   0.47658   0.60701   0.00000  Uiso   1.00
C869   C     0.01310   0.53639   0.97810   0.00000  Uiso   1.00
C870   C     0.30115   0.41634   0.53499   0.00000  Uiso   1.00
C871   C     0.32826   0.53014   0.92844   0.00000  Uiso   1.00
C872   C     0.31827   0.43034   0.58406   0.00000  Uiso   1.00
C873   C     0.08536   0.49459   0.91151   0.00000  Uiso   1.00
C874   C     0.25837   0.50248   0.58260   0.00000  Uiso   1.00
C875   C     0.10082   0.49543   0.96086   0.00000  Uiso   1.00
C876   C     0.31874   0.40205   0.75172   0.00000  Uiso   1.00
C877   C     0.22977   0.47901   0.53984   0.00000  Uiso   1.00
C878   C     0.06593   0.51998   0.99428   0.00000  Uiso   1.00
C879   C     0.25564   0.43964   0.51307   0.00000  Uiso   1.00
C880   C     0.15211   0.47515   0.97736   0.00000  Uiso   1.00
C881   C     0.17412   0.49102   0.52536   0.00000  Uiso   1.00
C882   C     0.01302   0.38997   0.61124   0.00000  Uiso   1.00
C883   C     0.27049   0.54732   0.91300   0.00000  Uiso   1.00
C884   C     0.14465   0.45545   0.61970   0.00000  Uiso   1.00
C885   C     0.11880   0.36885   0.91867   0.00000  Uiso   1.00
C886   C     0.08790   0.64965   0.68357   0.00000  Uiso   1.00
C887   C     0.13644   0.51116   0.55966   0.00000  Uiso   1.00
C888   C     0.26573   0.33924   0.82656   0.00000  Uiso   1.00
C889   C     0.17999   0.43664   0.94944   0.00000  Uiso   1.00
C890   C     0.08364   0.52669   0.54357   0.00000  Uiso   1.00
C891   C     0.23146   0.41976   0.96762   0.00000  Uiso   1.00
C892   C     0.02224   0.65181   0.74383   0.00000  Uiso   1.00
C893   C     0.31273   0.34846   0.75731   0.00000  Uiso   1.00
C894   C     0.02141   0.50524   0.84138   0.00000  Uiso   1.00
H895   H     0.05585   0.54262   0.57005   0.00000  Uiso   1.00
H896   H     0.05195   0.37894   0.59345   0.00000  Uiso   1.00
H897   H     0.02369   0.40192   0.65016   0.00000  Uiso   1.00
H898   H     0.27540   0.57792   0.88732   0.00000  Uiso   1.00
H899   H     0.24291   0.51385   0.89532   0.00000  Uiso   1.00
H900   H     0.24817   0.56342   0.94462   0.00000  Uiso   1.00
H901   H     0.18603   0.44735   0.63755   0.00000  Uiso   1.00
H902   H     0.13587   0.42650   0.58758   0.00000  Uiso   1.00
H903   H     0.11147   0.44816   0.64542   0.00000  Uiso   1.00
H904   H     0.09820   0.34887   0.88437   0.00000  Uiso   1.00
H905   H     0.08414   0.38201   0.94149   0.00000  Uiso   1.00
H906   H     0.25079   0.38898   0.94706   0.00000  Uiso   1.00
H907   H     0.14333   0.34020   0.93741   0.00000  Uiso   1.00
H908   H     0.04951   0.63468   0.65962   0.00000  Uiso   1.00
H909   H     0.11670   0.61816   0.68859   0.00000  Uiso   1.00
H910   H     0.11180   0.34604   0.66430   0.00000  Uiso   1.00
H911   H     0.26601   0.38144   0.83730   0.00000  Uiso   1.00
H912   H     0.30407   0.65657   0.84366   0.00000  Uiso   1.00
H913   H     0.22743   0.65340   0.84122   0.00000  Uiso   1.00
H914   H     0.24382   0.53753   0.60020   0.00000  Uiso   1.00
H915   H     0.11605   0.48421   0.88554   0.00000  Uiso   1.00
H916   H     0.31936   0.55399   0.50427   0.00000  Uiso   1.00
H917   H     0.31753   0.38262   0.51640   0.00000  Uiso   1.00
H918   H     0.16226   0.45389   0.71911   0.00000  Uiso   1.00
H919   H     0.17122   0.54453   0.78352   0.00000  Uiso   1.00
H920   H     0.31642   0.35475   0.60977   0.00000  Uiso   1.00
N921   N     0.14695   0.48550   0.73739   0.00000  Uiso   1.00
N922   N     0.18638   0.51450   0.76260   0.00000  Uiso   1.00
O923   O     0.29719   0.57964   0.75309   0.00000  Uiso   1.00
O924   O     0.15515   0.41097   0.90673   0.00000  Uiso   1.00
O925   O     0.07460   0.33923   0.72946   0.00000  Uiso   1.00
O926   O     0.26214   0.66241   0.77531   0.00000  Uiso   1.00
O927   O     0.03614   0.42036   0.74690   0.00000  Uiso   1.00
O928   O     0.05822   0.57035   0.74501   0.00000  Uiso   1.00
O929   O     0.27512   0.42965   0.75498   0.00000  Uiso   1.00
O930   O     0.30328   0.50730   0.82247   0.00000  Uiso   1.00
O931   O     0.03005   0.49270   0.67753   0.00000  Uiso   1.00
O932   O     0.06431   0.49801   0.81439   0.00000  Uiso   1.00
O933   O     0.26902   0.50199   0.68561   0.00000  Uiso   1.00
O934   O     0.14611   0.50818   0.60937   0.00000  Uiso   1.00
Zn935  Zn    0.27033   0.50621   0.75539   0.00000  Uiso   1.00
Zn936  Zn    0.06300   0.49379   0.74460   0.00000  Uiso   1.00
C937   C     0.34818   0.59795   0.74841   0.00000  Uiso   1.00
C938   C     0.64495   0.49248   0.65896   0.00000  Uiso   1.00
C939   C     0.36592   0.50979   0.89461   0.00000  Uiso   1.00
C940   C     0.63290   0.47658   0.60701   0.00000  Uiso   1.00
C941   C     0.34643   0.53639   0.97810   0.00000  Uiso   1.00
C942   C     0.63448   0.41634   0.53499   0.00000  Uiso   1.00
C943   C     0.66160   0.53014   0.92844   0.00000  Uiso   1.00
C944   C     0.65161   0.43034   0.58406   0.00000  Uiso   1.00
C945   C     0.41870   0.49459   0.91151   0.00000  Uiso   1.00
C946   C     0.59170   0.50248   0.58260   0.00000  Uiso   1.00
C947   C     0.43416   0.49543   0.96086   0.00000  Uiso   1.00
C948   C     0.65208   0.40205   0.75172   0.00000  Uiso   1.00
C949   C     0.56310   0.47901   0.53984   0.00000  Uiso   1.00
C950   C     0.39927   0.51998   0.99428   0.00000  Uiso   1.00
C951   C     0.58898   0.43964   0.51307   0.00000  Uiso   1.00
C952   C     0.48544   0.47515   0.97736   0.00000  Uiso   1.00
C953   C     0.50745   0.49102   0.52536   0.00000  Uiso   1.00
C954   C     0.34636   0.38997   0.61124   0.00000  Uiso   1.00
C955   C     0.60382   0.54732   0.91300   0.00000  Uiso   1.00
C956   C     0.47799   0.45545   0.61970   0.00000  Uiso   1.00
C957   C     0.45214   0.36885   0.91867   0.00000  Uiso   1.00
C958   C     0.42124   0.64965   0.68357   0.00000  Uiso   1.00
C959   C     0.46977   0.51116   0.55966   0.00000  Uiso   1.00
C960   C     0.59907   0.33924   0.82656   0.00000  Uiso   1.00
C961   C     0.51333   0.43664   0.94944   0.00000  Uiso   1.00
C962   C     0.41697   0.52669   0.54357   0.00000  Uiso   1.00
C963   C     0.56479   0.41976   0.96762   0.00000  Uiso   1.00
C964   C     0.35557   0.65181   0.74383   0.00000  Uiso   1.00
C965   C     0.64606   0.34846   0.75731   0.00000  Uiso   1.00
C966   C     0.35474   0.50524   0.84138   0.00000  Uiso   1.00
H967   H     0.38918   0.54262   0.57005   0.00000  Uiso   1.00
H968   H     0.38529   0.37894   0.59345   0.00000  Uiso   1.00
H969   H     0.35702   0.40192   0.65016   0.00000  Uiso   1.00
H970   H     0.60873   0.57792   0.88732   0.00000  Uiso   1.00
H971   H     0.57624   0.51385   0.89532   0.00000  Uiso   1.00
H972   H     0.58150   0.56342   0.94462   0.00000  Uiso   1.00
H973   H     0.51936   0.44735   0.63755   0.00000  Uiso   1.00
H974   H     0.46920   0.42650   0.58758   0.00000  Uiso   1.00
H975   H     0.44481   0.44816   0.64542   0.00000  Uiso   1.00
H976   H     0.43154   0.34887   0.88437   0.00000  Uiso   1.00
H977   H     0.41747   0.38201   0.94149   0.00000  Uiso   1.00
H978   H     0.58413   0.38898   0.94706   0.00000  Uiso   1.00
H979   H     0.47666   0.34020   0.93741   0.00000  Uiso   1.00
H980   H     0.38284   0.63468   0.65962   0.00000  Uiso   1.00
H981   H     0.45004   0.61816   0.68859   0.00000  Uiso   1.00
H982   H     0.44513   0.34604   0.66430   0.00000  Uiso   1.00
H983   H     0.59934   0.38144   0.83730   0.00000  Uiso   1.00
H984   H     0.63740   0.65657   0.84366   0.00000  Uiso   1.00
H985   H     0.56076   0.65340   0.84122   0.00000  Uiso   1.00
H986   H     0.57716   0.53753   0.60020   0.00000  Uiso   1.00
H987   H     0.44938   0.48421   0.88554   0.00000  Uiso   1.00
H988   H     0.65269   0.55399   0.50427   0.00000  Uiso   1.00
H989   H     0.65086   0.38262   0.51640   0.00000  Uiso   1.00
H990   H     0.49559   0.45389   0.71911   0.00000  Uiso   1.00
H991   H     0.50455   0.54453   0.78352   0.00000  Uiso   1.00
H992   H     0.64975   0.35475   0.60977   0.00000  Uiso   1.00
N993   N     0.48029   0.48550   0.73739   0.00000  Uiso   1.00
N994   N     0.51971   0.51450   0.76260   0.00000  Uiso   1.00
O995   O     0.63052   0.57964   0.75309   0.00000  Uiso   1.00
O996   O     0.48848   0.41097   0.90673   0.00000  Uiso   1.00
O997   O     0.40794   0.33923   0.72946   0.00000  Uiso   1.00
O998   O     0.59547   0.66241   0.77531   0.00000  Uiso   1.00
O999   O     0.36948   0.42036   0.74690   0.00000  Uiso   1.00
O1000  O     0.39155   0.57035   0.74501   0.00000  Uiso   1.00
O1001  O     0.60845   0.42965   0.75498   0.00000  Uiso   1.00
O1002  O     0.63662   0.50730   0.82247   0.00000  Uiso   1.00
O1003  O     0.36338   0.49270   0.67753   0.00000  Uiso   1.00
O1004  O     0.39764   0.49801   0.81439   0.00000  Uiso   1.00
O1005  O     0.60236   0.50199   0.68561   0.00000  Uiso   1.00
O1006  O     0.47944   0.50818   0.60937   0.00000  Uiso   1.00
Zn1007 Zn    0.60366   0.50621   0.75539   0.00000  Uiso   1.00
Zn1008 Zn    0.39634   0.49379   0.74460   0.00000  Uiso   1.00
C1009  C     0.68152   0.59795   0.74841   0.00000  Uiso   1.00
C1010  C     0.97829   0.49248   0.65896   0.00000  Uiso   1.00
C1011  C     0.69926   0.50979   0.89461   0.00000  Uiso   1.00
C1012  C     0.96623   0.47658   0.60701   0.00000  Uiso   1.00
C1013  C     0.67976   0.53639   0.97810   0.00000  Uiso   1.00
C1014  C     0.96782   0.41634   0.53499   0.00000  Uiso   1.00
C1015  C     0.99493   0.53014   0.92844   0.00000  Uiso   1.00
C1016  C     0.98494   0.43034   0.58406   0.00000  Uiso   1.00
C1017  C     0.75203   0.49459   0.91151   0.00000  Uiso   1.00
C1018  C     0.92504   0.50248   0.58260   0.00000  Uiso   1.00
C1019  C     0.76749   0.49543   0.96086   0.00000  Uiso   1.00
C1020  C     0.98541   0.40205   0.75172   0.00000  Uiso   1.00
C1021  C     0.89643   0.47901   0.53984   0.00000  Uiso   1.00
C1022  C     0.73260   0.51998   0.99428   0.00000  Uiso   1.00
C1023  C     0.92231   0.43964   0.51307   0.00000  Uiso   1.00
C1024  C     0.81877   0.47515   0.97736   0.00000  Uiso   1.00
C1025  C     0.84079   0.49102   0.52536   0.00000  Uiso   1.00
C1026  C     0.67969   0.38997   0.61124   0.00000  Uiso   1.00
C1027  C     0.93715   0.54732   0.91300   0.00000  Uiso   1.00
C1028  C     0.81132   0.45545   0.61970   0.00000  Uiso   1.00
C1029  C     0.78547   0.36885   0.91867   0.00000  Uiso   1.00
C1030  C     0.75457   0.64965   0.68357   0.00000  Uiso   1.00
C1031  C     0.80310   0.51116   0.55966   0.00000  Uiso   1.00
C1032  C     0.93240   0.33924   0.82656   0.00000  Uiso   1.00
C1033  C     0.84666   0.43664   0.94944   0.00000  Uiso   1.00
C1034  C     0.75031   0.52669   0.54357   0.00000  Uiso   1.00
C1035  C     0.89812   0.41976   0.96762   0.00000  Uiso   1.00
C1036  C     0.68890   0.65181   0.74383   0.00000  Uiso   1.00
C1037  C     0.97939   0.34846   0.75731   0.00000  Uiso   1.00
C1038  C     0.68807   0.50524   0.84138   0.00000  Uiso   1.00
H1039  H     0.72251   0.54262   0.57005   0.00000  Uiso   1.00
H1040  H     0.71862   0.37894   0.59345   0.00000  Uiso   1.00
H1041  H     0.69035   0.40192   0.65016   0.00000  Uiso   1.00
H1042  H     0.94206   0.57792   0.88732   0.00000  Uiso   1.00
H1043  H     0.90958   0.51385   0.89532   0.00000  Uiso   1.00
H1044  H     0.91483   0.56342   0.94462   0.00000  Uiso   1.00
H1045  H     0.85270   0.44735   0.63755   0.00000  Uiso   1.00
H1046  H     0.80253   0.42650   0.58758   0.00000  Uiso   1.00
H1047  H     0.77814   0.44816   0.64542   0.00000  Uiso   1.00
H1048  H     0.76487   0.34887   0.88437   0.00000  Uiso   1.00
H1049  H     0.75081   0.38201   0.94149   0.00000  Uiso   1.00
H1050  H     0.91746   0.38898   0.94706   0.00000  Uiso   1.00
H1051  H     0.80999   0.34020   0.93741   0.00000  Uiso   1.00
H1052  H     0.71618   0.63468   0.65962   0.00000  Uiso   1.00
H1053  H     0.78337   0.61816   0.68859   0.00000  Uiso   1.00
H1054  H     0.77847   0.34604   0.66430   0.00000  Uiso   1.00
H1055  H     0.93268   0.38144   0.83730   0.00000  Uiso   1.00
H1056  H     0.97074   0.65657   0.84366   0.00000  Uiso   1.00
H1057  H     0.89409   0.65340   0.84122   0.00000  Uiso   1.00
H1058  H     0.91049   0.53753   0.60020   0.00000  Uiso   1.00
H1059  H     0.78272   0.48421   0.88554   0.00000  Uiso   1.00
H1060  H     0.98602   0.55399   0.50427   0.00000  Uiso   1.00
H1061  H     0.98419   0.38262   0.51640   0.00000  Uiso   1.00
H1062  H     0.82893   0.45389   0.71911   0.00000  Uiso   1.00
H1063  H     0.83789   0.54453   0.78352   0.00000  Uiso   1.00
H1064  H     0.98309   0.35475   0.60977   0.00000  Uiso   1.00
N1065  N     0.81362   0.48550   0.73739   0.00000  Uiso   1.00
N1066  N     0.85305   0.51450   0.76260   0.00000  Uiso   1.00
O1067  O     0.96386   0.57964   0.75309   0.00000  Uiso   1.00
O1068  O     0.82182   0.41097   0.90673   0.00000  Uiso   1.00
O1069  O     0.74127   0.33923   0.72946   0.00000  Uiso   1.00
O1070  O     0.92880   0.66241   0.77531   0.00000  Uiso   1.00
O1071  O     0.70281   0.42036   0.74690   0.00000  Uiso   1.00
O1072  O     0.72488   0.57035   0.74501   0.00000  Uiso   1.00
O1073  O     0.94178   0.42965   0.75498   0.00000  Uiso   1.00
O1074  O     0.96995   0.50730   0.82247   0.00000  Uiso   1.00
O1075  O     0.69672   0.49270   0.67753   0.00000  Uiso   1.00
O1076  O     0.73098   0.49801   0.81439   0.00000  Uiso   1.00
O1077  O     0.93569   0.50199   0.68561   0.00000  Uiso   1.00
O1078  O     0.81277   0.50818   0.60937   0.00000  Uiso   1.00
Zn1079 Zn    0.93700   0.50621   0.75539   0.00000  Uiso   1.00
Zn1080 Zn    0.72967   0.49379   0.74460   0.00000  Uiso   1.00
C1081  C     0.01485   0.93128   0.74841   0.00000  Uiso   1.00
C1082  C     0.31162   0.82581   0.65896   0.00000  Uiso   1.00
C1083  C     0.03259   0.84313   0.89461   0.00000  Uiso   1.00
C1084  C     0.29957   0.80992   0.60701   0.00000  Uiso   1.00
C1085  C     0.01310   0.86972   0.97810   0.00000  Uiso   1.00
C1086  C     0.30115   0.74967   0.53499   0.00000  Uiso   1.00
C1087  C     0.32826   0.86347   0.92844   0.00000  Uiso   1.00
C1088  C     0.31827   0.76367   0.58406   0.00000  Uiso   1.00
C1089  C     0.08536   0.82792   0.91151   0.00000  Uiso   1.00
C1090  C     0.25837   0.83581   0.58260   0.00000  Uiso   1.00
C1091  C     0.10082   0.82876   0.96086   0.00000  Uiso   1.00
C1092  C     0.31874   0.73538   0.75172   0.00000  Uiso   1.00
C1093  C     0.22977   0.81235   0.53984   0.00000  Uiso   1.00
C1094  C     0.06593   0.85331   0.99428   0.00000  Uiso   1.00
C1095  C     0.25564   0.77298   0.51307   0.00000  Uiso   1.00
C1096  C     0.15211   0.80849   0.97736   0.00000  Uiso   1.00
C1097  C     0.17412   0.82435   0.52536   0.00000  Uiso   1.00
C1098  C     0.01302   0.72330   0.61124   0.00000  Uiso   1.00
C1099  C     0.27049   0.88065   0.91300   0.00000  Uiso   1.00
C1100  C     0.14465   0.78878   0.61970   0.00000  Uiso   1.00
C1101  C     0.11880   0.70219   0.91867   0.00000  Uiso   1.00
C1102  C     0.08790   0.98299   0.68357   0.00000  Uiso   1.00
C1103  C     0.13644   0.84450   0.55966   0.00000  Uiso   1.00
C1104  C     0.26573   0.67257   0.82656   0.00000  Uiso   1.00
C1105  C     0.17999   0.76998   0.94944   0.00000  Uiso   1.00
C1106  C     0.08364   0.86003   0.54357   0.00000  Uiso   1.00
C1107  C     0.23146   0.75309   0.96762   0.00000  Uiso   1.00
C1108  C     0.02224   0.98515   0.74383   0.00000  Uiso   1.00
C1109  C     0.31273   0.68179   0.75731   0.00000  Uiso   1.00
C1110  C     0.02141   0.83857   0.84138   0.00000  Uiso   1.00
H1111  H     0.05585   0.87596   0.57005   0.00000  Uiso   1.00
H1112  H     0.05195   0.71227   0.59345   0.00000  Uiso   1.00
H1113  H     0.02369   0.73525   0.65016   0.00000  Uiso   1.00
H1114  H     0.27540   0.91125   0.88732   0.00000  Uiso   1.00
H1115  H     0.24291   0.84718   0.89532   0.00000  Uiso   1.00
H1116  H     0.24817   0.89675   0.94462   0.00000  Uiso   1.00
H1117  H     0.18603   0.78068   0.63755   0.00000  Uiso   1.00
H1118  H     0.13587   0.75983   0.58758   0.00000  Uiso   1.00
H1119  H     0.11147   0.78149   0.64542   0.00000  Uiso   1.00
H1120  H     0.09820   0.68221   0.88437   0.00000  Uiso   1.00
H1121  H     0.08414   0.71534   0.94149   0.00000  Uiso   1.00
H1122  H     0.25079   0.72232   0.94706   0.00000  Uiso   1.00
H1123  H     0.14333   0.67353   0.93741   0.00000  Uiso   1.00
H1124  H     0.04951   0.96801   0.65962   0.00000  Uiso   1.00
H1125  H     0.11670   0.95149   0.68859   0.00000  Uiso   1.00
H1126  H     0.11180   0.67937   0.66430   0.00000  Uiso   1.00
H1127  H     0.26601   0.71478   0.83730   0.00000  Uiso   1.00
H1128  H     0.30407   0.98990   0.84366   0.00000  Uiso   1.00
H1129  H     0.22743   0.98673   0.84122   0.00000  Uiso   1.00
H1130  H     0.24382   0.87086   0.60020   0.00000  Uiso   1.00
H1131  H     0.11605   0.81755   0.88554   0.00000  Uiso   1.00
H1132  H     0.31936   0.88732   0.50427   0.00000  Uiso   1.00
H1133  H     0.31753   0.71595   0.51640   0.00000  Uiso   1.00
H1134  H     0.16226   0.78722   0.71911   0.00000  Uiso   1.00
H1135  H     0.17122   0.87787   0.78352   0.00000  Uiso   1.00
H1136  H     0.31642   0.68808   0.60977   0.00000  Uiso   1.00
N1137  N     0.14695   0.81883   0.73739   0.00000  Uiso   1.00
N1138  N     0.18638   0.84784   0.76260   0.00000  Uiso   1.00
O1139  O     0.29719   0.91298   0.75309   0.00000  Uiso   1.00
O1140  O     0.15515   0.74430   0.90673   0.00000  Uiso   1.00
O1141  O     0.07460   0.67256   0.72946   0.00000  Uiso   1.00
O1142  O     0.26214   0.99575   0.77531   0.00000  Uiso   1.00
O1143  O     0.03614   0.75369   0.74690   0.00000  Uiso   1.00
O1144  O     0.05822   0.90368   0.74501   0.00000  Uiso   1.00
O1145  O     0.27512   0.76298   0.75498   0.00000  Uiso   1.00
O1146  O     0.30328   0.84063   0.82247   0.00000  Uiso   1.00
O1147  O     0.03005   0.82603   0.67753   0.00000  Uiso   1.00
O1148  O     0.06431   0.83134   0.81439   0.00000  Uiso   1.00
O1149  O     0.26902   0.83533   0.68561   0.00000  Uiso   1.00
O1150  O     0.14611   0.84152   0.60937   0.00000  Uiso   1.00
Zn1151 Zn    0.27033   0.83954   0.75539   0.00000  Uiso   1.00
Zn1152 Zn    0.06300   0.82713   0.74460   0.00000  Uiso   1.00
C1153  C     0.34818   0.93128   0.74841   0.00000  Uiso   1.00
C1154  C     0.64495   0.82581   0.65896   0.00000  Uiso   1.00
C1155  C     0.36592   0.84313   0.89461   0.00000  Uiso   1.00
C1156  C     0.63290   0.80992   0.60701   0.00000  Uiso   1.00
C1157  C     0.34643   0.86972   0.97810   0.00000  Uiso   1.00
C1158  C     0.63448   0.74967   0.53499   0.00000  Uiso   1.00
C1159  C     0.66160   0.86347   0.92844   0.00000  Uiso   1.00
C1160  C     0.65161   0.76367   0.58406   0.00000  Uiso   1.00
C1161  C     0.41870   0.82792   0.91151   0.00000  Uiso   1.00
C1162  C     0.59170   0.83581   0.58260   0.00000  Uiso   1.00
C1163  C     0.43416   0.82876   0.96086   0.00000  Uiso   1.00
C1164  C     0.65208   0.73538   0.75172   0.00000  Uiso   1.00
C1165  C     0.56310   0.81235   0.53984   0.00000  Uiso   1.00
C1166  C     0.39927   0.85331   0.99428   0.00000  Uiso   1.00
C1167  C     0.58898   0.77298   0.51307   0.00000  Uiso   1.00
C1168  C     0.48544   0.80849   0.97736   0.00000  Uiso   1.00
C1169  C     0.50745   0.82435   0.52536   0.00000  Uiso   1.00
C1170  C     0.34636   0.72330   0.61124   0.00000  Uiso   1.00
C1171  C     0.60382   0.88065   0.91300   0.00000  Uiso   1.00
C1172  C     0.47799   0.78878   0.61970   0.00000  Uiso   1.00
C1173  C     0.45214   0.70219   0.91867   0.00000  Uiso   1.00
C1174  C     0.42124   0.98299   0.68357   0.00000  Uiso   1.00
C1175  C     0.46977   0.84450   0.55966   0.00000  Uiso   1.00
C1176  C     0.59907   0.67257   0.82656   0.00000  Uiso   1.00
C1177  C     0.51333   0.76998   0.94944   0.00000  Uiso   1.00
C1178  C     0.41697   0.86003   0.54357   0.00000  Uiso   1.00
C1179  C     0.56479   0.75309   0.96762   0.00000  Uiso   1.00
C1180  C     0.35557   0.98515   0.74383   0.00000  Uiso   1.00
C1181  C     0.64606   0.68179   0.75731   0.00000  Uiso   1.00
C1182  C     0.35474   0.83857   0.84138   0.00000  Uiso   1.00
H1183  H     0.38918   0.87596   0.57005   0.00000  Uiso   1.00
H1184  H     0.38529   0.71227   0.59345   0.00000  Uiso   1.00
H1185  H     0.35702   0.73525   0.65016   0.00000  Uiso   1.00
H1186  H     0.60873   0.91125   0.88732   0.00000  Uiso   1.00
H1187  H     0.57624   0.84718   0.89532   0.00000  Uiso   1.00
H1188  H     0.58150   0.89675   0.94462   0.00000  Uiso   1.00
H1189  H     0.51936   0.78068   0.63755   0.00000  Uiso   1.00
H1190  H     0.46920   0.75983   0.58758   0.00000  Uiso   1.00
H1191  H     0.44481   0.78149   0.64542   0.00000  Uiso   1.00
H1192  H     0.43154   0.68221   0.88437   0.00000  Uiso   1.00
H1193  H     0.41747   0.71534   0.94149   0.00000  Uiso   1.00
H1194  H     0.58413   0.72232   0.94706   0.00000  Uiso   1.00
H1195  H     0.47666   0.67353   0.93741   0.00000  Uiso   1.00
H1196  H     0.38284   0.96801   0.65962   0.00000  Uiso   1.00
H1197  H     0.45004   0.95149   0.68859   0.00000  Uiso   1.00
H1198  H     0.44513   0.67937   0.66430   0.00000  Uiso   1.00
H1199  H     0.59934   0.71478   0.83730   0.00000  Uiso   1.00
H1200  H     0.63740   0.98990   0.84366   0.00000  Uiso   1.00
H1201  H     0.56076   0.98673   0.84122   0.00000  Uiso   1.00
H1202  H     0.57716   0.87086   0.60020   0.00000  Uiso   1.00
H1203  H     0.44938   0.81755   0.88554   0.00000  Uiso   1.00
H1204  H     0.65269   0.88732   0.50427   0.00000  Uiso   1.00
H1205  H     0.65086   0.71595   0.51640   0.00000  Uiso   1.00
H1206  H     0.49559   0.78722   0.71911   0.00000  Uiso   1.00
H1207  H     0.50455   0.87787   0.78352   0.00000  Uiso   1.00
H1208  H     0.64975   0.68808   0.60977   0.00000  Uiso   1.00
N1209  N     0.48029   0.81883   0.73739   0.00000  Uiso   1.00
N1210  N     0.51971   0.84784   0.76260   0.00000  Uiso   1.00
O1211  O     0.63052   0.91298   0.75309   0.00000  Uiso   1.00
O1212  O     0.48848   0.74430   0.90673   0.00000  Uiso   1.00
O1213  O     0.40794   0.67256   0.72946   0.00000  Uiso   1.00
O1214  O     0.59547   0.99575   0.77531   0.00000  Uiso   1.00
O1215  O     0.36948   0.75369   0.74690   0.00000  Uiso   1.00
O1216  O     0.39155   0.90368   0.74501   0.00000  Uiso   1.00
O1217  O     0.60845   0.76298   0.75498   0.00000  Uiso   1.00
O1218  O     0.63662   0.84063   0.82247   0.00000  Uiso   1.00
O1219  O     0.36338   0.82603   0.67753   0.00000  Uiso   1.00
O1220  O     0.39764   0.83134   0.81439   0.00000  Uiso   1.00
O1221  O     0.60236   0.83533   0.68561   0.00000  Uiso   1.00
O1222  O     0.47944   0.84152   0.60937   0.00000  Uiso   1.00
Zn1223 Zn    0.60366   0.83954   0.75539   0.00000  Uiso   1.00
Zn1224 Zn    0.39634   0.82713   0.74460   0.00000  Uiso   1.00
C1225  C     0.68152   0.93128   0.74841   0.00000  Uiso   1.00
C1226  C     0.97829   0.82581   0.65896   0.00000  Uiso   1.00
C1227  C     0.69926   0.84313   0.89461   0.00000  Uiso   1.00
C1228  C     0.96623   0.80992   0.60701   0.00000  Uiso   1.00
C1229  C     0.67976   0.86972   0.97810   0.00000  Uiso   1.00
C1230  C     0.96782   0.74967   0.53499   0.00000  Uiso   1.00
C1231  C     0.99493   0.86347   0.92844   0.00000  Uiso   1.00
C1232  C     0.98494   0.76367   0.58406   0.00000  Uiso   1.00
C1233  C     0.75203   0.82792   0.91151   0.00000  Uiso   1.00
C1234  C     0.92504   0.83581   0.58260   0.00000  Uiso   1.00
C1235  C     0.76749   0.82876   0.96086   0.00000  Uiso   1.00
C1236  C     0.98541   0.73538   0.75172   0.00000  Uiso   1.00
C1237  C     0.89643   0.81235   0.53984   0.00000  Uiso   1.00
C1238  C     0.73260   0.85331   0.99428   0.00000  Uiso   1.00
C1239  C     0.92231   0.77298   0.51307   0.00000  Uiso   1.00
C1240  C     0.81877   0.80849   0.97736   0.00000  Uiso   1.00
C1241  C     0.84079   0.82435   0.52536   0.00000  Uiso   1.00
C1242  C     0.67969   0.72330   0.61124   0.00000  Uiso   1.00
C1243  C     0.93715   0.88065   0.91300   0.00000  Uiso   1.00
C1244  C     0.81132   0.78878   0.61970   0.00000  Uiso   1.00
C1245  C     0.78547   0.70219   0.91867   0.00000  Uiso   1.00
C1246  C     0.75457   0.98299   0.68357   0.00000  Uiso   1.00
C1247  C     0.80310   0.84450   0.55966   0.00000  Uiso   1.00
C1248  C     0.93240   0.67257   0.82656   0.00000  Uiso   1.00
C1249  C     0.84666   0.76998   0.94944   0.00000  Uiso   1.00
C1250  C     0.75031   0.86003   0.54357   0.00000  Uiso   1.00
C1251  C     0.89812   0.75309   0.96762   0.00000  Uiso   1.00
C1252  C     0.68890   0.98515   0.74383   0.00000  Uiso   1.00
C1253  C     0.97939   0.68179   0.75731   0.00000  Uiso   1.00
C1254  C     0.68807   0.83857   0.84138   0.00000  Uiso   1.00
H1255  H     0.72251   0.87596   0.57005   0.00000  Uiso   1.00
H1256  H     0.71862   0.71227   0.59345   0.00000  Uiso   1.00
H1257  H     0.69035   0.73525   0.65016   0.00000  Uiso   1.00
H1258  H     0.94206   0.91125   0.88732   0.00000  Uiso   1.00
H1259  H     0.90958   0.84718   0.89532   0.00000  Uiso   1.00
H1260  H     0.91483   0.89675   0.94462   0.00000  Uiso   1.00
H1261  H     0.85270   0.78068   0.63755   0.00000  Uiso   1.00
H1262  H     0.80253   0.75983   0.58758   0.00000  Uiso   1.00
H1263  H     0.77814   0.78149   0.64542   0.00000  Uiso   1.00
H1264  H     0.76487   0.68221   0.88437   0.00000  Uiso   1.00
H1265  H     0.75081   0.71534   0.94149   0.00000  Uiso   1.00
H1266  H     0.91746   0.72232   0.94706   0.00000  Uiso   1.00
H1267  H     0.80999   0.67353   0.93741   0.00000  Uiso   1.00
H1268  H     0.71618   0.96801   0.65962   0.00000  Uiso   1.00
H1269  H     0.78337   0.95149   0.68859   0.00000  Uiso   1.00
H1270  H     0.77847   0.67937   0.66430   0.00000  Uiso   1.00
H1271  H     0.93268   0.71478   0.83730   0.00000  Uiso   1.00
H1272  H     0.97074   0.98990   0.84366   0.00000  Uiso   1.00
H1273  H     0.89409   0.98673   0.84122   0.00000  Uiso   1.00
H1274  H     0.91049   0.87086   0.60020   0.00000  Uiso   1.00
H1275  H     0.78272   0.81755   0.88554   0.00000  Uiso   1.00
H1276  H     0.98602   0.88732   0.50427   0.00000  Uiso   1.00
H1277  H     0.98419   0.71595   0.51640   0.00000  Uiso   1.00
H1278  H     0.82893   0.78722   0.71911   0.00000  Uiso   1.00
H1279  H     0.83789   0.87787   0.78352   0.00000  Uiso   1.00
H1280  H     0.98309   0.68808   0.60977   0.00000  Uiso   1.00
N1281  N     0.81362   0.81883   0.73739   0.00000  Uiso   1.00
N1282  N     0.85305   0.84784   0.76260   0.00000  Uiso   1.00
O1283  O     0.96386   0.91298   0.75309   0.00000  Uiso   1.00
O1284  O     0.82182   0.74430   0.90673   0.00000  Uiso   1.00
O1285  O     0.74127   0.67256   0.72946   0.00000  Uiso   1.00
O1286  O     0.92880   0.99575   0.77531   0.00000  Uiso   1.00
O1287  O     0.70281   0.75369   0.74690   0.00000  Uiso   1.00
O1288  O     0.72488   0.90368   0.74501   0.00000  Uiso   1.00
O1289  O     0.94178   0.76298   0.75498   0.00000  Uiso   1.00
O1290  O     0.96995   0.84063   0.82247   0.00000  Uiso   1.00
O1291  O     0.69672   0.82603   0.67753   0.00000  Uiso   1.00
O1292  O     0.73098   0.83134   0.81439   0.00000  Uiso   1.00
O1293  O     0.93569   0.83533   0.68561   0.00000  Uiso   1.00
O1294  O     0.81277   0.84152   0.60937   0.00000  Uiso   1.00
Zn1295 Zn    0.93700   0.83954   0.75539   0.00000  Uiso   1.00
Zn1296 Zn    0.72967   0.82713   0.74460   0.00000  Uiso   1.00
loop_
_geom_bond_atom_site_label_1
_geom_bond_atom_site_label_2
_geom_bond_distance
_geom_bond_site_symmetry_2
_ccdc_geom_bond_type
C1     C28     1.414   .     S
C1     O64     1.290   .     A
C1     O203    1.275   1_455 S
C2     C4      1.464   .     S
C2     O69     1.301   .     A
C2     O139    1.292   .     S
C3     C30     1.469   .     S
C3     C9      1.394   .     A
C3     C151    1.419   1_455 S
C4     C8      1.422   .     A
C4     C10     1.389   .     A
C5     C14     1.401   .     A
C5     C151    1.403   1_455 S
C5     H844    1.084   1_455 S
C6     H53     1.085   .     S
C6     C8      1.400   .     A
C6     C15     1.396   .     A
C7     C19     1.507   .     S
C7     C75     1.419   .     S
C7     C77     1.403   .     S
C8     C90     1.503   .     S
C9     C11     1.385   .     A
C9     H51     1.077   .     S
C10    C13     1.396   .     A
C10    H50     1.084   .     S
C11    C14     1.412   .     A
C11    C16     1.414   .     A
C12    C29     1.411   .     S
C12    O65     1.295   .     A
C12    O135    1.270   .     S
C13    C17     1.409   .     A
C13    C15     1.407   .     A
C14    C674    1.391   .     S
C15    C675    1.390   1_554 S
C16    C25     1.432   .     A
C16    C665    1.411   .     S
C17    C23     1.426   .     A
C17    C664    1.411   1_554 S
C18    H33     1.102   .     S
C18    H32     1.107   .     S
C18    C152    1.503   1_455 S
C18    H200    1.111   1_455 S
C19    H35     1.110   .     S
C19    H36     1.111   .     S
C19    H34     1.109   .     S
C20    H38     1.115   .     S
C20    H39     1.100   .     S
C20    H37     1.105   .     S
C20    O70     1.419   .     S
C21    H40     1.110   .     S
C21    H41     1.113   .     S
C21    O60     1.411   .     S
C21    H43     1.113   .     S
C22    H44     1.115   .     S
C22    H45     1.110   .     S
C22    H262    1.109   .     S
C22    O277    1.415   .     S
C23    O70     1.384   .     S
C23    C26     1.391   .     A
C24    H47     1.112   .     S
C24    H480    1.114   1_545 S
C24    H481    1.110   1_545 S
C24    O494    1.412   1_545 S
C25    O60     1.383   .     S
C25    C27     1.395   .     A
C26    H31     1.084   .     S
C26    C662    1.391   1_554 S
C27    H42     1.085   .     S
C27    C663    1.390   .     S
C28    C389    1.366   1_455 S
C28    O277    1.399   .     S
C29    C532    1.366   1_545 S
C29    O494    1.391   1_545 S
C30    O68     1.302   .     A
C30    O210    1.295   1_455 S
H46    C454    1.109   1_545 S
H48    C240    1.114   .     S
H49    C240    1.110   .     S
H52    C725    1.084   1_554 S
H54    N57     1.027   .     S
H55    N58     1.029   .     S
H56    C90     1.111   .     S
N57    N58     1.286   .     D
N57    Zn72    2.019   .     S
N58    Zn71    2.019   .     S
O59    Zn71    1.974   .     S
O59    C73     1.275   .     S
O61    C460    1.399   1_545 S
O61    C454    1.415   1_545 S
O62    C240    1.412   .     S
O62    C245    1.391   .     S
O63    Zn72    1.974   .     S
O63    C156    1.270   1_455 S
O64    Zn72    1.999   .     S
O65    Zn71    1.999   .     S
O66    Zn71    1.959   .     S
O66    C102    1.295   .     S
O67    Zn72    1.959   .     S
O67    C146    1.292   1_455 S
O68    Zn72    1.915   .     S
O69    Zn71    1.915   .     S
C73    C100    1.414   .     S
C73    O136    1.290   .     A
C74    C76     1.464   .     S
C74    O141    1.301   .     A
C74    O211    1.292   .     S
C75    C102    1.469   .     S
C75    C81     1.394   .     A
C76    C80     1.422   .     A
C76    C82     1.389   .     A
C77    C86     1.401   .     A
C77    H700    1.084   .     S
C78    H125    1.085   .     S
C78    C80     1.400   .     A
C78    C87     1.396   .     A
C79    C91     1.507   .     S
C79    C147    1.419   .     S
C79    C149    1.403   .     S
C80    C162    1.503   .     S
C81    C83     1.385   .     A
C81    H123    1.077   .     S
C82    C85     1.396   .     A
C82    H122    1.084   .     S
C83    C86     1.412   .     A
C83    C88     1.414   .     A
C84    C101    1.411   .     S
C84    O137    1.295   .     A
C84    O207    1.270   .     S
C85    C89     1.409   .     A
C85    C87     1.407   .     A
C86    C746    1.391   .     S
C87    C747    1.390   1_554 S
C88    C97     1.432   .     A
C88    C737    1.411   .     S
C89    C95     1.426   .     A
C89    C736    1.411   1_554 S
C90    H105    1.102   .     S
C90    H104    1.107   .     S
C91    H107    1.110   .     S
C91    H108    1.111   .     S
C91    H106    1.109   .     S
C92    H110    1.115   .     S
C92    H111    1.100   .     S
C92    H109    1.105   .     S
C92    O142    1.419   .     S
C93    H112    1.110   .     S
C93    H113    1.113   .     S
C93    O132    1.411   .     S
C93    H115    1.113   .     S
C94    H116    1.115   .     S
C94    H117    1.110   .     S
C94    H334    1.109   .     S
C94    O349    1.415   .     S
C95    O142    1.384   .     S
C95    C98     1.391   .     A
C96    H119    1.112   .     S
C96    H552    1.114   1_545 S
C96    H553    1.110   1_545 S
C96    O566    1.412   1_545 S
C97    O132    1.383   .     S
C97    C99     1.395   .     A
C98    H103    1.084   .     S
C98    C734    1.391   1_554 S
C99    H114    1.085   .     S
C99    C735    1.390   .     S
C100   C245    1.366   .     S
C100   O349    1.399   .     S
C101   C604    1.366   1_545 S
C101   O566    1.391   1_545 S
C102   O140    1.302   .     A
H118   C526    1.109   1_545 S
H120   C312    1.114   .     S
H121   C312    1.110   .     S
H124   C797    1.084   1_554 S
H126   N129    1.027   .     S
H127   N130    1.029   .     S
H128   C162    1.111   .     S
N129   N130    1.286   .     D
N129   Zn144   2.019   .     S
N130   Zn143   2.019   .     S
O131   Zn143   1.974   .     S
O131   C145    1.275   .     S
O133   C532    1.399   1_545 S
O133   C526    1.415   1_545 S
O134   C312    1.412   .     S
O134   C317    1.391   .     S
O135   Zn144   1.974   .     S
O136   Zn144   1.999   .     S
O137   Zn143   1.999   .     S
O138   Zn143   1.959   .     S
O138   C174    1.295   .     S
O139   Zn144   1.959   .     S
O140   Zn144   1.915   .     S
O141   Zn143   1.915   .     S
C145   C172    1.414   .     S
C145   O208    1.290   .     A
C146   C148    1.464   .     S
C146   O213    1.301   .     A
C146   O67     1.292   1_655 S
C147   C174    1.469   .     S
C147   C153    1.394   .     A
C148   C152    1.422   .     A
C148   C154    1.389   .     A
C149   C158    1.401   .     A
C149   H772    1.084   .     S
C150   H197    1.085   .     S
C150   C152    1.400   .     A
C150   C159    1.396   .     A
C151   C163    1.507   .     S
C151   C3      1.419   1_655 S
C151   C5      1.403   1_655 S
C152   C18     1.503   1_655 S
C153   C155    1.385   .     A
C153   H195    1.077   .     S
C154   C157    1.396   .     A
C154   H194    1.084   .     S
C155   C158    1.412   .     A
C155   C160    1.414   .     A
C156   C173    1.411   .     S
C156   O209    1.295   .     A
C156   O63     1.270   1_655 S
C157   C161    1.409   .     A
C157   C159    1.407   .     A
C158   C818    1.391   .     S
C159   C819    1.390   1_554 S
C160   C169    1.432   .     A
C160   C809    1.411   .     S
C161   C167    1.426   .     A
C161   C808    1.411   1_554 S
C162   H177    1.102   .     S
C162   H176    1.107   .     S
C163   H179    1.110   .     S
C163   H180    1.111   .     S
C163   H178    1.109   .     S
C164   H182    1.115   .     S
C164   H183    1.100   .     S
C164   H181    1.105   .     S
C164   O214    1.419   .     S
C165   H184    1.110   .     S
C165   H185    1.113   .     S
C165   O204    1.411   .     S
C165   H187    1.113   .     S
C166   H188    1.115   .     S
C166   H189    1.110   .     S
C166   H406    1.109   .     S
C166   O421    1.415   .     S
C167   O214    1.384   .     S
C167   C170    1.391   .     A
C168   H191    1.112   .     S
C168   H624    1.114   1_545 S
C168   H625    1.110   1_545 S
C168   O638    1.412   1_545 S
C169   O204    1.383   .     S
C169   C171    1.395   .     A
C170   H175    1.084   .     S
C170   C806    1.391   1_554 S
C171   H186    1.085   .     S
C171   C807    1.390   .     S
C172   C317    1.366   .     S
C172   O421    1.399   .     S
C173   C460    1.366   1_645 S
C173   O638    1.391   1_545 S
C174   O212    1.302   .     A
H190   C598    1.109   1_545 S
H192   C384    1.114   .     S
H193   C384    1.110   .     S
H196   C653    1.084   1_654 S
H198   N201    1.027   .     S
H199   N202    1.029   .     S
H200   C18     1.111   1_655 S
N201   N202    1.286   .     D
N201   Zn216   2.019   .     S
N202   Zn215   2.019   .     S
O203   Zn215   1.974   .     S
O203   C1      1.275   1_655 S
O205   C604    1.399   1_545 S
O205   C598    1.415   1_545 S
O206   C384    1.412   .     S
O206   C389    1.391   .     S
O207   Zn216   1.974   .     S
O208   Zn216   1.999   .     S
O209   Zn215   1.999   .     S
O210   Zn215   1.959   .     S
O210   C30     1.295   1_655 S
O211   Zn216   1.959   .     S
O212   Zn216   1.915   .     S
O213   Zn215   1.915   .     S
C217   C244    1.414   .     S
C217   O280    1.290   .     A
C217   O419    1.275   1_455 S
C218   C220    1.464   .     S
C218   O285    1.301   .     A
C218   O355    1.292   .     S
C219   C246    1.469   .     S
C219   C225    1.394   .     A
C219   C367    1.419   1_455 S
C220   C224    1.422   .     A
C220   C226    1.389   .     A
C221   C230    1.401   .     A
C221   C367    1.403   1_455 S
C221   H1060   1.084   1_455 S
C222   H269    1.085   .     S
C222   C224    1.400   .     A
C222   C231    1.396   .     A
C223   C235    1.507   .     S
C223   C291    1.419   .     S
C223   C293    1.403   .     S
C224   C306    1.503   .     S
C225   C227    1.385   .     A
C225   H267    1.077   .     S
C226   C229    1.396   .     A
C226   H266    1.084   .     S
C227   C230    1.412   .     A
C227   C232    1.414   .     A
C228   C245    1.411   .     S
C228   O281    1.295   .     A
C228   O351    1.270   .     S
C229   C233    1.409   .     A
C229   C231    1.407   .     A
C230   C890    1.391   .     S
C231   C891    1.390   1_554 S
C232   C241    1.432   .     A
C232   C881    1.411   .     S
C233   C239    1.426   .     A
C233   C880    1.411   1_554 S
C234   H249    1.102   .     S
C234   H248    1.107   .     S
C234   C368    1.503   1_455 S
C234   H416    1.111   1_455 S
C235   H251    1.110   .     S
C235   H252    1.111   .     S
C235   H250    1.109   .     S
C236   H254    1.115   .     S
C236   H255    1.100   .     S
C236   H253    1.105   .     S
C236   O286    1.419   .     S
C237   H256    1.110   .     S
C237   H257    1.113   .     S
C237   O276    1.411   .     S
C237   H259    1.113   .     S
C238   H260    1.115   .     S
C238   H261    1.110   .     S
C238   H478    1.109   .     S
C238   O493    1.415   .     S
C239   O286    1.384   .     S
C239   C242    1.391   .     A
C240   H263    1.112   .     S
C241   O276    1.383   .     S
C241   C243    1.395   .     A
C242   H247    1.084   .     S
C242   C878    1.391   1_554 S
C243   H258    1.085   .     S
C243   C879    1.390   .     S
C244   C605    1.366   1_455 S
C244   O493    1.399   .     S
C246   O284    1.302   .     A
C246   O426    1.295   1_455 S
H264   C456    1.114   .     S
H265   C456    1.110   .     S
H268   C941    1.084   1_554 S
H270   N273    1.027   .     S
H271   N274    1.029   .     S
H272   C306    1.111   .     S
N273   N274    1.286   .     D
N273   Zn288   2.019   .     S
N274   Zn287   2.019   .     S
O275   Zn287   1.974   .     S
O275   C289    1.275   .     S
O278   C456    1.412   .     S
O278   C461    1.391   .     S
O279   Zn288   1.974   .     S
O279   C372    1.270   1_455 S
O280   Zn288   1.999   .     S
O281   Zn287   1.999   .     S
O282   Zn287   1.959   .     S
O282   C318    1.295   .     S
O283   Zn288   1.959   .     S
O283   C362    1.292   1_455 S
O284   Zn288   1.915   .     S
O285   Zn287   1.915   .     S
C289   C316    1.414   .     S
C289   O352    1.290   .     A
C290   C292    1.464   .     S
C290   O357    1.301   .     A
C290   O427    1.292   .     S
C291   C318    1.469   .     S
C291   C297    1.394   .     A
C292   C296    1.422   .     A
C292   C298    1.389   .     A
C293   C302    1.401   .     A
C293   H916    1.084   .     S
C294   H341    1.085   .     S
C294   C296    1.400   .     A
C294   C303    1.396   .     A
C295   C307    1.507   .     S
C295   C363    1.419   .     S
C295   C365    1.403   .     S
C296   C378    1.503   .     S
C297   C299    1.385   .     A
C297   H339    1.077   .     S
C298   C301    1.396   .     A
C298   H338    1.084   .     S
C299   C302    1.412   .     A
C299   C304    1.414   .     A
C300   C317    1.411   .     S
C300   O353    1.295   .     A
C300   O423    1.270   .     S
C301   C305    1.409   .     A
C301   C303    1.407   .     A
C302   C962    1.391   .     S
C303   C963    1.390   1_554 S
C304   C313    1.432   .     A
C304   C953    1.411   .     S
C305   C311    1.426   .     A
C305   C952    1.411   1_554 S
C306   H321    1.102   .     S
C306   H320    1.107   .     S
C307   H323    1.110   .     S
C307   H324    1.111   .     S
C307   H322    1.109   .     S
C308   H326    1.115   .     S
C308   H327    1.100   .     S
C308   H325    1.105   .     S
C308   O358    1.419   .     S
C309   H328    1.110   .     S
C309   H329    1.113   .     S
C309   O348    1.411   .     S
C309   H331    1.113   .     S
C310   H332    1.115   .     S
C310   H333    1.110   .     S
C310   H550    1.109   .     S
C310   O565    1.415   .     S
C311   O358    1.384   .     S
C311   C314    1.391   .     A
C312   H335    1.112   .     S
C313   O348    1.383   .     S
C313   C315    1.395   .     A
C314   H319    1.084   .     S
C314   C950    1.391   1_554 S
C315   H330    1.085   .     S
C315   C951    1.390   .     S
C316   C461    1.366   .     S
C316   O565    1.399   .     S
C318   O356    1.302   .     A
H336   C528    1.114   .     S
H337   C528    1.110   .     S
H340   C1013   1.084   1_554 S
H342   N345    1.027   .     S
H343   N346    1.029   .     S
H344   C378    1.111   .     S
N345   N346    1.286   .     D
N345   Zn360   2.019   .     S
N346   Zn359   2.019   .     S
O347   Zn359   1.974   .     S
O347   C361    1.275   .     S
O350   C528    1.412   .     S
O350   C533    1.391   .     S
O351   Zn360   1.974   .     S
O352   Zn360   1.999   .     S
O353   Zn359   1.999   .     S
O354   Zn359   1.959   .     S
O354   C390    1.295   .     S
O355   Zn360   1.959   .     S
O356   Zn360   1.915   .     S
O357   Zn359   1.915   .     S
C361   C388    1.414   .     S
C361   O424    1.290   .     A
C362   C364    1.464   .     S
C362   O429    1.301   .     A
C362   O283    1.292   1_655 S
C363   C390    1.469   .     S
C363   C369    1.394   .     A
C364   C368    1.422   .     A
C364   C370    1.389   .     A
C365   C374    1.401   .     A
C365   H988    1.084   .     S
C366   H413    1.085   .     S
C366   C368    1.400   .     A
C366   C375    1.396   .     A
C367   C379    1.507   .     S
C367   C219    1.419   1_655 S
C367   C221    1.403   1_655 S
C368   C234    1.503   1_655 S
C369   C371    1.385   .     A
C369   H411    1.077   .     S
C370   C373    1.396   .     A
C370   H410    1.084   .     S
C371   C374    1.412   .     A
C371   C376    1.414   .     A
C372   C389    1.411   .     S
C372   O425    1.295   .     A
C372   O279    1.270   1_655 S
C373   C377    1.409   .     A
C373   C375    1.407   .     A
C374   C1034   1.391   .     S
C375   C1035   1.390   1_554 S
C376   C385    1.432   .     A
C376   C1025   1.411   .     S
C377   C383    1.426   .     A
C377   C1024   1.411   1_554 S
C378   H393    1.102   .     S
C378   H392    1.107   .     S
C379   H395    1.110   .     S
C379   H396    1.111   .     S
C379   H394    1.109   .     S
C380   H398    1.115   .     S
C380   H399    1.100   .     S
C380   H397    1.105   .     S
C380   O430    1.419   .     S
C381   H400    1.110   .     S
C381   H401    1.113   .     S
C381   O420    1.411   .     S
C381   H403    1.113   .     S
C382   H404    1.115   .     S
C382   H405    1.110   .     S
C382   H622    1.109   .     S
C382   O637    1.415   .     S
C383   O430    1.384   .     S
C383   C386    1.391   .     A
C384   H407    1.112   .     S
C385   O420    1.383   .     S
C385   C387    1.395   .     A
C386   H391    1.084   .     S
C386   C1022   1.391   1_554 S
C387   H402    1.085   .     S
C387   C1023   1.390   .     S
C388   C533    1.366   .     S
C388   O637    1.399   .     S
C389   C28     1.366   1_655 S
C390   O428    1.302   .     A
H408   C600    1.114   .     S
H409   C600    1.110   .     S
H412   C869    1.084   1_654 S
H414   N417    1.027   .     S
H415   N418    1.029   .     S
H416   C234    1.111   1_655 S
N417   N418    1.286   .     D
N417   Zn432   2.019   .     S
N418   Zn431   2.019   .     S
O419   Zn431   1.974   .     S
O419   C217    1.275   1_655 S
O422   C600    1.412   .     S
O422   C605    1.391   .     S
O423   Zn432   1.974   .     S
O424   Zn432   1.999   .     S
O425   Zn431   1.999   .     S
O426   Zn431   1.959   .     S
O426   C246    1.295   1_655 S
O427   Zn432   1.959   .     S
O428   Zn432   1.915   .     S
O429   Zn431   1.915   .     S
C433   C460    1.414   .     S
C433   O496    1.290   .     A
C433   O635    1.275   1_455 S
C434   C436    1.464   .     S
C434   O501    1.301   .     A
C434   O571    1.292   .     S
C435   C462    1.469   .     S
C435   C441    1.394   .     A
C435   C583    1.419   1_455 S
C436   C440    1.422   .     A
C436   C442    1.389   .     A
C437   C446    1.401   .     A
C437   C583    1.403   1_455 S
C437   H1276   1.084   1_455 S
C438   H485    1.085   .     S
C438   C440    1.400   .     A
C438   C447    1.396   .     A
C439   C451    1.507   .     S
C439   C507    1.419   .     S
C439   C509    1.403   .     S
C440   C522    1.503   .     S
C441   C443    1.385   .     A
C441   H483    1.077   .     S
C442   C445    1.396   .     A
C442   H482    1.084   .     S
C443   C446    1.412   .     A
C443   C448    1.414   .     A
C444   C461    1.411   .     S
C444   O497    1.295   .     A
C444   O567    1.270   .     S
C445   C449    1.409   .     A
C445   C447    1.407   .     A
C446   C1106   1.391   .     S
C447   C1107   1.390   1_554 S
C448   C457    1.432   .     A
C448   C1097   1.411   .     S
C449   C455    1.426   .     A
C449   C1096   1.411   1_554 S
C450   H465    1.102   .     S
C450   H464    1.107   .     S
C450   C584    1.503   1_455 S
C450   H632    1.111   1_455 S
C451   H467    1.110   .     S
C451   H468    1.111   .     S
C451   H466    1.109   .     S
C452   H470    1.115   .     S
C452   H471    1.100   .     S
C452   H469    1.105   .     S
C452   O502    1.419   .     S
C453   H472    1.110   .     S
C453   H473    1.113   .     S
C453   O492    1.411   .     S
C453   H475    1.113   .     S
C454   H476    1.115   .     S
C454   H477    1.110   .     S
C454   H46     1.109   1_565 S
C454   O61     1.415   1_565 S
C455   O502    1.384   .     S
C455   C458    1.391   .     A
C456   H479    1.112   .     S
C457   O492    1.383   .     S
C457   C459    1.395   .     A
C458   H463    1.084   .     S
C458   C1094   1.391   1_554 S
C459   H474    1.085   .     S
C459   C1095   1.390   .     S
C460   C173    1.366   1_465 S
C460   O61     1.399   1_565 S
C462   O500    1.302   .     A
C462   O642    1.295   1_455 S
H480   C24     1.114   1_565 S
H481   C24     1.110   1_565 S
H484   C1157   1.084   1_554 S
H486   N489    1.027   .     S
H487   N490    1.029   .     S
H488   C522    1.111   .     S
N489   N490    1.286   .     D
N489   Zn504   2.019   .     S
N490   Zn503   2.019   .     S
O491   Zn503   1.974   .     S
O491   C505    1.275   .     S
O494   C24     1.412   1_565 S
O494   C29     1.391   1_565 S
O495   Zn504   1.974   .     S
O495   C588    1.270   1_455 S
O496   Zn504   1.999   .     S
O497   Zn503   1.999   .     S
O498   Zn503   1.959   .     S
O498   C534    1.295   .     S
O499   Zn504   1.959   .     S
O499   C578    1.292   1_455 S
O500   Zn504   1.915   .     S
O501   Zn503   1.915   .     S
C505   C532    1.414   .     S
C505   O568    1.290   .     A
C506   C508    1.464   .     S
C506   O573    1.301   .     A
C506   O643    1.292   .     S
C507   C534    1.469   .     S
C507   C513    1.394   .     A
C508   C512    1.422   .     A
C508   C514    1.389   .     A
C509   C518    1.401   .     A
C509   H1132   1.084   .     S
C510   H557    1.085   .     S
C510   C512    1.400   .     A
C510   C519    1.396   .     A
C511   C523    1.507   .     S
C511   C579    1.419   .     S
C511   C581    1.403   .     S
C512   C594    1.503   .     S
C513   C515    1.385   .     A
C513   H555    1.077   .     S
C514   C517    1.396   .     A
C514   H554    1.084   .     S
C515   C518    1.412   .     A
C515   C520    1.414   .     A
C516   C533    1.411   .     S
C516   O569    1.295   .     A
C516   O639    1.270   .     S
C517   C521    1.409   .     A
C517   C519    1.407   .     A
C518   C1178   1.391   .     S
C519   C1179   1.390   1_554 S
C520   C529    1.432   .     A
C520   C1169   1.411   .     S
C521   C527    1.426   .     A
C521   C1168   1.411   1_554 S
C522   H537    1.102   .     S
C522   H536    1.107   .     S
C523   H539    1.110   .     S
C523   H540    1.111   .     S
C523   H538    1.109   .     S
C524   H542    1.115   .     S
C524   H543    1.100   .     S
C524   H541    1.105   .     S
C524   O574    1.419   .     S
C525   H544    1.110   .     S
C525   H545    1.113   .     S
C525   O564    1.411   .     S
C525   H547    1.113   .     S
C526   H548    1.115   .     S
C526   H549    1.110   .     S
C526   H118    1.109   1_565 S
C526   O133    1.415   1_565 S
C527   O574    1.384   .     S
C527   C530    1.391   .     A
C528   H551    1.112   .     S
C529   O564    1.383   .     S
C529   C531    1.395   .     A
C530   H535    1.084   .     S
C530   C1166   1.391   1_554 S
C531   H546    1.085   .     S
C531   C1167   1.390   .     S
C532   C29     1.366   1_565 S
C532   O133    1.399   1_565 S
C534   O572    1.302   .     A
H552   C96     1.114   1_565 S
H553   C96     1.110   1_565 S
H556   C1229   1.084   1_554 S
H558   N561    1.027   .     S
H559   N562    1.029   .     S
H560   C594    1.111   .     S
N561   N562    1.286   .     D
N561   Zn576   2.019   .     S
N562   Zn575   2.019   .     S
O563   Zn575   1.974   .     S
O563   C577    1.275   .     S
O566   C96     1.412   1_565 S
O566   C101    1.391   1_565 S
O567   Zn576   1.974   .     S
O568   Zn576   1.999   .     S
O569   Zn575   1.999   .     S
O570   Zn575   1.959   .     S
O570   C606    1.295   .     S
O571   Zn576   1.959   .     S
O572   Zn576   1.915   .     S
O573   Zn575   1.915   .     S
C577   C604    1.414   .     S
C577   O640    1.290   .     A
C578   C580    1.464   .     S
C578   O645    1.301   .     A
C578   O499    1.292   1_655 S
C579   C606    1.469   .     S
C579   C585    1.394   .     A
C580   C584    1.422   .     A
C580   C586    1.389   .     A
C581   C590    1.401   .     A
C581   H1204   1.084   .     S
C582   H629    1.085   .     S
C582   C584    1.400   .     A
C582   C591    1.396   .     A
C583   C595    1.507   .     S
C583   C435    1.419   1_655 S
C583   C437    1.403   1_655 S
C584   C450    1.503   1_655 S
C585   C587    1.385   .     A
C585   H627    1.077   .     S
C586   C589    1.396   .     A
C586   H626    1.084   .     S
C587   C590    1.412   .     A
C587   C592    1.414   .     A
C588   C605    1.411   .     S
C588   O641    1.295   .     A
C588   O495    1.270   1_655 S
C589   C593    1.409   .     A
C589   C591    1.407   .     A
C590   C1250   1.391   .     S
C591   C1251   1.390   1_554 S
C592   C601    1.432   .     A
C592   C1241   1.411   .     S
C593   C599    1.426   .     A
C593   C1240   1.411   1_554 S
C594   H609    1.102   .     S
C594   H608    1.107   .     S
C595   H611    1.110   .     S
C595   H612    1.111   .     S
C595   H610    1.109   .     S
C596   H614    1.115   .     S
C596   H615    1.100   .     S
C596   H613    1.105   .     S
C596   O646    1.419   .     S
C597   H616    1.110   .     S
C597   H617    1.113   .     S
C597   O636    1.411   .     S
C597   H619    1.113   .     S
C598   H620    1.115   .     S
C598   H621    1.110   .     S
C598   H190    1.109   1_565 S
C598   O205    1.415   1_565 S
C599   O646    1.384   .     S
C599   C602    1.391   .     A
C600   H623    1.112   .     S
C601   O636    1.383   .     S
C601   C603    1.395   .     A
C602   H607    1.084   .     S
C602   C1238   1.391   1_554 S
C603   H618    1.085   .     S
C603   C1239   1.390   .     S
C604   C101    1.366   1_565 S
C604   O205    1.399   1_565 S
C605   C244    1.366   1_655 S
C606   O644    1.302   .     A
H624   C168    1.114   1_565 S
H625   C168    1.110   1_565 S
H628   C1085   1.084   1_654 S
H630   N633    1.027   .     S
H631   N634    1.029   .     S
H632   C450    1.111   1_655 S
N633   N634    1.286   .     D
N633   Zn648   2.019   .     S
N634   Zn647   2.019   .     S
O635   Zn647   1.974   .     S
O635   C433    1.275   1_655 S
O638   C168    1.412   1_565 S
O638   C173    1.391   1_565 S
O639   Zn648   1.974   .     S
O640   Zn648   1.999   .     S
O641   Zn647   1.999   .     S
O642   Zn647   1.959   .     S
O642   C462    1.295   1_655 S
O643   Zn648   1.959   .     S
O644   Zn648   1.915   .     S
O645   Zn647   1.915   .     S
C649   C676    1.414   .     S
C649   O712    1.290   .     A
C649   O851    1.275   1_455 S
C650   C652    1.464   .     S
C650   O717    1.301   .     A
C650   O787    1.292   .     S
C651   C678    1.469   .     S
C651   C657    1.394   .     A
C651   C799    1.419   1_455 S
C652   C656    1.422   .     A
C652   C658    1.389   .     A
C653   C662    1.401   .     A
C653   C799    1.403   1_455 S
C653   H196    1.084   1_456 S
C654   H701    1.085   .     S
C654   C656    1.400   .     A
C654   C663    1.396   .     A
C655   C667    1.507   .     S
C655   C723    1.419   .     S
C655   C725    1.403   .     S
C656   C738    1.503   .     S
C657   C659    1.385   .     A
C657   H699    1.077   .     S
C658   C661    1.396   .     A
C658   H698    1.084   .     S
C659   C662    1.412   .     A
C659   C664    1.414   .     A
C660   C677    1.411   .     S
C660   O713    1.295   .     A
C660   O783    1.270   .     S
C661   C665    1.409   .     A
C661   C663    1.407   .     A
C662   C26     1.391   1_556 S
C664   C673    1.432   .     A
C664   C17     1.411   1_556 S
C665   C671    1.426   .     A
C666   H681    1.102   .     S
C666   H680    1.107   .     S
C666   C800    1.503   1_455 S
C666   H848    1.111   1_455 S
C667   H683    1.110   .     S
C667   H684    1.111   .     S
C667   H682    1.109   .     S
C668   H686    1.115   .     S
C668   H687    1.100   .     S
C668   H685    1.105   .     S
C668   O718    1.419   .     S
C669   H688    1.110   .     S
C669   H689    1.113   .     S
C669   O708    1.411   .     S
C669   H691    1.113   .     S
C670   H692    1.115   .     S
C670   H693    1.110   .     S
C670   H910    1.109   .     S
C670   O925    1.415   .     S
C671   O718    1.384   .     S
C671   C674    1.391   .     A
C672   H695    1.112   .     S
C672   H1128   1.114   1_545 S
C672   H1129   1.110   1_545 S
C672   O1142   1.412   1_545 S
C673   O708    1.383   .     S
C673   C675    1.395   .     A
C674   H679    1.084   .     S
C675   H690    1.085   .     S
C675   C15     1.390   1_556 S
C676   C1037   1.366   1_455 S
C676   O925    1.399   .     S
C677   C1180   1.366   1_545 S
C677   O1142   1.391   1_545 S
C678   O716    1.302   .     A
C678   O858    1.295   1_455 S
H694   C1102   1.109   1_545 S
H696   C888    1.114   .     S
H697   C888    1.110   .     S
H702   N705    1.027   .     S
H703   N706    1.029   .     S
H704   C738    1.111   .     S
N705   N706    1.286   .     D
N705   Zn720   2.019   .     S
N706   Zn719   2.019   .     S
O707   Zn719   1.974   .     S
O707   C721    1.275   .     S
O709   C1108   1.399   1_545 S
O709   C1102   1.415   1_545 S
O710   C888    1.412   .     S
O710   C893    1.391   .     S
O711   Zn720   1.974   .     S
O711   C804    1.270   1_455 S
O712   Zn720   1.999   .     S
O713   Zn719   1.999   .     S
O714   Zn719   1.959   .     S
O714   C750    1.295   .     S
O715   Zn720   1.959   .     S
O715   C794    1.292   1_455 S
O716   Zn720   1.915   .     S
O717   Zn719   1.915   .     S
C721   C748    1.414   .     S
C721   O784    1.290   .     A
C722   C724    1.464   .     S
C722   O789    1.301   .     A
C722   O859    1.292   .     S
C723   C750    1.469   .     S
C723   C729    1.394   .     A
C724   C728    1.422   .     A
C724   C730    1.389   .     A
C725   C734    1.401   .     A
C725   H52     1.084   1_556 S
C726   H773    1.085   .     S
C726   C728    1.400   .     A
C726   C735    1.396   .     A
C727   C739    1.507   .     S
C727   C795    1.419   .     S
C727   C797    1.403   .     S
C728   C810    1.503   .     S
C729   C731    1.385   .     A
C729   H771    1.077   .     S
C730   C733    1.396   .     A
C730   H770    1.084   .     S
C731   C734    1.412   .     A
C731   C736    1.414   .     A
C732   C749    1.411   .     S
C732   O785    1.295   .     A
C732   O855    1.270   .     S
C733   C737    1.409   .     A
C733   C735    1.407   .     A
C734   C98     1.391   1_556 S
C736   C745    1.432   .     A
C736   C89     1.411   1_556 S
C737   C743    1.426   .     A
C738   H753    1.102   .     S
C738   H752    1.107   .     S
C739   H755    1.110   .     S
C739   H756    1.111   .     S
C739   H754    1.109   .     S
C740   H758    1.115   .     S
C740   H759    1.100   .     S
C740   H757    1.105   .     S
C740   O790    1.419   .     S
C741   H760    1.110   .     S
C741   H761    1.113   .     S
C741   O780    1.411   .     S
C741   H763    1.113   .     S
C742   H764    1.115   .     S
C742   H765    1.110   .     S
C742   H982    1.109   .     S
C742   O997    1.415   .     S
C743   O790    1.384   .     S
C743   C746    1.391   .     A
C744   H767    1.112   .     S
C744   H1200   1.114   1_545 S
C744   H1201   1.110   1_545 S
C744   O1214   1.412   1_545 S
C745   O780    1.383   .     S
C745   C747    1.395   .     A
C746   H751    1.084   .     S
C747   H762    1.085   .     S
C747   C87     1.390   1_556 S
C748   C893    1.366   .     S
C748   O997    1.399   .     S
C749   C1252   1.366   1_545 S
C749   O1214   1.391   1_545 S
C750   O788    1.302   .     A
H766   C1174   1.109   1_545 S
H768   C960    1.114   .     S
H769   C960    1.110   .     S
H774   N777    1.027   .     S
H775   N778    1.029   .     S
H776   C810    1.111   .     S
N777   N778    1.286   .     D
N777   Zn792   2.019   .     S
N778   Zn791   2.019   .     S
O779   Zn791   1.974   .     S
O779   C793    1.275   .     S
O781   C1180   1.399   1_545 S
O781   C1174   1.415   1_545 S
O782   C960    1.412   .     S
O782   C965    1.391   .     S
O783   Zn792   1.974   .     S
O784   Zn792   1.999   .     S
O785   Zn791   1.999   .     S
O786   Zn791   1.959   .     S
O786   C822    1.295   .     S
O787   Zn792   1.959   .     S
O788   Zn792   1.915   .     S
O789   Zn791   1.915   .     S
C793   C820    1.414   .     S
C793   O856    1.290   .     A
C794   C796    1.464   .     S
C794   O861    1.301   .     A
C794   O715    1.292   1_655 S
C795   C822    1.469   .     S
C795   C801    1.394   .     A
C796   C800    1.422   .     A
C796   C802    1.389   .     A
C797   C806    1.401   .     A
C797   H124    1.084   1_556 S
C798   H845    1.085   .     S
C798   C800    1.400   .     A
C798   C807    1.396   .     A
C799   C811    1.507   .     S
C799   C651    1.419   1_655 S
C799   C653    1.403   1_655 S
C800   C666    1.503   1_655 S
C801   C803    1.385   .     A
C801   H843    1.077   .     S
C802   C805    1.396   .     A
C802   H842    1.084   .     S
C803   C806    1.412   .     A
C803   C808    1.414   .     A
C804   C821    1.411   .     S
C804   O857    1.295   .     A
C804   O711    1.270   1_655 S
C805   C809    1.409   .     A
C805   C807    1.407   .     A
C806   C170    1.391   1_556 S
C808   C817    1.432   .     A
C808   C161    1.411   1_556 S
C809   C815    1.426   .     A
C810   H825    1.102   .     S
C810   H824    1.107   .     S
C811   H827    1.110   .     S
C811   H828    1.111   .     S
C811   H826    1.109   .     S
C812   H830    1.115   .     S
C812   H831    1.100   .     S
C812   H829    1.105   .     S
C812   O862    1.419   .     S
C813   H832    1.110   .     S
C813   H833    1.113   .     S
C813   O852    1.411   .     S
C813   H835    1.113   .     S
C814   H836    1.115   .     S
C814   H837    1.110   .     S
C814   H1054   1.109   .     S
C814   O1069   1.415   .     S
C815   O862    1.384   .     S
C815   C818    1.391   .     A
C816   H839    1.112   .     S
C816   H1272   1.114   1_545 S
C816   H1273   1.110   1_545 S
C816   O1286   1.412   1_545 S
C817   O852    1.383   .     S
C817   C819    1.395   .     A
C818   H823    1.084   .     S
C819   H834    1.085   .     S
C819   C159    1.390   1_556 S
C820   C965    1.366   .     S
C820   O1069   1.399   .     S
C821   C1108   1.366   1_645 S
C821   O1286   1.391   1_545 S
C822   O860    1.302   .     A
H838   C1246   1.109   1_545 S
H840   C1032   1.114   .     S
H841   C1032   1.110   .     S
H844   C5      1.084   1_655 S
H846   N849    1.027   .     S
H847   N850    1.029   .     S
H848   C666    1.111   1_655 S
N849   N850    1.286   .     D
N849   Zn864   2.019   .     S
N850   Zn863   2.019   .     S
O851   Zn863   1.974   .     S
O851   C649    1.275   1_655 S
O853   C1252   1.399   1_545 S
O853   C1246   1.415   1_545 S
O854   C1032   1.412   .     S
O854   C1037   1.391   .     S
O855   Zn864   1.974   .     S
O856   Zn864   1.999   .     S
O857   Zn863   1.999   .     S
O858   Zn863   1.959   .     S
O858   C678    1.295   1_655 S
O859   Zn864   1.959   .     S
O860   Zn864   1.915   .     S
O861   Zn863   1.915   .     S
C865   C892    1.414   .     S
C865   O928    1.290   .     A
C865   O1067   1.275   1_455 S
C866   C868    1.464   .     S
C866   O933    1.301   .     A
C866   O1003   1.292   .     S
C867   C894    1.469   .     S
C867   C873    1.394   .     A
C867   C1015   1.419   1_455 S
C868   C872    1.422   .     A
C868   C874    1.389   .     A
C869   C878    1.401   .     A
C869   C1015   1.403   1_455 S
C869   H412    1.084   1_456 S
C870   H917    1.085   .     S
C870   C872    1.400   .     A
C870   C879    1.396   .     A
C871   C883    1.507   .     S
C871   C939    1.419   .     S
C871   C941    1.403   .     S
C872   C954    1.503   .     S
C873   C875    1.385   .     A
C873   H915    1.077   .     S
C874   C877    1.396   .     A
C874   H914    1.084   .     S
C875   C878    1.412   .     A
C875   C880    1.414   .     A
C876   C893    1.411   .     S
C876   O929    1.295   .     A
C876   O999    1.270   .     S
C877   C881    1.409   .     A
C877   C879    1.407   .     A
C878   C242    1.391   1_556 S
C880   C889    1.432   .     A
C880   C233    1.411   1_556 S
C881   C887    1.426   .     A
C882   H897    1.102   .     S
C882   H896    1.107   .     S
C882   C1016   1.503   1_455 S
C882   H1064   1.111   1_455 S
C883   H899    1.110   .     S
C883   H900    1.111   .     S
C883   H898    1.109   .     S
C884   H902    1.115   .     S
C884   H903    1.100   .     S
C884   H901    1.105   .     S
C884   O934    1.419   .     S
C885   H904    1.110   .     S
C885   H905    1.113   .     S
C885   O924    1.411   .     S
C885   H907    1.113   .     S
C886   H908    1.115   .     S
C886   H909    1.110   .     S
C886   H1126   1.109   .     S
C886   O1141   1.415   .     S
C887   O934    1.384   .     S
C887   C890    1.391   .     A
C888   H911    1.112   .     S
C889   O924    1.383   .     S
C889   C891    1.395   .     A
C890   H895    1.084   .     S
C891   H906    1.085   .     S
C891   C231    1.390   1_556 S
C892   C1253   1.366   1_455 S
C892   O1141   1.399   .     S
C894   O932    1.302   .     A
C894   O1074   1.295   1_455 S
H912   C1104   1.114   .     S
H913   C1104   1.110   .     S
H918   N921    1.027   .     S
H919   N922    1.029   .     S
H920   C954    1.111   .     S
N921   N922    1.286   .     D
N921   Zn936   2.019   .     S
N922   Zn935   2.019   .     S
O923   Zn935   1.974   .     S
O923   C937    1.275   .     S
O926   C1104   1.412   .     S
O926   C1109   1.391   .     S
O927   Zn936   1.974   .     S
O927   C1020   1.270   1_455 S
O928   Zn936   1.999   .     S
O929   Zn935   1.999   .     S
O930   Zn935   1.959   .     S
O930   C966    1.295   .     S
O931   Zn936   1.959   .     S
O931   C1010   1.292   1_455 S
O932   Zn936   1.915   .     S
O933   Zn935   1.915   .     S
C937   C964    1.414   .     S
C937   O1000   1.290   .     A
C938   C940    1.464   .     S
C938   O1005   1.301   .     A
C938   O1075   1.292   .     S
C939   C966    1.469   .     S
C939   C945    1.394   .     A
C940   C944    1.422   .     A
C940   C946    1.389   .     A
C941   C950    1.401   .     A
C941   H268    1.084   1_556 S
C942   H989    1.085   .     S
C942   C944    1.400   .     A
C942   C951    1.396   .     A
C943   C955    1.507   .     S
C943   C1011   1.419   .     S
C943   C1013   1.403   .     S
C944   C1026   1.503   .     S
C945   C947    1.385   .     A
C945   H987    1.077   .     S
C946   C949    1.396   .     A
C946   H986    1.084   .     S
C947   C950    1.412   .     A
C947   C952    1.414   .     A
C948   C965    1.411   .     S
C948   O1001   1.295   .     A
C948   O1071   1.270   .     S
C949   C953    1.409   .     A
C949   C951    1.407   .     A
C950   C314    1.391   1_556 S
C952   C961    1.432   .     A
C952   C305    1.411   1_556 S
C953   C959    1.426   .     A
C954   H969    1.102   .     S
C954   H968    1.107   .     S
C955   H971    1.110   .     S
C955   H972    1.111   .     S
C955   H970    1.109   .     S
C956   H974    1.115   .     S
C956   H975    1.100   .     S
C956   H973    1.105   .     S
C956   O1006   1.419   .     S
C957   H976    1.110   .     S
C957   H977    1.113   .     S
C957   O996    1.411   .     S
C957   H979    1.113   .     S
C958   H980    1.115   .     S
C958   H981    1.110   .     S
C958   H1198   1.109   .     S
C958   O1213   1.415   .     S
C959   O1006   1.384   .     S
C959   C962    1.391   .     A
C960   H983    1.112   .     S
C961   O996    1.383   .     S
C961   C963    1.395   .     A
C962   H967    1.084   .     S
C963   H978    1.085   .     S
C963   C303    1.390   1_556 S
C964   C1109   1.366   .     S
C964   O1213   1.399   .     S
C966   O1004   1.302   .     A
H984   C1176   1.114   .     S
H985   C1176   1.110   .     S
H990   N993    1.027   .     S
H991   N994    1.029   .     S
H992   C1026   1.111   .     S
N993   N994    1.286   .     D
N993   Zn1008  2.019   .     S
N994   Zn1007  2.019   .     S
O995   Zn1007  1.974   .     S
O995   C1009   1.275   .     S
O998   C1176   1.412   .     S
O998   C1181   1.391   .     S
O999   Zn1008  1.974   .     S
O1000  Zn1008  1.999   .     S
O1001  Zn1007  1.999   .     S
O1002  Zn1007  1.959   .     S
O1002  C1038   1.295   .     S
O1003  Zn1008  1.959   .     S
O1004  Zn1008  1.915   .     S
O1005  Zn1007  1.915   .     S
C1009  C1036   1.414   .     S
C1009  O1072   1.290   .     A
C1010  C1012   1.464   .     S
C1010  O1077   1.301   .     A
C1010  O931    1.292   1_655 S
C1011  C1038   1.469   .     S
C1011  C1017   1.394   .     A
C1012  C1016   1.422   .     A
C1012  C1018   1.389   .     A
C1013  C1022   1.401   .     A
C1013  H340    1.084   1_556 S
C1014  H1061   1.085   .     S
C1014  C1016   1.400   .     A
C1014  C1023   1.396   .     A
C1015  C1027   1.507   .     S
C1015  C867    1.419   1_655 S
C1015  C869    1.403   1_655 S
C1016  C882    1.503   1_655 S
C1017  C1019   1.385   .     A
C1017  H1059   1.077   .     S
C1018  C1021   1.396   .     A
C1018  H1058   1.084   .     S
C1019  C1022   1.412   .     A
C1019  C1024   1.414   .     A
C1020  C1037   1.411   .     S
C1020  O1073   1.295   .     A
C1020  O927    1.270   1_655 S
C1021  C1025   1.409   .     A
C1021  C1023   1.407   .     A
C1022  C386    1.391   1_556 S
C1024  C1033   1.432   .     A
C1024  C377    1.411   1_556 S
C1025  C1031   1.426   .     A
C1026  H1041   1.102   .     S
C1026  H1040   1.107   .     S
C1027  H1043   1.110   .     S
C1027  H1044   1.111   .     S
C1027  H1042   1.109   .     S
C1028  H1046   1.115   .     S
C1028  H1047   1.100   .     S
C1028  H1045   1.105   .     S
C1028  O1078   1.419   .     S
C1029  H1048   1.110   .     S
C1029  H1049   1.113   .     S
C1029  O1068   1.411   .     S
C1029  H1051   1.113   .     S
C1030  H1052   1.115   .     S
C1030  H1053   1.110   .     S
C1030  H1270   1.109   .     S
C1030  O1285   1.415   .     S
C1031  O1078   1.384   .     S
C1031  C1034   1.391   .     A
C1032  H1055   1.112   .     S
C1033  O1068   1.383   .     S
C1033  C1035   1.395   .     A
C1034  H1039   1.084   .     S
C1035  H1050   1.085   .     S
C1035  C375    1.390   1_556 S
C1036  C1181   1.366   .     S
C1036  O1285   1.399   .     S
C1037  C676    1.366   1_655 S
C1038  O1076   1.302   .     A
H1056  C1248   1.114   .     S
H1057  C1248   1.110   .     S
H1060  C221    1.084   1_655 S
H1062  N1065   1.027   .     S
H1063  N1066   1.029   .     S
H1064  C882    1.111   1_655 S
N1065  N1066   1.286   .     D
N1065  Zn1080  2.019   .     S
N1066  Zn1079  2.019   .     S
O1067  Zn1079  1.974   .     S
O1067  C865    1.275   1_655 S
O1070  C1248   1.412   .     S
O1070  C1253   1.391   .     S
O1071  Zn1080  1.974   .     S
O1072  Zn1080  1.999   .     S
O1073  Zn1079  1.999   .     S
O1074  Zn1079  1.959   .     S
O1074  C894    1.295   1_655 S
O1075  Zn1080  1.959   .     S
O1076  Zn1080  1.915   .     S
O1077  Zn1079  1.915   .     S
C1081  C1108   1.414   .     S
C1081  O1144   1.290   .     A
C1081  O1283   1.275   1_455 S
C1082  C1084   1.464   .     S
C1082  O1149   1.301   .     A
C1082  O1219   1.292   .     S
C1083  C1110   1.469   .     S
C1083  C1089   1.394   .     A
C1083  C1231   1.419   1_455 S
C1084  C1088   1.422   .     A
C1084  C1090   1.389   .     A
C1085  C1094   1.401   .     A
C1085  C1231   1.403   1_455 S
C1085  H628    1.084   1_456 S
C1086  H1133   1.085   .     S
C1086  C1088   1.400   .     A
C1086  C1095   1.396   .     A
C1087  C1099   1.507   .     S
C1087  C1155   1.419   .     S
C1087  C1157   1.403   .     S
C1088  C1170   1.503   .     S
C1089  C1091   1.385   .     A
C1089  H1131   1.077   .     S
C1090  C1093   1.396   .     A
C1090  H1130   1.084   .     S
C1091  C1094   1.412   .     A
C1091  C1096   1.414   .     A
C1092  C1109   1.411   .     S
C1092  O1145   1.295   .     A
C1092  O1215   1.270   .     S
C1093  C1097   1.409   .     A
C1093  C1095   1.407   .     A
C1094  C458    1.391   1_556 S
C1096  C1105   1.432   .     A
C1096  C449    1.411   1_556 S
C1097  C1103   1.426   .     A
C1098  H1113   1.102   .     S
C1098  H1112   1.107   .     S
C1098  C1232   1.503   1_455 S
C1098  H1280   1.111   1_455 S
C1099  H1115   1.110   .     S
C1099  H1116   1.111   .     S
C1099  H1114   1.109   .     S
C1100  H1118   1.115   .     S
C1100  H1119   1.100   .     S
C1100  H1117   1.105   .     S
C1100  O1150   1.419   .     S
C1101  H1120   1.110   .     S
C1101  H1121   1.113   .     S
C1101  O1140   1.411   .     S
C1101  H1123   1.113   .     S
C1102  H1124   1.115   .     S
C1102  H1125   1.110   .     S
C1102  H694    1.109   1_565 S
C1102  O709    1.415   1_565 S
C1103  O1150   1.384   .     S
C1103  C1106   1.391   .     A
C1104  H1127   1.112   .     S
C1105  O1140   1.383   .     S
C1105  C1107   1.395   .     A
C1106  H1111   1.084   .     S
C1107  H1122   1.085   .     S
C1107  C447    1.390   1_556 S
C1108  C821    1.366   1_465 S
C1108  O709    1.399   1_565 S
C1110  O1148   1.302   .     A
C1110  O1290   1.295   1_455 S
H1128  C672    1.114   1_565 S
H1129  C672    1.110   1_565 S
H1134  N1137   1.027   .     S
H1135  N1138   1.029   .     S
H1136  C1170   1.111   .     S
N1137  N1138   1.286   .     D
N1137  Zn1152  2.019   .     S
N1138  Zn1151  2.019   .     S
O1139  Zn1151  1.974   .     S
O1139  C1153   1.275   .     S
O1142  C672    1.412   1_565 S
O1142  C677    1.391   1_565 S
O1143  Zn1152  1.974   .     S
O1143  C1236   1.270   1_455 S
O1144  Zn1152  1.999   .     S
O1145  Zn1151  1.999   .     S
O1146  Zn1151  1.959   .     S
O1146  C1182   1.295   .     S
O1147  Zn1152  1.959   .     S
O1147  C1226   1.292   1_455 S
O1148  Zn1152  1.915   .     S
O1149  Zn1151  1.915   .     S
C1153  C1180   1.414   .     S
C1153  O1216   1.290   .     A
C1154  C1156   1.464   .     S
C1154  O1221   1.301   .     A
C1154  O1291   1.292   .     S
C1155  C1182   1.469   .     S
C1155  C1161   1.394   .     A
C1156  C1160   1.422   .     A
C1156  C1162   1.389   .     A
C1157  C1166   1.401   .     A
C1157  H484    1.084   1_556 S
C1158  H1205   1.085   .     S
C1158  C1160   1.400   .     A
C1158  C1167   1.396   .     A
C1159  C1171   1.507   .     S
C1159  C1227   1.419   .     S
C1159  C1229   1.403   .     S
C1160  C1242   1.503   .     S
C1161  C1163   1.385   .     A
C1161  H1203   1.077   .     S
C1162  C1165   1.396   .     A
C1162  H1202   1.084   .     S
C1163  C1166   1.412   .     A
C1163  C1168   1.414   .     A
C1164  C1181   1.411   .     S
C1164  O1217   1.295   .     A
C1164  O1287   1.270   .     S
C1165  C1169   1.409   .     A
C1165  C1167   1.407   .     A
C1166  C530    1.391   1_556 S
C1168  C1177   1.432   .     A
C1168  C521    1.411   1_556 S
C1169  C1175   1.426   .     A
C1170  H1185   1.102   .     S
C1170  H1184   1.107   .     S
C1171  H1187   1.110   .     S
C1171  H1188   1.111   .     S
C1171  H1186   1.109   .     S
C1172  H1190   1.115   .     S
C1172  H1191   1.100   .     S
C1172  H1189   1.105   .     S
C1172  O1222   1.419   .     S
C1173  H1192   1.110   .     S
C1173  H1193   1.113   .     S
C1173  O1212   1.411   .     S
C1173  H1195   1.113   .     S
C1174  H1196   1.115   .     S
C1174  H1197   1.110   .     S
C1174  H766    1.109   1_565 S
C1174  O781    1.415   1_565 S
C1175  O1222   1.384   .     S
C1175  C1178   1.391   .     A
C1176  H1199   1.112   .     S
C1177  O1212   1.383   .     S
C1177  C1179   1.395   .     A
C1178  H1183   1.084   .     S
C1179  H1194   1.085   .     S
C1179  C519    1.390   1_556 S
C1180  C677    1.366   1_565 S
C1180  O781    1.399   1_565 S
C1182  O1220   1.302   .     A
H1200  C744    1.114   1_565 S
H1201  C744    1.110   1_565 S
H1206  N1209   1.027   .     S
H1207  N1210   1.029   .     S
H1208  C1242   1.111   .     S
N1209  N1210   1.286   .     D
N1209  Zn1224  2.019   .     S
N1210  Zn1223  2.019   .     S
O1211  Zn1223  1.974   .     S
O1211  C1225   1.275   .     S
O1214  C744    1.412   1_565 S
O1214  C749    1.391   1_565 S
O1215  Zn1224  1.974   .     S
O1216  Zn1224  1.999   .     S
O1217  Zn1223  1.999   .     S
O1218  Zn1223  1.959   .     S
O1218  C1254   1.295   .     S
O1219  Zn1224  1.959   .     S
O1220  Zn1224  1.915   .     S
O1221  Zn1223  1.915   .     S
C1225  C1252   1.414   .     S
C1225  O1288   1.290   .     A
C1226  C1228   1.464   .     S
C1226  O1293   1.301   .     A
C1226  O1147   1.292   1_655 S
C1227  C1254   1.469   .     S
C1227  C1233   1.394   .     A
C1228  C1232   1.422   .     A
C1228  C1234   1.389   .     A
C1229  C1238   1.401   .     A
C1229  H556    1.084   1_556 S
C1230  H1277   1.085   .     S
C1230  C1232   1.400   .     A
C1230  C1239   1.396   .     A
C1231  C1243   1.507   .     S
C1231  C1083   1.419   1_655 S
C1231  C1085   1.403   1_655 S
C1232  C1098   1.503   1_655 S
C1233  C1235   1.385   .     A
C1233  H1275   1.077   .     S
C1234  C1237   1.396   .     A
C1234  H1274   1.084   .     S
C1235  C1238   1.412   .     A
C1235  C1240   1.414   .     A
C1236  C1253   1.411   .     S
C1236  O1289   1.295   .     A
C1236  O1143   1.270   1_655 S
C1237  C1241   1.409   .     A
C1237  C1239   1.407   .     A
C1238  C602    1.391   1_556 S
C1240  C1249   1.432   .     A
C1240  C593    1.411   1_556 S
C1241  C1247   1.426   .     A
C1242  H1257   1.102   .     S
C1242  H1256   1.107   .     S
C1243  H1259   1.110   .     S
C1243  H1260   1.111   .     S
C1243  H1258   1.109   .     S
C1244  H1262   1.115   .     S
C1244  H1263   1.100   .     S
C1244  H1261   1.105   .     S
C1244  O1294   1.419   .     S
C1245  H1264   1.110   .     S
C1245  H1265   1.113   .     S
C1245  O1284   1.411   .     S
C1245  H1267   1.113   .     S
C1246  H1268   1.115   .     S
C1246  H1269   1.110   .     S
C1246  H838    1.109   1_565 S
C1246  O853    1.415   1_565 S
C1247  O1294   1.384   .     S
C1247  C1250   1.391   .     A
C1248  H1271   1.112   .     S
C1249  O1284   1.383   .     S
C1249  C1251   1.395   .     A
C1250  H1255   1.084   .     S
C1251  H1266   1.085   .     S
C1251  C591    1.390   1_556 S
C1252  C749    1.366   1_565 S
C1252  O853    1.399   1_565 S
C1253  C892    1.366   1_655 S
C1254  O1292   1.302   .     A
H1272  C816    1.114   1_565 S
H1273  C816    1.110   1_565 S
H1276  C437    1.084   1_655 S
H1278  N1281   1.027   .     S
H1279  N1282   1.029   .     S
H1280  C1098   1.111   1_655 S
N1281  N1282   1.286   .     D
N1281  Zn1296  2.019   .     S
N1282  Zn1295  2.019   .     S
O1283  Zn1295  1.974   .     S
O1283  C1081   1.275   1_655 S
O1286  C816    1.412   1_565 S
O1286  C821    1.391   1_565 S
O1287  Zn1296  1.974   .     S
O1288  Zn1296  1.999   .     S
O1289  Zn1295  1.999   .     S
O1290  Zn1295  1.959   .     S
O1290  C1110   1.295   1_655 S
O1291  Zn1296  1.959   .     S
O1292  Zn1296  1.915   .     S
O1293  Zn1295  1.915   .     S
