data_str_m3_o10_o18_pcu_sym.145
_audit_creation_date              2020-01-03
_audit_creation_method            'Materials Studio'
_symmetry_space_group_name_H-M    'P1'
_symmetry_Int_Tables_number       1
_symmetry_cell_setting            triclinic
loop_
_symmetry_equiv_pos_as_xyz
  x,y,z
_cell_length_a                    23.7042
_cell_length_b                    25.9093
_cell_length_c                    27.3592
_cell_angle_alpha                 93.2220
_cell_angle_beta                  93.1251
_cell_angle_gamma                 93.7953
loop_
_atom_site_label
_atom_site_type_symbol
_atom_site_fract_x
_atom_site_fract_y
_atom_site_fract_z
_atom_site_U_iso_or_equiv
_atom_site_adp_type
_atom_site_occupancy
C1     C     0.01454   0.26461   0.24839   0.00000  Uiso   1.00
C2     C     0.31244   0.16272   0.15894   0.00000  Uiso   1.00
C3     C     0.03085   0.17700   0.39396   0.00000  Uiso   1.00
C4     C     0.30249   0.15633   0.10604   0.00000  Uiso   1.00
C5     C     0.02308   0.22768   0.46956   0.00000  Uiso   1.00
C6     C     0.31025   0.10565   0.03044   0.00000  Uiso   1.00
C7     C     0.00490   0.21536   0.42089   0.00000  Uiso   1.00
C8     C     0.32843   0.11797   0.07911   0.00000  Uiso   1.00
C9     C     0.07152   0.14843   0.41676   0.00000  Uiso   1.00
C10    C     0.26182   0.18490   0.08324   0.00000  Uiso   1.00
C11    C     0.09968   0.16940   0.46079   0.00000  Uiso   1.00
C12    C     0.31879   0.06873   0.25161   0.00000  Uiso   1.00
C13    C     0.23366   0.16393   0.03921   0.00000  Uiso   1.00
C14    C     0.07176   0.20652   0.48904   0.00000  Uiso   1.00
C15    C     0.26158   0.12681   0.01096   0.00000  Uiso   1.00
C16    C     0.15505   0.15677   0.47663   0.00000  Uiso   1.00
C17    C     0.17828   0.17656   0.02337   0.00000  Uiso   1.00
C18    C     0.25935   0.24090   0.10094   0.00000  Uiso   1.00
C19    C     0.07398   0.09243   0.39905   0.00000  Uiso   1.00
C20    C     0.07033   0.00418   0.29088   0.00000  Uiso   1.00
C21    C     0.26302   0.32915   0.20910   0.00000  Uiso   1.00
C22    C     0.16073   0.13096   0.19136   0.00000  Uiso   1.00
C23    C     0.14404   0.20561   0.05379   0.00000  Uiso   1.00
C24    C     0.17260   0.20238   0.30864   0.00000  Uiso   1.00
C25    C     0.18929   0.12772   0.44621   0.00000  Uiso   1.00
C26    C     0.09284   0.22212   0.03621   0.00000  Uiso   1.00
C27    C     0.24050   0.11121   0.46379   0.00000  Uiso   1.00
C28    C     0.02192   0.31891   0.25634   0.00000  Uiso   1.00
C29    C     0.31141   0.01442   0.24366   0.00000  Uiso   1.00
C30    C     0.02090   0.17061   0.34106   0.00000  Uiso   1.00
H31    H     0.06976   0.24735   0.05964   0.00000  Uiso   1.00
H32    H     0.23612   0.24348   0.13495   0.00000  Uiso   1.00
H33    H     0.30306   0.25869   0.10906   0.00000  Uiso   1.00
H34    H     0.09722   0.08985   0.36504   0.00000  Uiso   1.00
H35    H     0.09365   0.06920   0.42742   0.00000  Uiso   1.00
H36    H     0.03028   0.07464   0.39094   0.00000  Uiso   1.00
H37    H     0.14987   0.03738   0.30045   0.00000  Uiso   1.00
H38    H     0.18347   0.29596   0.19949   0.00000  Uiso   1.00
H39    H     0.19032   0.07164   0.15249   0.00000  Uiso   1.00
H40    H     0.14304   0.26172   0.34751   0.00000  Uiso   1.00
H41    H     0.26358   0.08598   0.44036   0.00000  Uiso   1.00
H42    H     0.02849   0.09713   0.09589   0.00000  Uiso   1.00
H43    H     0.30485   0.23621   0.40411   0.00000  Uiso   1.00
H44    H     0.00185   0.25642   0.49071   0.00000  Uiso   1.00
H45    H     0.33148   0.07691   0.00929   0.00000  Uiso   1.00
H46    H     0.15601   0.21679   0.09144   0.00000  Uiso   1.00
H47    H     0.17732   0.11655   0.40856   0.00000  Uiso   1.00
H48    H     0.23968   0.26413   0.07258   0.00000  Uiso   1.00
N49    N     0.14695   0.15216   0.23739   0.00000  Uiso   1.00
N50    N     0.18638   0.18117   0.26260   0.00000  Uiso   1.00
O51    O     0.29719   0.24631   0.25309   0.00000  Uiso   1.00
O52    O     0.11950   0.02755   0.27339   0.00000  Uiso   1.00
O53    O     0.26544   0.00393   0.16568   0.00000  Uiso   1.00
O54    O     0.21384   0.30578   0.22657   0.00000  Uiso   1.00
O55    O     0.14684   0.15221   0.15435   0.00000  Uiso   1.00
O56    O     0.18505   0.08351   0.18779   0.00000  Uiso   1.00
O57    O     0.18648   0.18113   0.34565   0.00000  Uiso   1.00
O58    O     0.14830   0.24983   0.31220   0.00000  Uiso   1.00
O59    O     0.03614   0.08702   0.24690   0.00000  Uiso   1.00
O60    O     0.05822   0.23702   0.24501   0.00000  Uiso   1.00
O61    O     0.27512   0.09632   0.25498   0.00000  Uiso   1.00
O62    O     0.30328   0.17397   0.32247   0.00000  Uiso   1.00
O63    O     0.03005   0.15937   0.17753   0.00000  Uiso   1.00
O64    O     0.06431   0.16467   0.31439   0.00000  Uiso   1.00
O65    O     0.26902   0.16866   0.18561   0.00000  Uiso   1.00
O66    O     0.06793   0.32941   0.33430   0.00000  Uiso   1.00
Zn67   Zn    0.27033   0.17287   0.25539   0.00000  Uiso   1.00
Zn68   Zn    0.06300   0.16046   0.24460   0.00000  Uiso   1.00
C69    C     0.34787   0.26461   0.24839   0.00000  Uiso   1.00
C70    C     0.64577   0.16272   0.15894   0.00000  Uiso   1.00
C71    C     0.36418   0.17700   0.39396   0.00000  Uiso   1.00
C72    C     0.63582   0.15633   0.10604   0.00000  Uiso   1.00
C73    C     0.35642   0.22768   0.46956   0.00000  Uiso   1.00
C74    C     0.64358   0.10565   0.03044   0.00000  Uiso   1.00
C75    C     0.33823   0.21536   0.42089   0.00000  Uiso   1.00
C76    C     0.66177   0.11797   0.07911   0.00000  Uiso   1.00
C77    C     0.40485   0.14843   0.41676   0.00000  Uiso   1.00
C78    C     0.59515   0.18490   0.08324   0.00000  Uiso   1.00
C79    C     0.43301   0.16940   0.46079   0.00000  Uiso   1.00
C80    C     0.65213   0.06873   0.25161   0.00000  Uiso   1.00
C81    C     0.56699   0.16393   0.03921   0.00000  Uiso   1.00
C82    C     0.40509   0.20652   0.48904   0.00000  Uiso   1.00
C83    C     0.59491   0.12681   0.01096   0.00000  Uiso   1.00
C84    C     0.48839   0.15677   0.47663   0.00000  Uiso   1.00
C85    C     0.51161   0.17656   0.02337   0.00000  Uiso   1.00
C86    C     0.59269   0.24090   0.10094   0.00000  Uiso   1.00
C87    C     0.40732   0.09243   0.39905   0.00000  Uiso   1.00
C88    C     0.40366   0.00418   0.29088   0.00000  Uiso   1.00
C89    C     0.59635   0.32915   0.20910   0.00000  Uiso   1.00
C90    C     0.49407   0.13096   0.19136   0.00000  Uiso   1.00
C91    C     0.47738   0.20561   0.05379   0.00000  Uiso   1.00
C92    C     0.50593   0.20238   0.30864   0.00000  Uiso   1.00
C93    C     0.52263   0.12772   0.44621   0.00000  Uiso   1.00
C94    C     0.42617   0.22212   0.03621   0.00000  Uiso   1.00
C95    C     0.57383   0.11121   0.46379   0.00000  Uiso   1.00
C96    C     0.35526   0.31891   0.25634   0.00000  Uiso   1.00
C97    C     0.64474   0.01442   0.24366   0.00000  Uiso   1.00
C98    C     0.35423   0.17061   0.34106   0.00000  Uiso   1.00
H99    H     0.40309   0.24735   0.05964   0.00000  Uiso   1.00
H100   H     0.56945   0.24348   0.13495   0.00000  Uiso   1.00
H101   H     0.63639   0.25869   0.10906   0.00000  Uiso   1.00
H102   H     0.43055   0.08985   0.36504   0.00000  Uiso   1.00
H103   H     0.42699   0.06920   0.42742   0.00000  Uiso   1.00
H104   H     0.36361   0.07464   0.39094   0.00000  Uiso   1.00
H105   H     0.48321   0.03738   0.30045   0.00000  Uiso   1.00
H106   H     0.51680   0.29596   0.19949   0.00000  Uiso   1.00
H107   H     0.52366   0.07164   0.15249   0.00000  Uiso   1.00
H108   H     0.47637   0.26172   0.34751   0.00000  Uiso   1.00
H109   H     0.59691   0.08598   0.44036   0.00000  Uiso   1.00
H110   H     0.36182   0.09713   0.09589   0.00000  Uiso   1.00
H111   H     0.63818   0.23621   0.40411   0.00000  Uiso   1.00
H112   H     0.33519   0.25642   0.49071   0.00000  Uiso   1.00
H113   H     0.66481   0.07691   0.00929   0.00000  Uiso   1.00
H114   H     0.48935   0.21679   0.09144   0.00000  Uiso   1.00
H115   H     0.51066   0.11655   0.40856   0.00000  Uiso   1.00
H116   H     0.57301   0.26413   0.07258   0.00000  Uiso   1.00
N117   N     0.48029   0.15216   0.23739   0.00000  Uiso   1.00
N118   N     0.51971   0.18117   0.26260   0.00000  Uiso   1.00
O119   O     0.63052   0.24631   0.25309   0.00000  Uiso   1.00
O120   O     0.45283   0.02755   0.27339   0.00000  Uiso   1.00
O121   O     0.59877   0.00393   0.16568   0.00000  Uiso   1.00
O122   O     0.54717   0.30578   0.22657   0.00000  Uiso   1.00
O123   O     0.48017   0.15221   0.15435   0.00000  Uiso   1.00
O124   O     0.51838   0.08351   0.18779   0.00000  Uiso   1.00
O125   O     0.51981   0.18113   0.34565   0.00000  Uiso   1.00
O126   O     0.48164   0.24983   0.31220   0.00000  Uiso   1.00
O127   O     0.36948   0.08702   0.24690   0.00000  Uiso   1.00
O128   O     0.39155   0.23702   0.24501   0.00000  Uiso   1.00
O129   O     0.60845   0.09632   0.25498   0.00000  Uiso   1.00
O130   O     0.63662   0.17397   0.32247   0.00000  Uiso   1.00
O131   O     0.36338   0.15937   0.17753   0.00000  Uiso   1.00
O132   O     0.39764   0.16467   0.31439   0.00000  Uiso   1.00
O133   O     0.60236   0.16866   0.18561   0.00000  Uiso   1.00
O134   O     0.40126   0.32941   0.33430   0.00000  Uiso   1.00
Zn135  Zn    0.60366   0.17287   0.25539   0.00000  Uiso   1.00
Zn136  Zn    0.39634   0.16046   0.24460   0.00000  Uiso   1.00
C137   C     0.68121   0.26461   0.24839   0.00000  Uiso   1.00
C138   C     0.97910   0.16272   0.15894   0.00000  Uiso   1.00
C139   C     0.69751   0.17700   0.39396   0.00000  Uiso   1.00
C140   C     0.96915   0.15633   0.10604   0.00000  Uiso   1.00
C141   C     0.68975   0.22768   0.46956   0.00000  Uiso   1.00
C142   C     0.97692   0.10565   0.03044   0.00000  Uiso   1.00
C143   C     0.67156   0.21536   0.42089   0.00000  Uiso   1.00
C144   C     0.99510   0.11797   0.07911   0.00000  Uiso   1.00
C145   C     0.73819   0.14843   0.41676   0.00000  Uiso   1.00
C146   C     0.92848   0.18490   0.08324   0.00000  Uiso   1.00
C147   C     0.76635   0.16940   0.46079   0.00000  Uiso   1.00
C148   C     0.98546   0.06873   0.25161   0.00000  Uiso   1.00
C149   C     0.90032   0.16393   0.03921   0.00000  Uiso   1.00
C150   C     0.73842   0.20652   0.48904   0.00000  Uiso   1.00
C151   C     0.92824   0.12681   0.01096   0.00000  Uiso   1.00
C152   C     0.82172   0.15677   0.47663   0.00000  Uiso   1.00
C153   C     0.84495   0.17656   0.02337   0.00000  Uiso   1.00
C154   C     0.92602   0.24090   0.10094   0.00000  Uiso   1.00
C155   C     0.74065   0.09243   0.39905   0.00000  Uiso   1.00
C156   C     0.73699   0.00418   0.29088   0.00000  Uiso   1.00
C157   C     0.92969   0.32915   0.20910   0.00000  Uiso   1.00
C158   C     0.82740   0.13096   0.19136   0.00000  Uiso   1.00
C159   C     0.81071   0.20561   0.05379   0.00000  Uiso   1.00
C160   C     0.83927   0.20238   0.30864   0.00000  Uiso   1.00
C161   C     0.85596   0.12772   0.44621   0.00000  Uiso   1.00
C162   C     0.75950   0.22212   0.03621   0.00000  Uiso   1.00
C163   C     0.90716   0.11121   0.46379   0.00000  Uiso   1.00
C164   C     0.68859   0.31891   0.25634   0.00000  Uiso   1.00
C165   C     0.97808   0.01442   0.24366   0.00000  Uiso   1.00
C166   C     0.68756   0.17061   0.34106   0.00000  Uiso   1.00
H167   H     0.73642   0.24735   0.05964   0.00000  Uiso   1.00
H168   H     0.90278   0.24348   0.13495   0.00000  Uiso   1.00
H169   H     0.96972   0.25869   0.10906   0.00000  Uiso   1.00
H170   H     0.76389   0.08985   0.36504   0.00000  Uiso   1.00
H171   H     0.76032   0.06920   0.42742   0.00000  Uiso   1.00
H172   H     0.69695   0.07464   0.39094   0.00000  Uiso   1.00
H173   H     0.81654   0.03738   0.30045   0.00000  Uiso   1.00
H174   H     0.85014   0.29596   0.19949   0.00000  Uiso   1.00
H175   H     0.85699   0.07164   0.15249   0.00000  Uiso   1.00
H176   H     0.80971   0.26172   0.34751   0.00000  Uiso   1.00
H177   H     0.93025   0.08598   0.44036   0.00000  Uiso   1.00
H178   H     0.69515   0.09713   0.09589   0.00000  Uiso   1.00
H179   H     0.97151   0.23621   0.40411   0.00000  Uiso   1.00
H180   H     0.66852   0.25642   0.49071   0.00000  Uiso   1.00
H181   H     0.99815   0.07691   0.00929   0.00000  Uiso   1.00
H182   H     0.82268   0.21679   0.09144   0.00000  Uiso   1.00
H183   H     0.84399   0.11655   0.40856   0.00000  Uiso   1.00
H184   H     0.90635   0.26413   0.07258   0.00000  Uiso   1.00
N185   N     0.81362   0.15216   0.23739   0.00000  Uiso   1.00
N186   N     0.85305   0.18117   0.26260   0.00000  Uiso   1.00
O187   O     0.96386   0.24631   0.25309   0.00000  Uiso   1.00
O188   O     0.78617   0.02755   0.27339   0.00000  Uiso   1.00
O189   O     0.93210   0.00393   0.16568   0.00000  Uiso   1.00
O190   O     0.88050   0.30578   0.22657   0.00000  Uiso   1.00
O191   O     0.81351   0.15221   0.15435   0.00000  Uiso   1.00
O192   O     0.85172   0.08351   0.18779   0.00000  Uiso   1.00
O193   O     0.85315   0.18113   0.34565   0.00000  Uiso   1.00
O194   O     0.81497   0.24983   0.31220   0.00000  Uiso   1.00
O195   O     0.70281   0.08702   0.24690   0.00000  Uiso   1.00
O196   O     0.72488   0.23702   0.24501   0.00000  Uiso   1.00
O197   O     0.94178   0.09632   0.25498   0.00000  Uiso   1.00
O198   O     0.96995   0.17397   0.32247   0.00000  Uiso   1.00
O199   O     0.69672   0.15937   0.17753   0.00000  Uiso   1.00
O200   O     0.73098   0.16467   0.31439   0.00000  Uiso   1.00
O201   O     0.93569   0.16866   0.18561   0.00000  Uiso   1.00
O202   O     0.73460   0.32941   0.33430   0.00000  Uiso   1.00
Zn203  Zn    0.93700   0.17287   0.25539   0.00000  Uiso   1.00
Zn204  Zn    0.72967   0.16046   0.24460   0.00000  Uiso   1.00
C205   C     0.01454   0.59794   0.24839   0.00000  Uiso   1.00
C206   C     0.31244   0.49606   0.15894   0.00000  Uiso   1.00
C207   C     0.03085   0.51034   0.39396   0.00000  Uiso   1.00
C208   C     0.30249   0.48966   0.10604   0.00000  Uiso   1.00
C209   C     0.02308   0.56101   0.46956   0.00000  Uiso   1.00
C210   C     0.31025   0.43898   0.03044   0.00000  Uiso   1.00
C211   C     0.00490   0.54869   0.42089   0.00000  Uiso   1.00
C212   C     0.32843   0.45130   0.07911   0.00000  Uiso   1.00
C213   C     0.07152   0.48176   0.41676   0.00000  Uiso   1.00
C214   C     0.26182   0.51823   0.08324   0.00000  Uiso   1.00
C215   C     0.09968   0.50273   0.46079   0.00000  Uiso   1.00
C216   C     0.31879   0.40206   0.25161   0.00000  Uiso   1.00
C217   C     0.23366   0.49726   0.03921   0.00000  Uiso   1.00
C218   C     0.07176   0.53986   0.48904   0.00000  Uiso   1.00
C219   C     0.26158   0.46014   0.01096   0.00000  Uiso   1.00
C220   C     0.15505   0.49010   0.47663   0.00000  Uiso   1.00
C221   C     0.17828   0.50990   0.02337   0.00000  Uiso   1.00
C222   C     0.25935   0.57424   0.10094   0.00000  Uiso   1.00
C223   C     0.07398   0.42576   0.39905   0.00000  Uiso   1.00
C224   C     0.07033   0.33752   0.29088   0.00000  Uiso   1.00
C225   C     0.26302   0.66248   0.20910   0.00000  Uiso   1.00
C226   C     0.16073   0.46429   0.19136   0.00000  Uiso   1.00
C227   C     0.14404   0.53895   0.05379   0.00000  Uiso   1.00
C228   C     0.17260   0.53571   0.30864   0.00000  Uiso   1.00
C229   C     0.18929   0.46105   0.44621   0.00000  Uiso   1.00
C230   C     0.09284   0.55545   0.03621   0.00000  Uiso   1.00
C231   C     0.24050   0.44454   0.46379   0.00000  Uiso   1.00
C232   C     0.02192   0.65224   0.25634   0.00000  Uiso   1.00
C233   C     0.31141   0.34776   0.24366   0.00000  Uiso   1.00
C234   C     0.02090   0.50394   0.34106   0.00000  Uiso   1.00
H235   H     0.06976   0.58069   0.05964   0.00000  Uiso   1.00
H236   H     0.23612   0.57681   0.13495   0.00000  Uiso   1.00
H237   H     0.30306   0.59203   0.10906   0.00000  Uiso   1.00
H238   H     0.09722   0.42319   0.36504   0.00000  Uiso   1.00
H239   H     0.09365   0.40253   0.42742   0.00000  Uiso   1.00
H240   H     0.03028   0.40797   0.39094   0.00000  Uiso   1.00
H241   H     0.14987   0.37071   0.30045   0.00000  Uiso   1.00
H242   H     0.18347   0.62929   0.19949   0.00000  Uiso   1.00
H243   H     0.19032   0.40497   0.15249   0.00000  Uiso   1.00
H244   H     0.14304   0.59505   0.34751   0.00000  Uiso   1.00
H245   H     0.26358   0.41931   0.44036   0.00000  Uiso   1.00
H246   H     0.02849   0.43046   0.09589   0.00000  Uiso   1.00
H247   H     0.30485   0.56954   0.40411   0.00000  Uiso   1.00
H248   H     0.00185   0.58975   0.49071   0.00000  Uiso   1.00
H249   H     0.33148   0.41025   0.00929   0.00000  Uiso   1.00
H250   H     0.15601   0.55012   0.09144   0.00000  Uiso   1.00
H251   H     0.17732   0.44988   0.40856   0.00000  Uiso   1.00
H252   H     0.23968   0.59747   0.07258   0.00000  Uiso   1.00
N253   N     0.14695   0.48550   0.23739   0.00000  Uiso   1.00
N254   N     0.18638   0.51450   0.26260   0.00000  Uiso   1.00
O255   O     0.29719   0.57964   0.25309   0.00000  Uiso   1.00
O256   O     0.11950   0.36088   0.27339   0.00000  Uiso   1.00
O257   O     0.26544   0.33726   0.16568   0.00000  Uiso   1.00
O258   O     0.21384   0.63911   0.22657   0.00000  Uiso   1.00
O259   O     0.14684   0.48555   0.15435   0.00000  Uiso   1.00
O260   O     0.18505   0.41685   0.18779   0.00000  Uiso   1.00
O261   O     0.18648   0.51446   0.34565   0.00000  Uiso   1.00
O262   O     0.14830   0.58317   0.31220   0.00000  Uiso   1.00
O263   O     0.03614   0.42036   0.24690   0.00000  Uiso   1.00
O264   O     0.05822   0.57035   0.24501   0.00000  Uiso   1.00
O265   O     0.27512   0.42965   0.25498   0.00000  Uiso   1.00
O266   O     0.30328   0.50730   0.32247   0.00000  Uiso   1.00
O267   O     0.03005   0.49270   0.17753   0.00000  Uiso   1.00
O268   O     0.06431   0.49801   0.31439   0.00000  Uiso   1.00
O269   O     0.26902   0.50199   0.18561   0.00000  Uiso   1.00
O270   O     0.06793   0.66275   0.33430   0.00000  Uiso   1.00
Zn271  Zn    0.27033   0.50621   0.25539   0.00000  Uiso   1.00
Zn272  Zn    0.06300   0.49379   0.24460   0.00000  Uiso   1.00
C273   C     0.34787   0.59794   0.24839   0.00000  Uiso   1.00
C274   C     0.64577   0.49606   0.15894   0.00000  Uiso   1.00
C275   C     0.36418   0.51034   0.39396   0.00000  Uiso   1.00
C276   C     0.63582   0.48966   0.10604   0.00000  Uiso   1.00
C277   C     0.35642   0.56101   0.46956   0.00000  Uiso   1.00
C278   C     0.64358   0.43898   0.03044   0.00000  Uiso   1.00
C279   C     0.33823   0.54869   0.42089   0.00000  Uiso   1.00
C280   C     0.66177   0.45130   0.07911   0.00000  Uiso   1.00
C281   C     0.40485   0.48176   0.41676   0.00000  Uiso   1.00
C282   C     0.59515   0.51823   0.08324   0.00000  Uiso   1.00
C283   C     0.43301   0.50273   0.46079   0.00000  Uiso   1.00
C284   C     0.65213   0.40206   0.25161   0.00000  Uiso   1.00
C285   C     0.56699   0.49726   0.03921   0.00000  Uiso   1.00
C286   C     0.40509   0.53986   0.48904   0.00000  Uiso   1.00
C287   C     0.59491   0.46014   0.01096   0.00000  Uiso   1.00
C288   C     0.48839   0.49010   0.47663   0.00000  Uiso   1.00
C289   C     0.51161   0.50990   0.02337   0.00000  Uiso   1.00
C290   C     0.59269   0.57424   0.10094   0.00000  Uiso   1.00
C291   C     0.40732   0.42576   0.39905   0.00000  Uiso   1.00
C292   C     0.40366   0.33752   0.29088   0.00000  Uiso   1.00
C293   C     0.59635   0.66248   0.20910   0.00000  Uiso   1.00
C294   C     0.49407   0.46429   0.19136   0.00000  Uiso   1.00
C295   C     0.47738   0.53895   0.05379   0.00000  Uiso   1.00
C296   C     0.50593   0.53571   0.30864   0.00000  Uiso   1.00
C297   C     0.52263   0.46105   0.44621   0.00000  Uiso   1.00
C298   C     0.42617   0.55545   0.03621   0.00000  Uiso   1.00
C299   C     0.57383   0.44454   0.46379   0.00000  Uiso   1.00
C300   C     0.35526   0.65224   0.25634   0.00000  Uiso   1.00
C301   C     0.64474   0.34776   0.24366   0.00000  Uiso   1.00
C302   C     0.35423   0.50394   0.34106   0.00000  Uiso   1.00
H303   H     0.40309   0.58069   0.05964   0.00000  Uiso   1.00
H304   H     0.56945   0.57681   0.13495   0.00000  Uiso   1.00
H305   H     0.63639   0.59203   0.10906   0.00000  Uiso   1.00
H306   H     0.43055   0.42319   0.36504   0.00000  Uiso   1.00
H307   H     0.42699   0.40253   0.42742   0.00000  Uiso   1.00
H308   H     0.36361   0.40797   0.39094   0.00000  Uiso   1.00
H309   H     0.48321   0.37071   0.30045   0.00000  Uiso   1.00
H310   H     0.51680   0.62929   0.19949   0.00000  Uiso   1.00
H311   H     0.52366   0.40497   0.15249   0.00000  Uiso   1.00
H312   H     0.47637   0.59505   0.34751   0.00000  Uiso   1.00
H313   H     0.59691   0.41931   0.44036   0.00000  Uiso   1.00
H314   H     0.36182   0.43046   0.09589   0.00000  Uiso   1.00
H315   H     0.63818   0.56954   0.40411   0.00000  Uiso   1.00
H316   H     0.33519   0.58975   0.49071   0.00000  Uiso   1.00
H317   H     0.66481   0.41025   0.00929   0.00000  Uiso   1.00
H318   H     0.48935   0.55012   0.09144   0.00000  Uiso   1.00
H319   H     0.51066   0.44988   0.40856   0.00000  Uiso   1.00
H320   H     0.57301   0.59747   0.07258   0.00000  Uiso   1.00
N321   N     0.48029   0.48550   0.23739   0.00000  Uiso   1.00
N322   N     0.51971   0.51450   0.26260   0.00000  Uiso   1.00
O323   O     0.63052   0.57964   0.25309   0.00000  Uiso   1.00
O324   O     0.45283   0.36088   0.27339   0.00000  Uiso   1.00
O325   O     0.59877   0.33726   0.16568   0.00000  Uiso   1.00
O326   O     0.54717   0.63911   0.22657   0.00000  Uiso   1.00
O327   O     0.48017   0.48555   0.15435   0.00000  Uiso   1.00
O328   O     0.51838   0.41685   0.18779   0.00000  Uiso   1.00
O329   O     0.51981   0.51446   0.34565   0.00000  Uiso   1.00
O330   O     0.48164   0.58317   0.31220   0.00000  Uiso   1.00
O331   O     0.36948   0.42036   0.24690   0.00000  Uiso   1.00
O332   O     0.39155   0.57035   0.24501   0.00000  Uiso   1.00
O333   O     0.60845   0.42965   0.25498   0.00000  Uiso   1.00
O334   O     0.63662   0.50730   0.32247   0.00000  Uiso   1.00
O335   O     0.36338   0.49270   0.17753   0.00000  Uiso   1.00
O336   O     0.39764   0.49801   0.31439   0.00000  Uiso   1.00
O337   O     0.60236   0.50199   0.18561   0.00000  Uiso   1.00
O338   O     0.40126   0.66275   0.33430   0.00000  Uiso   1.00
Zn339  Zn    0.60366   0.50621   0.25539   0.00000  Uiso   1.00
Zn340  Zn    0.39634   0.49379   0.24460   0.00000  Uiso   1.00
C341   C     0.68121   0.59794   0.24839   0.00000  Uiso   1.00
C342   C     0.97910   0.49606   0.15894   0.00000  Uiso   1.00
C343   C     0.69751   0.51034   0.39396   0.00000  Uiso   1.00
C344   C     0.96915   0.48966   0.10604   0.00000  Uiso   1.00
C345   C     0.68975   0.56101   0.46956   0.00000  Uiso   1.00
C346   C     0.97692   0.43898   0.03044   0.00000  Uiso   1.00
C347   C     0.67156   0.54869   0.42089   0.00000  Uiso   1.00
C348   C     0.99510   0.45130   0.07911   0.00000  Uiso   1.00
C349   C     0.73819   0.48176   0.41676   0.00000  Uiso   1.00
C350   C     0.92848   0.51823   0.08324   0.00000  Uiso   1.00
C351   C     0.76635   0.50273   0.46079   0.00000  Uiso   1.00
C352   C     0.98546   0.40206   0.25161   0.00000  Uiso   1.00
C353   C     0.90032   0.49726   0.03921   0.00000  Uiso   1.00
C354   C     0.73842   0.53986   0.48904   0.00000  Uiso   1.00
C355   C     0.92824   0.46014   0.01096   0.00000  Uiso   1.00
C356   C     0.82172   0.49010   0.47663   0.00000  Uiso   1.00
C357   C     0.84495   0.50990   0.02337   0.00000  Uiso   1.00
C358   C     0.92602   0.57424   0.10094   0.00000  Uiso   1.00
C359   C     0.74065   0.42576   0.39905   0.00000  Uiso   1.00
C360   C     0.73699   0.33752   0.29088   0.00000  Uiso   1.00
C361   C     0.92969   0.66248   0.20910   0.00000  Uiso   1.00
C362   C     0.82740   0.46429   0.19136   0.00000  Uiso   1.00
C363   C     0.81071   0.53895   0.05379   0.00000  Uiso   1.00
C364   C     0.83927   0.53571   0.30864   0.00000  Uiso   1.00
C365   C     0.85596   0.46105   0.44621   0.00000  Uiso   1.00
C366   C     0.75950   0.55545   0.03621   0.00000  Uiso   1.00
C367   C     0.90716   0.44454   0.46379   0.00000  Uiso   1.00
C368   C     0.68859   0.65224   0.25634   0.00000  Uiso   1.00
C369   C     0.97808   0.34776   0.24366   0.00000  Uiso   1.00
C370   C     0.68756   0.50394   0.34106   0.00000  Uiso   1.00
H371   H     0.73642   0.58069   0.05964   0.00000  Uiso   1.00
H372   H     0.90278   0.57681   0.13495   0.00000  Uiso   1.00
H373   H     0.96972   0.59203   0.10906   0.00000  Uiso   1.00
H374   H     0.76389   0.42319   0.36504   0.00000  Uiso   1.00
H375   H     0.76032   0.40253   0.42742   0.00000  Uiso   1.00
H376   H     0.69695   0.40797   0.39094   0.00000  Uiso   1.00
H377   H     0.81654   0.37071   0.30045   0.00000  Uiso   1.00
H378   H     0.85014   0.62929   0.19949   0.00000  Uiso   1.00
H379   H     0.85699   0.40497   0.15249   0.00000  Uiso   1.00
H380   H     0.80971   0.59505   0.34751   0.00000  Uiso   1.00
H381   H     0.93025   0.41931   0.44036   0.00000  Uiso   1.00
H382   H     0.69515   0.43046   0.09589   0.00000  Uiso   1.00
H383   H     0.97151   0.56954   0.40411   0.00000  Uiso   1.00
H384   H     0.66852   0.58975   0.49071   0.00000  Uiso   1.00
H385   H     0.99815   0.41025   0.00929   0.00000  Uiso   1.00
H386   H     0.82268   0.55012   0.09144   0.00000  Uiso   1.00
H387   H     0.84399   0.44988   0.40856   0.00000  Uiso   1.00
H388   H     0.90635   0.59747   0.07258   0.00000  Uiso   1.00
N389   N     0.81362   0.48550   0.23739   0.00000  Uiso   1.00
N390   N     0.85305   0.51450   0.26260   0.00000  Uiso   1.00
O391   O     0.96386   0.57964   0.25309   0.00000  Uiso   1.00
O392   O     0.78617   0.36088   0.27339   0.00000  Uiso   1.00
O393   O     0.93210   0.33726   0.16568   0.00000  Uiso   1.00
O394   O     0.88050   0.63911   0.22657   0.00000  Uiso   1.00
O395   O     0.81351   0.48555   0.15435   0.00000  Uiso   1.00
O396   O     0.85172   0.41685   0.18779   0.00000  Uiso   1.00
O397   O     0.85315   0.51446   0.34565   0.00000  Uiso   1.00
O398   O     0.81497   0.58317   0.31220   0.00000  Uiso   1.00
O399   O     0.70281   0.42036   0.24690   0.00000  Uiso   1.00
O400   O     0.72488   0.57035   0.24501   0.00000  Uiso   1.00
O401   O     0.94178   0.42965   0.25498   0.00000  Uiso   1.00
O402   O     0.96995   0.50730   0.32247   0.00000  Uiso   1.00
O403   O     0.69672   0.49270   0.17753   0.00000  Uiso   1.00
O404   O     0.73098   0.49801   0.31439   0.00000  Uiso   1.00
O405   O     0.93569   0.50199   0.18561   0.00000  Uiso   1.00
O406   O     0.73460   0.66275   0.33430   0.00000  Uiso   1.00
Zn407  Zn    0.93700   0.50621   0.25539   0.00000  Uiso   1.00
Zn408  Zn    0.72967   0.49379   0.24460   0.00000  Uiso   1.00
C409   C     0.01454   0.93127   0.24839   0.00000  Uiso   1.00
C410   C     0.31244   0.82939   0.15894   0.00000  Uiso   1.00
C411   C     0.03085   0.84367   0.39396   0.00000  Uiso   1.00
C412   C     0.30249   0.82300   0.10604   0.00000  Uiso   1.00
C413   C     0.02308   0.89435   0.46956   0.00000  Uiso   1.00
C414   C     0.31025   0.77232   0.03044   0.00000  Uiso   1.00
C415   C     0.00490   0.88203   0.42089   0.00000  Uiso   1.00
C416   C     0.32843   0.78464   0.07911   0.00000  Uiso   1.00
C417   C     0.07152   0.81510   0.41676   0.00000  Uiso   1.00
C418   C     0.26182   0.85157   0.08324   0.00000  Uiso   1.00
C419   C     0.09968   0.83607   0.46079   0.00000  Uiso   1.00
C420   C     0.31879   0.73539   0.25161   0.00000  Uiso   1.00
C421   C     0.23366   0.83060   0.03921   0.00000  Uiso   1.00
C422   C     0.07176   0.87319   0.48904   0.00000  Uiso   1.00
C423   C     0.26158   0.79348   0.01096   0.00000  Uiso   1.00
C424   C     0.15505   0.82343   0.47663   0.00000  Uiso   1.00
C425   C     0.17828   0.84323   0.02337   0.00000  Uiso   1.00
C426   C     0.25935   0.90757   0.10094   0.00000  Uiso   1.00
C427   C     0.07398   0.75910   0.39905   0.00000  Uiso   1.00
C428   C     0.07033   0.67085   0.29088   0.00000  Uiso   1.00
C429   C     0.26302   0.99582   0.20910   0.00000  Uiso   1.00
C430   C     0.16073   0.79762   0.19136   0.00000  Uiso   1.00
C431   C     0.14404   0.87228   0.05379   0.00000  Uiso   1.00
C432   C     0.17260   0.86905   0.30864   0.00000  Uiso   1.00
C433   C     0.18929   0.79439   0.44621   0.00000  Uiso   1.00
C434   C     0.09284   0.88879   0.03621   0.00000  Uiso   1.00
C435   C     0.24050   0.77788   0.46379   0.00000  Uiso   1.00
C436   C     0.02192   0.98558   0.25634   0.00000  Uiso   1.00
C437   C     0.31141   0.68109   0.24366   0.00000  Uiso   1.00
C438   C     0.02090   0.83728   0.34106   0.00000  Uiso   1.00
H439   H     0.06976   0.91402   0.05964   0.00000  Uiso   1.00
H440   H     0.23612   0.91015   0.13495   0.00000  Uiso   1.00
H441   H     0.30306   0.92536   0.10906   0.00000  Uiso   1.00
H442   H     0.09722   0.75652   0.36504   0.00000  Uiso   1.00
H443   H     0.09365   0.73587   0.42742   0.00000  Uiso   1.00
H444   H     0.03028   0.74130   0.39094   0.00000  Uiso   1.00
H445   H     0.14987   0.70405   0.30045   0.00000  Uiso   1.00
H446   H     0.18347   0.96263   0.19949   0.00000  Uiso   1.00
H447   H     0.19032   0.73830   0.15249   0.00000  Uiso   1.00
H448   H     0.14304   0.92839   0.34751   0.00000  Uiso   1.00
H449   H     0.26358   0.75265   0.44036   0.00000  Uiso   1.00
H450   H     0.02849   0.76379   0.09589   0.00000  Uiso   1.00
H451   H     0.30485   0.90287   0.40411   0.00000  Uiso   1.00
H452   H     0.00185   0.92308   0.49071   0.00000  Uiso   1.00
H453   H     0.33148   0.74358   0.00929   0.00000  Uiso   1.00
H454   H     0.15601   0.88345   0.09144   0.00000  Uiso   1.00
H455   H     0.17732   0.78321   0.40856   0.00000  Uiso   1.00
H456   H     0.23968   0.93080   0.07258   0.00000  Uiso   1.00
N457   N     0.14695   0.81883   0.23739   0.00000  Uiso   1.00
N458   N     0.18638   0.84784   0.26260   0.00000  Uiso   1.00
O459   O     0.29719   0.91298   0.25309   0.00000  Uiso   1.00
O460   O     0.11950   0.69422   0.27339   0.00000  Uiso   1.00
O461   O     0.26544   0.67060   0.16568   0.00000  Uiso   1.00
O462   O     0.21384   0.97245   0.22657   0.00000  Uiso   1.00
O463   O     0.14684   0.81888   0.15435   0.00000  Uiso   1.00
O464   O     0.18505   0.75018   0.18779   0.00000  Uiso   1.00
O465   O     0.18648   0.84779   0.34565   0.00000  Uiso   1.00
O466   O     0.14830   0.91650   0.31220   0.00000  Uiso   1.00
O467   O     0.03614   0.75369   0.24690   0.00000  Uiso   1.00
O468   O     0.05822   0.90368   0.24501   0.00000  Uiso   1.00
O469   O     0.27512   0.76298   0.25498   0.00000  Uiso   1.00
O470   O     0.30328   0.84063   0.32247   0.00000  Uiso   1.00
O471   O     0.03005   0.82603   0.17753   0.00000  Uiso   1.00
O472   O     0.06431   0.83134   0.31439   0.00000  Uiso   1.00
O473   O     0.26902   0.83533   0.18561   0.00000  Uiso   1.00
O474   O     0.06793   0.99608   0.33430   0.00000  Uiso   1.00
Zn475  Zn    0.27033   0.83954   0.25539   0.00000  Uiso   1.00
Zn476  Zn    0.06300   0.82713   0.24460   0.00000  Uiso   1.00
C477   C     0.34787   0.93127   0.24839   0.00000  Uiso   1.00
C478   C     0.64577   0.82939   0.15894   0.00000  Uiso   1.00
C479   C     0.36418   0.84367   0.39396   0.00000  Uiso   1.00
C480   C     0.63582   0.82300   0.10604   0.00000  Uiso   1.00
C481   C     0.35642   0.89435   0.46956   0.00000  Uiso   1.00
C482   C     0.64358   0.77232   0.03044   0.00000  Uiso   1.00
C483   C     0.33823   0.88203   0.42089   0.00000  Uiso   1.00
C484   C     0.66177   0.78464   0.07911   0.00000  Uiso   1.00
C485   C     0.40485   0.81510   0.41676   0.00000  Uiso   1.00
C486   C     0.59515   0.85157   0.08324   0.00000  Uiso   1.00
C487   C     0.43301   0.83607   0.46079   0.00000  Uiso   1.00
C488   C     0.65213   0.73539   0.25161   0.00000  Uiso   1.00
C489   C     0.56699   0.83060   0.03921   0.00000  Uiso   1.00
C490   C     0.40509   0.87319   0.48904   0.00000  Uiso   1.00
C491   C     0.59491   0.79348   0.01096   0.00000  Uiso   1.00
C492   C     0.48839   0.82343   0.47663   0.00000  Uiso   1.00
C493   C     0.51161   0.84323   0.02337   0.00000  Uiso   1.00
C494   C     0.59269   0.90757   0.10094   0.00000  Uiso   1.00
C495   C     0.40732   0.75910   0.39905   0.00000  Uiso   1.00
C496   C     0.40366   0.67085   0.29088   0.00000  Uiso   1.00
C497   C     0.59635   0.99582   0.20910   0.00000  Uiso   1.00
C498   C     0.49407   0.79762   0.19136   0.00000  Uiso   1.00
C499   C     0.47738   0.87228   0.05379   0.00000  Uiso   1.00
C500   C     0.50593   0.86905   0.30864   0.00000  Uiso   1.00
C501   C     0.52263   0.79439   0.44621   0.00000  Uiso   1.00
C502   C     0.42617   0.88879   0.03621   0.00000  Uiso   1.00
C503   C     0.57383   0.77788   0.46379   0.00000  Uiso   1.00
C504   C     0.35526   0.98558   0.25634   0.00000  Uiso   1.00
C505   C     0.64474   0.68109   0.24366   0.00000  Uiso   1.00
C506   C     0.35423   0.83728   0.34106   0.00000  Uiso   1.00
H507   H     0.40309   0.91402   0.05964   0.00000  Uiso   1.00
H508   H     0.56945   0.91015   0.13495   0.00000  Uiso   1.00
H509   H     0.63639   0.92536   0.10906   0.00000  Uiso   1.00
H510   H     0.43055   0.75652   0.36504   0.00000  Uiso   1.00
H511   H     0.42699   0.73587   0.42742   0.00000  Uiso   1.00
H512   H     0.36361   0.74130   0.39094   0.00000  Uiso   1.00
H513   H     0.48321   0.70405   0.30045   0.00000  Uiso   1.00
H514   H     0.51680   0.96263   0.19949   0.00000  Uiso   1.00
H515   H     0.52366   0.73830   0.15249   0.00000  Uiso   1.00
H516   H     0.47637   0.92839   0.34751   0.00000  Uiso   1.00
H517   H     0.59691   0.75265   0.44036   0.00000  Uiso   1.00
H518   H     0.36182   0.76379   0.09589   0.00000  Uiso   1.00
H519   H     0.63818   0.90287   0.40411   0.00000  Uiso   1.00
H520   H     0.33519   0.92308   0.49071   0.00000  Uiso   1.00
H521   H     0.66481   0.74358   0.00929   0.00000  Uiso   1.00
H522   H     0.48935   0.88345   0.09144   0.00000  Uiso   1.00
H523   H     0.51066   0.78321   0.40856   0.00000  Uiso   1.00
H524   H     0.57301   0.93080   0.07258   0.00000  Uiso   1.00
N525   N     0.48029   0.81883   0.23739   0.00000  Uiso   1.00
N526   N     0.51971   0.84784   0.26260   0.00000  Uiso   1.00
O527   O     0.63052   0.91298   0.25309   0.00000  Uiso   1.00
O528   O     0.45283   0.69422   0.27339   0.00000  Uiso   1.00
O529   O     0.59877   0.67060   0.16568   0.00000  Uiso   1.00
O530   O     0.54717   0.97245   0.22657   0.00000  Uiso   1.00
O531   O     0.48017   0.81888   0.15435   0.00000  Uiso   1.00
O532   O     0.51838   0.75018   0.18779   0.00000  Uiso   1.00
O533   O     0.51981   0.84779   0.34565   0.00000  Uiso   1.00
O534   O     0.48164   0.91650   0.31220   0.00000  Uiso   1.00
O535   O     0.36948   0.75369   0.24690   0.00000  Uiso   1.00
O536   O     0.39155   0.90368   0.24501   0.00000  Uiso   1.00
O537   O     0.60845   0.76298   0.25498   0.00000  Uiso   1.00
O538   O     0.63662   0.84063   0.32247   0.00000  Uiso   1.00
O539   O     0.36338   0.82603   0.17753   0.00000  Uiso   1.00
O540   O     0.39764   0.83134   0.31439   0.00000  Uiso   1.00
O541   O     0.60236   0.83533   0.18561   0.00000  Uiso   1.00
O542   O     0.40126   0.99608   0.33430   0.00000  Uiso   1.00
Zn543  Zn    0.60366   0.83954   0.25539   0.00000  Uiso   1.00
Zn544  Zn    0.39634   0.82713   0.24460   0.00000  Uiso   1.00
C545   C     0.68121   0.93127   0.24839   0.00000  Uiso   1.00
C546   C     0.97910   0.82939   0.15894   0.00000  Uiso   1.00
C547   C     0.69751   0.84367   0.39396   0.00000  Uiso   1.00
C548   C     0.96915   0.82300   0.10604   0.00000  Uiso   1.00
C549   C     0.68975   0.89435   0.46956   0.00000  Uiso   1.00
C550   C     0.97692   0.77232   0.03044   0.00000  Uiso   1.00
C551   C     0.67156   0.88203   0.42089   0.00000  Uiso   1.00
C552   C     0.99510   0.78464   0.07911   0.00000  Uiso   1.00
C553   C     0.73819   0.81510   0.41676   0.00000  Uiso   1.00
C554   C     0.92848   0.85157   0.08324   0.00000  Uiso   1.00
C555   C     0.76635   0.83607   0.46079   0.00000  Uiso   1.00
C556   C     0.98546   0.73539   0.25161   0.00000  Uiso   1.00
C557   C     0.90032   0.83060   0.03921   0.00000  Uiso   1.00
C558   C     0.73842   0.87319   0.48904   0.00000  Uiso   1.00
C559   C     0.92824   0.79348   0.01096   0.00000  Uiso   1.00
C560   C     0.82172   0.82343   0.47663   0.00000  Uiso   1.00
C561   C     0.84495   0.84323   0.02337   0.00000  Uiso   1.00
C562   C     0.92602   0.90757   0.10094   0.00000  Uiso   1.00
C563   C     0.74065   0.75910   0.39905   0.00000  Uiso   1.00
C564   C     0.73699   0.67085   0.29088   0.00000  Uiso   1.00
C565   C     0.92969   0.99582   0.20910   0.00000  Uiso   1.00
C566   C     0.82740   0.79762   0.19136   0.00000  Uiso   1.00
C567   C     0.81071   0.87228   0.05379   0.00000  Uiso   1.00
C568   C     0.83927   0.86905   0.30864   0.00000  Uiso   1.00
C569   C     0.85596   0.79439   0.44621   0.00000  Uiso   1.00
C570   C     0.75950   0.88879   0.03621   0.00000  Uiso   1.00
C571   C     0.90716   0.77788   0.46379   0.00000  Uiso   1.00
C572   C     0.68859   0.98558   0.25634   0.00000  Uiso   1.00
C573   C     0.97808   0.68109   0.24366   0.00000  Uiso   1.00
C574   C     0.68756   0.83728   0.34106   0.00000  Uiso   1.00
H575   H     0.73642   0.91402   0.05964   0.00000  Uiso   1.00
H576   H     0.90278   0.91015   0.13495   0.00000  Uiso   1.00
H577   H     0.96972   0.92536   0.10906   0.00000  Uiso   1.00
H578   H     0.76389   0.75652   0.36504   0.00000  Uiso   1.00
H579   H     0.76032   0.73587   0.42742   0.00000  Uiso   1.00
H580   H     0.69695   0.74130   0.39094   0.00000  Uiso   1.00
H581   H     0.81654   0.70405   0.30045   0.00000  Uiso   1.00
H582   H     0.85014   0.96263   0.19949   0.00000  Uiso   1.00
H583   H     0.85699   0.73830   0.15249   0.00000  Uiso   1.00
H584   H     0.80971   0.92839   0.34751   0.00000  Uiso   1.00
H585   H     0.93025   0.75265   0.44036   0.00000  Uiso   1.00
H586   H     0.69515   0.76379   0.09589   0.00000  Uiso   1.00
H587   H     0.97151   0.90287   0.40411   0.00000  Uiso   1.00
H588   H     0.66852   0.92308   0.49071   0.00000  Uiso   1.00
H589   H     0.99815   0.74358   0.00929   0.00000  Uiso   1.00
H590   H     0.82268   0.88345   0.09144   0.00000  Uiso   1.00
H591   H     0.84399   0.78321   0.40856   0.00000  Uiso   1.00
H592   H     0.90635   0.93080   0.07258   0.00000  Uiso   1.00
N593   N     0.81362   0.81883   0.23739   0.00000  Uiso   1.00
N594   N     0.85305   0.84784   0.26260   0.00000  Uiso   1.00
O595   O     0.96386   0.91298   0.25309   0.00000  Uiso   1.00
O596   O     0.78617   0.69422   0.27339   0.00000  Uiso   1.00
O597   O     0.93210   0.67060   0.16568   0.00000  Uiso   1.00
O598   O     0.88050   0.97245   0.22657   0.00000  Uiso   1.00
O599   O     0.81351   0.81888   0.15435   0.00000  Uiso   1.00
O600   O     0.85172   0.75018   0.18779   0.00000  Uiso   1.00
O601   O     0.85315   0.84779   0.34565   0.00000  Uiso   1.00
O602   O     0.81497   0.91650   0.31220   0.00000  Uiso   1.00
O603   O     0.70281   0.75369   0.24690   0.00000  Uiso   1.00
O604   O     0.72488   0.90368   0.24501   0.00000  Uiso   1.00
O605   O     0.94178   0.76298   0.25498   0.00000  Uiso   1.00
O606   O     0.96995   0.84063   0.32247   0.00000  Uiso   1.00
O607   O     0.69672   0.82603   0.17753   0.00000  Uiso   1.00
O608   O     0.73098   0.83134   0.31439   0.00000  Uiso   1.00
O609   O     0.93569   0.83533   0.18561   0.00000  Uiso   1.00
O610   O     0.73460   0.99608   0.33430   0.00000  Uiso   1.00
Zn611  Zn    0.93700   0.83954   0.25539   0.00000  Uiso   1.00
Zn612  Zn    0.72967   0.82713   0.24460   0.00000  Uiso   1.00
C613   C     0.01454   0.26461   0.74839   0.00000  Uiso   1.00
C614   C     0.31244   0.16272   0.65894   0.00000  Uiso   1.00
C615   C     0.03085   0.17700   0.89396   0.00000  Uiso   1.00
C616   C     0.30249   0.15633   0.60604   0.00000  Uiso   1.00
C617   C     0.02308   0.22768   0.96956   0.00000  Uiso   1.00
C618   C     0.31025   0.10565   0.53044   0.00000  Uiso   1.00
C619   C     0.00490   0.21536   0.92089   0.00000  Uiso   1.00
C620   C     0.32843   0.11797   0.57911   0.00000  Uiso   1.00
C621   C     0.07152   0.14843   0.91676   0.00000  Uiso   1.00
C622   C     0.26182   0.18490   0.58324   0.00000  Uiso   1.00
C623   C     0.09968   0.16940   0.96079   0.00000  Uiso   1.00
C624   C     0.31879   0.06873   0.75161   0.00000  Uiso   1.00
C625   C     0.23366   0.16393   0.53921   0.00000  Uiso   1.00
C626   C     0.07176   0.20652   0.98904   0.00000  Uiso   1.00
C627   C     0.26158   0.12681   0.51096   0.00000  Uiso   1.00
C628   C     0.15505   0.15677   0.97663   0.00000  Uiso   1.00
C629   C     0.17828   0.17656   0.52337   0.00000  Uiso   1.00
C630   C     0.25935   0.24090   0.60094   0.00000  Uiso   1.00
C631   C     0.07398   0.09243   0.89905   0.00000  Uiso   1.00
C632   C     0.07033   0.00418   0.79088   0.00000  Uiso   1.00
C633   C     0.26302   0.32915   0.70910   0.00000  Uiso   1.00
C634   C     0.16073   0.13096   0.69136   0.00000  Uiso   1.00
C635   C     0.14404   0.20561   0.55379   0.00000  Uiso   1.00
C636   C     0.17260   0.20238   0.80864   0.00000  Uiso   1.00
C637   C     0.18929   0.12772   0.94621   0.00000  Uiso   1.00
C638   C     0.09284   0.22212   0.53621   0.00000  Uiso   1.00
C639   C     0.24050   0.11121   0.96379   0.00000  Uiso   1.00
C640   C     0.02192   0.31891   0.75634   0.00000  Uiso   1.00
C641   C     0.31141   0.01442   0.74366   0.00000  Uiso   1.00
C642   C     0.02090   0.17061   0.84106   0.00000  Uiso   1.00
H643   H     0.06976   0.24735   0.55964   0.00000  Uiso   1.00
H644   H     0.23612   0.24348   0.63495   0.00000  Uiso   1.00
H645   H     0.30306   0.25869   0.60906   0.00000  Uiso   1.00
H646   H     0.09722   0.08985   0.86504   0.00000  Uiso   1.00
H647   H     0.09365   0.06920   0.92742   0.00000  Uiso   1.00
H648   H     0.03028   0.07464   0.89094   0.00000  Uiso   1.00
H649   H     0.14987   0.03738   0.80045   0.00000  Uiso   1.00
H650   H     0.18347   0.29596   0.69949   0.00000  Uiso   1.00
H651   H     0.19032   0.07164   0.65249   0.00000  Uiso   1.00
H652   H     0.14304   0.26172   0.84751   0.00000  Uiso   1.00
H653   H     0.26358   0.08598   0.94036   0.00000  Uiso   1.00
H654   H     0.02849   0.09713   0.59589   0.00000  Uiso   1.00
H655   H     0.30485   0.23621   0.90411   0.00000  Uiso   1.00
H656   H     0.00185   0.25642   0.99071   0.00000  Uiso   1.00
H657   H     0.33148   0.07691   0.50929   0.00000  Uiso   1.00
H658   H     0.15601   0.21679   0.59144   0.00000  Uiso   1.00
H659   H     0.17732   0.11655   0.90856   0.00000  Uiso   1.00
H660   H     0.23968   0.26413   0.57258   0.00000  Uiso   1.00
N661   N     0.14695   0.15216   0.73739   0.00000  Uiso   1.00
N662   N     0.18638   0.18117   0.76260   0.00000  Uiso   1.00
O663   O     0.29719   0.24631   0.75309   0.00000  Uiso   1.00
O664   O     0.11950   0.02755   0.77339   0.00000  Uiso   1.00
O665   O     0.26544   0.00393   0.66568   0.00000  Uiso   1.00
O666   O     0.21384   0.30578   0.72657   0.00000  Uiso   1.00
O667   O     0.14684   0.15221   0.65435   0.00000  Uiso   1.00
O668   O     0.18505   0.08351   0.68779   0.00000  Uiso   1.00
O669   O     0.18648   0.18113   0.84565   0.00000  Uiso   1.00
O670   O     0.14830   0.24983   0.81220   0.00000  Uiso   1.00
O671   O     0.03614   0.08702   0.74690   0.00000  Uiso   1.00
O672   O     0.05822   0.23702   0.74501   0.00000  Uiso   1.00
O673   O     0.27512   0.09632   0.75498   0.00000  Uiso   1.00
O674   O     0.30328   0.17397   0.82247   0.00000  Uiso   1.00
O675   O     0.03005   0.15937   0.67753   0.00000  Uiso   1.00
O676   O     0.06431   0.16467   0.81439   0.00000  Uiso   1.00
O677   O     0.26902   0.16866   0.68561   0.00000  Uiso   1.00
O678   O     0.06793   0.32941   0.83430   0.00000  Uiso   1.00
Zn679  Zn    0.27033   0.17287   0.75539   0.00000  Uiso   1.00
Zn680  Zn    0.06300   0.16046   0.74460   0.00000  Uiso   1.00
C681   C     0.34787   0.26461   0.74839   0.00000  Uiso   1.00
C682   C     0.64577   0.16272   0.65894   0.00000  Uiso   1.00
C683   C     0.36418   0.17700   0.89396   0.00000  Uiso   1.00
C684   C     0.63582   0.15633   0.60604   0.00000  Uiso   1.00
C685   C     0.35642   0.22768   0.96956   0.00000  Uiso   1.00
C686   C     0.64358   0.10565   0.53044   0.00000  Uiso   1.00
C687   C     0.33823   0.21536   0.92089   0.00000  Uiso   1.00
C688   C     0.66177   0.11797   0.57911   0.00000  Uiso   1.00
C689   C     0.40485   0.14843   0.91676   0.00000  Uiso   1.00
C690   C     0.59515   0.18490   0.58324   0.00000  Uiso   1.00
C691   C     0.43301   0.16940   0.96079   0.00000  Uiso   1.00
C692   C     0.65213   0.06873   0.75161   0.00000  Uiso   1.00
C693   C     0.56699   0.16393   0.53921   0.00000  Uiso   1.00
C694   C     0.40509   0.20652   0.98904   0.00000  Uiso   1.00
C695   C     0.59491   0.12681   0.51096   0.00000  Uiso   1.00
C696   C     0.48839   0.15677   0.97663   0.00000  Uiso   1.00
C697   C     0.51161   0.17656   0.52337   0.00000  Uiso   1.00
C698   C     0.59269   0.24090   0.60094   0.00000  Uiso   1.00
C699   C     0.40732   0.09243   0.89905   0.00000  Uiso   1.00
C700   C     0.40366   0.00418   0.79088   0.00000  Uiso   1.00
C701   C     0.59635   0.32915   0.70910   0.00000  Uiso   1.00
C702   C     0.49407   0.13096   0.69136   0.00000  Uiso   1.00
C703   C     0.47738   0.20561   0.55379   0.00000  Uiso   1.00
C704   C     0.50593   0.20238   0.80864   0.00000  Uiso   1.00
C705   C     0.52263   0.12772   0.94621   0.00000  Uiso   1.00
C706   C     0.42617   0.22212   0.53621   0.00000  Uiso   1.00
C707   C     0.57383   0.11121   0.96379   0.00000  Uiso   1.00
C708   C     0.35526   0.31891   0.75634   0.00000  Uiso   1.00
C709   C     0.64474   0.01442   0.74366   0.00000  Uiso   1.00
C710   C     0.35423   0.17061   0.84106   0.00000  Uiso   1.00
H711   H     0.40309   0.24735   0.55964   0.00000  Uiso   1.00
H712   H     0.56945   0.24348   0.63495   0.00000  Uiso   1.00
H713   H     0.63639   0.25869   0.60906   0.00000  Uiso   1.00
H714   H     0.43055   0.08985   0.86504   0.00000  Uiso   1.00
H715   H     0.42699   0.06920   0.92742   0.00000  Uiso   1.00
H716   H     0.36361   0.07464   0.89094   0.00000  Uiso   1.00
H717   H     0.48321   0.03738   0.80045   0.00000  Uiso   1.00
H718   H     0.51680   0.29596   0.69949   0.00000  Uiso   1.00
H719   H     0.52366   0.07164   0.65249   0.00000  Uiso   1.00
H720   H     0.47637   0.26172   0.84751   0.00000  Uiso   1.00
H721   H     0.59691   0.08598   0.94036   0.00000  Uiso   1.00
H722   H     0.36182   0.09713   0.59589   0.00000  Uiso   1.00
H723   H     0.63818   0.23621   0.90411   0.00000  Uiso   1.00
H724   H     0.33519   0.25642   0.99071   0.00000  Uiso   1.00
H725   H     0.66481   0.07691   0.50929   0.00000  Uiso   1.00
H726   H     0.48935   0.21679   0.59144   0.00000  Uiso   1.00
H727   H     0.51066   0.11655   0.90856   0.00000  Uiso   1.00
H728   H     0.57301   0.26413   0.57258   0.00000  Uiso   1.00
N729   N     0.48029   0.15216   0.73739   0.00000  Uiso   1.00
N730   N     0.51971   0.18117   0.76260   0.00000  Uiso   1.00
O731   O     0.63052   0.24631   0.75309   0.00000  Uiso   1.00
O732   O     0.45283   0.02755   0.77339   0.00000  Uiso   1.00
O733   O     0.59877   0.00393   0.66568   0.00000  Uiso   1.00
O734   O     0.54717   0.30578   0.72657   0.00000  Uiso   1.00
O735   O     0.48017   0.15221   0.65435   0.00000  Uiso   1.00
O736   O     0.51838   0.08351   0.68779   0.00000  Uiso   1.00
O737   O     0.51981   0.18113   0.84565   0.00000  Uiso   1.00
O738   O     0.48164   0.24983   0.81220   0.00000  Uiso   1.00
O739   O     0.36948   0.08702   0.74690   0.00000  Uiso   1.00
O740   O     0.39155   0.23702   0.74501   0.00000  Uiso   1.00
O741   O     0.60845   0.09632   0.75498   0.00000  Uiso   1.00
O742   O     0.63662   0.17397   0.82247   0.00000  Uiso   1.00
O743   O     0.36338   0.15937   0.67753   0.00000  Uiso   1.00
O744   O     0.39764   0.16467   0.81439   0.00000  Uiso   1.00
O745   O     0.60236   0.16866   0.68561   0.00000  Uiso   1.00
O746   O     0.40126   0.32941   0.83430   0.00000  Uiso   1.00
Zn747  Zn    0.60366   0.17287   0.75539   0.00000  Uiso   1.00
Zn748  Zn    0.39634   0.16046   0.74460   0.00000  Uiso   1.00
C749   C     0.68121   0.26461   0.74839   0.00000  Uiso   1.00
C750   C     0.97910   0.16272   0.65894   0.00000  Uiso   1.00
C751   C     0.69751   0.17700   0.89396   0.00000  Uiso   1.00
C752   C     0.96915   0.15633   0.60604   0.00000  Uiso   1.00
C753   C     0.68975   0.22768   0.96956   0.00000  Uiso   1.00
C754   C     0.97692   0.10565   0.53044   0.00000  Uiso   1.00
C755   C     0.67156   0.21536   0.92089   0.00000  Uiso   1.00
C756   C     0.99510   0.11797   0.57911   0.00000  Uiso   1.00
C757   C     0.73819   0.14843   0.91676   0.00000  Uiso   1.00
C758   C     0.92848   0.18490   0.58324   0.00000  Uiso   1.00
C759   C     0.76635   0.16940   0.96079   0.00000  Uiso   1.00
C760   C     0.98546   0.06873   0.75161   0.00000  Uiso   1.00
C761   C     0.90032   0.16393   0.53921   0.00000  Uiso   1.00
C762   C     0.73842   0.20652   0.98904   0.00000  Uiso   1.00
C763   C     0.92824   0.12681   0.51096   0.00000  Uiso   1.00
C764   C     0.82172   0.15677   0.97663   0.00000  Uiso   1.00
C765   C     0.84495   0.17656   0.52337   0.00000  Uiso   1.00
C766   C     0.92602   0.24090   0.60094   0.00000  Uiso   1.00
C767   C     0.74065   0.09243   0.89905   0.00000  Uiso   1.00
C768   C     0.73699   0.00418   0.79088   0.00000  Uiso   1.00
C769   C     0.92969   0.32915   0.70910   0.00000  Uiso   1.00
C770   C     0.82740   0.13096   0.69136   0.00000  Uiso   1.00
C771   C     0.81071   0.20561   0.55379   0.00000  Uiso   1.00
C772   C     0.83927   0.20238   0.80864   0.00000  Uiso   1.00
C773   C     0.85596   0.12772   0.94621   0.00000  Uiso   1.00
C774   C     0.75950   0.22212   0.53621   0.00000  Uiso   1.00
C775   C     0.90716   0.11121   0.96379   0.00000  Uiso   1.00
C776   C     0.68859   0.31891   0.75634   0.00000  Uiso   1.00
C777   C     0.97808   0.01442   0.74366   0.00000  Uiso   1.00
C778   C     0.68756   0.17061   0.84106   0.00000  Uiso   1.00
H779   H     0.73642   0.24735   0.55964   0.00000  Uiso   1.00
H780   H     0.90278   0.24348   0.63495   0.00000  Uiso   1.00
H781   H     0.96972   0.25869   0.60906   0.00000  Uiso   1.00
H782   H     0.76389   0.08985   0.86504   0.00000  Uiso   1.00
H783   H     0.76032   0.06920   0.92742   0.00000  Uiso   1.00
H784   H     0.69695   0.07464   0.89094   0.00000  Uiso   1.00
H785   H     0.81654   0.03738   0.80045   0.00000  Uiso   1.00
H786   H     0.85014   0.29596   0.69949   0.00000  Uiso   1.00
H787   H     0.85699   0.07164   0.65249   0.00000  Uiso   1.00
H788   H     0.80971   0.26172   0.84751   0.00000  Uiso   1.00
H789   H     0.93025   0.08598   0.94036   0.00000  Uiso   1.00
H790   H     0.69515   0.09713   0.59589   0.00000  Uiso   1.00
H791   H     0.97151   0.23621   0.90411   0.00000  Uiso   1.00
H792   H     0.66852   0.25642   0.99071   0.00000  Uiso   1.00
H793   H     0.99815   0.07691   0.50929   0.00000  Uiso   1.00
H794   H     0.82268   0.21679   0.59144   0.00000  Uiso   1.00
H795   H     0.84399   0.11655   0.90856   0.00000  Uiso   1.00
H796   H     0.90635   0.26413   0.57258   0.00000  Uiso   1.00
N797   N     0.81362   0.15216   0.73739   0.00000  Uiso   1.00
N798   N     0.85305   0.18117   0.76260   0.00000  Uiso   1.00
O799   O     0.96386   0.24631   0.75309   0.00000  Uiso   1.00
O800   O     0.78617   0.02755   0.77339   0.00000  Uiso   1.00
O801   O     0.93210   0.00393   0.66568   0.00000  Uiso   1.00
O802   O     0.88050   0.30578   0.72657   0.00000  Uiso   1.00
O803   O     0.81351   0.15221   0.65435   0.00000  Uiso   1.00
O804   O     0.85172   0.08351   0.68779   0.00000  Uiso   1.00
O805   O     0.85315   0.18113   0.84565   0.00000  Uiso   1.00
O806   O     0.81497   0.24983   0.81220   0.00000  Uiso   1.00
O807   O     0.70281   0.08702   0.74690   0.00000  Uiso   1.00
O808   O     0.72488   0.23702   0.74501   0.00000  Uiso   1.00
O809   O     0.94178   0.09632   0.75498   0.00000  Uiso   1.00
O810   O     0.96995   0.17397   0.82247   0.00000  Uiso   1.00
O811   O     0.69672   0.15937   0.67753   0.00000  Uiso   1.00
O812   O     0.73098   0.16467   0.81439   0.00000  Uiso   1.00
O813   O     0.93569   0.16866   0.68561   0.00000  Uiso   1.00
O814   O     0.73460   0.32941   0.83430   0.00000  Uiso   1.00
Zn815  Zn    0.93700   0.17287   0.75539   0.00000  Uiso   1.00
Zn816  Zn    0.72967   0.16046   0.74460   0.00000  Uiso   1.00
C817   C     0.01454   0.59794   0.74839   0.00000  Uiso   1.00
C818   C     0.31244   0.49606   0.65894   0.00000  Uiso   1.00
C819   C     0.03085   0.51034   0.89396   0.00000  Uiso   1.00
C820   C     0.30249   0.48966   0.60604   0.00000  Uiso   1.00
C821   C     0.02308   0.56101   0.96956   0.00000  Uiso   1.00
C822   C     0.31025   0.43898   0.53044   0.00000  Uiso   1.00
C823   C     0.00490   0.54869   0.92089   0.00000  Uiso   1.00
C824   C     0.32843   0.45130   0.57911   0.00000  Uiso   1.00
C825   C     0.07152   0.48176   0.91676   0.00000  Uiso   1.00
C826   C     0.26182   0.51823   0.58324   0.00000  Uiso   1.00
C827   C     0.09968   0.50273   0.96079   0.00000  Uiso   1.00
C828   C     0.31879   0.40206   0.75161   0.00000  Uiso   1.00
C829   C     0.23366   0.49726   0.53921   0.00000  Uiso   1.00
C830   C     0.07176   0.53986   0.98904   0.00000  Uiso   1.00
C831   C     0.26158   0.46014   0.51096   0.00000  Uiso   1.00
C832   C     0.15505   0.49010   0.97663   0.00000  Uiso   1.00
C833   C     0.17828   0.50990   0.52337   0.00000  Uiso   1.00
C834   C     0.25935   0.57424   0.60094   0.00000  Uiso   1.00
C835   C     0.07398   0.42576   0.89905   0.00000  Uiso   1.00
C836   C     0.07033   0.33752   0.79088   0.00000  Uiso   1.00
C837   C     0.26302   0.66248   0.70910   0.00000  Uiso   1.00
C838   C     0.16073   0.46429   0.69136   0.00000  Uiso   1.00
C839   C     0.14404   0.53895   0.55379   0.00000  Uiso   1.00
C840   C     0.17260   0.53571   0.80864   0.00000  Uiso   1.00
C841   C     0.18929   0.46105   0.94621   0.00000  Uiso   1.00
C842   C     0.09284   0.55545   0.53621   0.00000  Uiso   1.00
C843   C     0.24050   0.44454   0.96379   0.00000  Uiso   1.00
C844   C     0.02192   0.65224   0.75634   0.00000  Uiso   1.00
C845   C     0.31141   0.34776   0.74366   0.00000  Uiso   1.00
C846   C     0.02090   0.50394   0.84106   0.00000  Uiso   1.00
H847   H     0.06976   0.58069   0.55964   0.00000  Uiso   1.00
H848   H     0.23612   0.57681   0.63495   0.00000  Uiso   1.00
H849   H     0.30306   0.59203   0.60906   0.00000  Uiso   1.00
H850   H     0.09722   0.42319   0.86504   0.00000  Uiso   1.00
H851   H     0.09365   0.40253   0.92742   0.00000  Uiso   1.00
H852   H     0.03028   0.40797   0.89094   0.00000  Uiso   1.00
H853   H     0.14987   0.37071   0.80045   0.00000  Uiso   1.00
H854   H     0.18347   0.62929   0.69949   0.00000  Uiso   1.00
H855   H     0.19032   0.40497   0.65249   0.00000  Uiso   1.00
H856   H     0.14304   0.59505   0.84751   0.00000  Uiso   1.00
H857   H     0.26358   0.41931   0.94036   0.00000  Uiso   1.00
H858   H     0.02849   0.43046   0.59589   0.00000  Uiso   1.00
H859   H     0.30485   0.56954   0.90411   0.00000  Uiso   1.00
H860   H     0.00185   0.58975   0.99071   0.00000  Uiso   1.00
H861   H     0.33148   0.41025   0.50929   0.00000  Uiso   1.00
H862   H     0.15601   0.55012   0.59144   0.00000  Uiso   1.00
H863   H     0.17732   0.44988   0.90856   0.00000  Uiso   1.00
H864   H     0.23968   0.59747   0.57258   0.00000  Uiso   1.00
N865   N     0.14695   0.48550   0.73739   0.00000  Uiso   1.00
N866   N     0.18638   0.51450   0.76260   0.00000  Uiso   1.00
O867   O     0.29719   0.57964   0.75309   0.00000  Uiso   1.00
O868   O     0.11950   0.36088   0.77339   0.00000  Uiso   1.00
O869   O     0.26544   0.33726   0.66568   0.00000  Uiso   1.00
O870   O     0.21384   0.63911   0.72657   0.00000  Uiso   1.00
O871   O     0.14684   0.48555   0.65435   0.00000  Uiso   1.00
O872   O     0.18505   0.41685   0.68779   0.00000  Uiso   1.00
O873   O     0.18648   0.51446   0.84565   0.00000  Uiso   1.00
O874   O     0.14830   0.58317   0.81220   0.00000  Uiso   1.00
O875   O     0.03614   0.42036   0.74690   0.00000  Uiso   1.00
O876   O     0.05822   0.57035   0.74501   0.00000  Uiso   1.00
O877   O     0.27512   0.42965   0.75498   0.00000  Uiso   1.00
O878   O     0.30328   0.50730   0.82247   0.00000  Uiso   1.00
O879   O     0.03005   0.49270   0.67753   0.00000  Uiso   1.00
O880   O     0.06431   0.49801   0.81439   0.00000  Uiso   1.00
O881   O     0.26902   0.50199   0.68561   0.00000  Uiso   1.00
O882   O     0.06793   0.66275   0.83430   0.00000  Uiso   1.00
Zn883  Zn    0.27033   0.50621   0.75539   0.00000  Uiso   1.00
Zn884  Zn    0.06300   0.49379   0.74460   0.00000  Uiso   1.00
C885   C     0.34787   0.59794   0.74839   0.00000  Uiso   1.00
C886   C     0.64577   0.49606   0.65894   0.00000  Uiso   1.00
C887   C     0.36418   0.51034   0.89396   0.00000  Uiso   1.00
C888   C     0.63582   0.48966   0.60604   0.00000  Uiso   1.00
C889   C     0.35642   0.56101   0.96956   0.00000  Uiso   1.00
C890   C     0.64358   0.43898   0.53044   0.00000  Uiso   1.00
C891   C     0.33823   0.54869   0.92089   0.00000  Uiso   1.00
C892   C     0.66177   0.45130   0.57911   0.00000  Uiso   1.00
C893   C     0.40485   0.48176   0.91676   0.00000  Uiso   1.00
C894   C     0.59515   0.51823   0.58324   0.00000  Uiso   1.00
C895   C     0.43301   0.50273   0.96079   0.00000  Uiso   1.00
C896   C     0.65213   0.40206   0.75161   0.00000  Uiso   1.00
C897   C     0.56699   0.49726   0.53921   0.00000  Uiso   1.00
C898   C     0.40509   0.53986   0.98904   0.00000  Uiso   1.00
C899   C     0.59491   0.46014   0.51096   0.00000  Uiso   1.00
C900   C     0.48839   0.49010   0.97663   0.00000  Uiso   1.00
C901   C     0.51161   0.50990   0.52337   0.00000  Uiso   1.00
C902   C     0.59269   0.57424   0.60094   0.00000  Uiso   1.00
C903   C     0.40732   0.42576   0.89905   0.00000  Uiso   1.00
C904   C     0.40366   0.33752   0.79088   0.00000  Uiso   1.00
C905   C     0.59635   0.66248   0.70910   0.00000  Uiso   1.00
C906   C     0.49407   0.46429   0.69136   0.00000  Uiso   1.00
C907   C     0.47738   0.53895   0.55379   0.00000  Uiso   1.00
C908   C     0.50593   0.53571   0.80864   0.00000  Uiso   1.00
C909   C     0.52263   0.46105   0.94621   0.00000  Uiso   1.00
C910   C     0.42617   0.55545   0.53621   0.00000  Uiso   1.00
C911   C     0.57383   0.44454   0.96379   0.00000  Uiso   1.00
C912   C     0.35526   0.65224   0.75634   0.00000  Uiso   1.00
C913   C     0.64474   0.34776   0.74366   0.00000  Uiso   1.00
C914   C     0.35423   0.50394   0.84106   0.00000  Uiso   1.00
H915   H     0.40309   0.58069   0.55964   0.00000  Uiso   1.00
H916   H     0.56945   0.57681   0.63495   0.00000  Uiso   1.00
H917   H     0.63639   0.59203   0.60906   0.00000  Uiso   1.00
H918   H     0.43055   0.42319   0.86504   0.00000  Uiso   1.00
H919   H     0.42699   0.40253   0.92742   0.00000  Uiso   1.00
H920   H     0.36361   0.40797   0.89094   0.00000  Uiso   1.00
H921   H     0.48321   0.37071   0.80045   0.00000  Uiso   1.00
H922   H     0.51680   0.62929   0.69949   0.00000  Uiso   1.00
H923   H     0.52366   0.40497   0.65249   0.00000  Uiso   1.00
H924   H     0.47637   0.59505   0.84751   0.00000  Uiso   1.00
H925   H     0.59691   0.41931   0.94036   0.00000  Uiso   1.00
H926   H     0.36182   0.43046   0.59589   0.00000  Uiso   1.00
H927   H     0.63818   0.56954   0.90411   0.00000  Uiso   1.00
H928   H     0.33519   0.58975   0.99071   0.00000  Uiso   1.00
H929   H     0.66481   0.41025   0.50929   0.00000  Uiso   1.00
H930   H     0.48935   0.55012   0.59144   0.00000  Uiso   1.00
H931   H     0.51066   0.44988   0.90856   0.00000  Uiso   1.00
H932   H     0.57301   0.59747   0.57258   0.00000  Uiso   1.00
N933   N     0.48029   0.48550   0.73739   0.00000  Uiso   1.00
N934   N     0.51971   0.51450   0.76260   0.00000  Uiso   1.00
O935   O     0.63052   0.57964   0.75309   0.00000  Uiso   1.00
O936   O     0.45283   0.36088   0.77339   0.00000  Uiso   1.00
O937   O     0.59877   0.33726   0.66568   0.00000  Uiso   1.00
O938   O     0.54717   0.63911   0.72657   0.00000  Uiso   1.00
O939   O     0.48017   0.48555   0.65435   0.00000  Uiso   1.00
O940   O     0.51838   0.41685   0.68779   0.00000  Uiso   1.00
O941   O     0.51981   0.51446   0.84565   0.00000  Uiso   1.00
O942   O     0.48164   0.58317   0.81220   0.00000  Uiso   1.00
O943   O     0.36948   0.42036   0.74690   0.00000  Uiso   1.00
O944   O     0.39155   0.57035   0.74501   0.00000  Uiso   1.00
O945   O     0.60845   0.42965   0.75498   0.00000  Uiso   1.00
O946   O     0.63662   0.50730   0.82247   0.00000  Uiso   1.00
O947   O     0.36338   0.49270   0.67753   0.00000  Uiso   1.00
O948   O     0.39764   0.49801   0.81439   0.00000  Uiso   1.00
O949   O     0.60236   0.50199   0.68561   0.00000  Uiso   1.00
O950   O     0.40126   0.66275   0.83430   0.00000  Uiso   1.00
Zn951  Zn    0.60366   0.50621   0.75539   0.00000  Uiso   1.00
Zn952  Zn    0.39634   0.49379   0.74460   0.00000  Uiso   1.00
C953   C     0.68121   0.59794   0.74839   0.00000  Uiso   1.00
C954   C     0.97910   0.49606   0.65894   0.00000  Uiso   1.00
C955   C     0.69751   0.51034   0.89396   0.00000  Uiso   1.00
C956   C     0.96915   0.48966   0.60604   0.00000  Uiso   1.00
C957   C     0.68975   0.56101   0.96956   0.00000  Uiso   1.00
C958   C     0.97692   0.43898   0.53044   0.00000  Uiso   1.00
C959   C     0.67156   0.54869   0.92089   0.00000  Uiso   1.00
C960   C     0.99510   0.45130   0.57911   0.00000  Uiso   1.00
C961   C     0.73819   0.48176   0.91676   0.00000  Uiso   1.00
C962   C     0.92848   0.51823   0.58324   0.00000  Uiso   1.00
C963   C     0.76635   0.50273   0.96079   0.00000  Uiso   1.00
C964   C     0.98546   0.40206   0.75161   0.00000  Uiso   1.00
C965   C     0.90032   0.49726   0.53921   0.00000  Uiso   1.00
C966   C     0.73842   0.53986   0.98904   0.00000  Uiso   1.00
C967   C     0.92824   0.46014   0.51096   0.00000  Uiso   1.00
C968   C     0.82172   0.49010   0.97663   0.00000  Uiso   1.00
C969   C     0.84495   0.50990   0.52337   0.00000  Uiso   1.00
C970   C     0.92602   0.57424   0.60094   0.00000  Uiso   1.00
C971   C     0.74065   0.42576   0.89905   0.00000  Uiso   1.00
C972   C     0.73699   0.33752   0.79088   0.00000  Uiso   1.00
C973   C     0.92969   0.66248   0.70910   0.00000  Uiso   1.00
C974   C     0.82740   0.46429   0.69136   0.00000  Uiso   1.00
C975   C     0.81071   0.53895   0.55379   0.00000  Uiso   1.00
C976   C     0.83927   0.53571   0.80864   0.00000  Uiso   1.00
C977   C     0.85596   0.46105   0.94621   0.00000  Uiso   1.00
C978   C     0.75950   0.55545   0.53621   0.00000  Uiso   1.00
C979   C     0.90716   0.44454   0.96379   0.00000  Uiso   1.00
C980   C     0.68859   0.65224   0.75634   0.00000  Uiso   1.00
C981   C     0.97808   0.34776   0.74366   0.00000  Uiso   1.00
C982   C     0.68756   0.50394   0.84106   0.00000  Uiso   1.00
H983   H     0.73642   0.58069   0.55964   0.00000  Uiso   1.00
H984   H     0.90278   0.57681   0.63495   0.00000  Uiso   1.00
H985   H     0.96972   0.59203   0.60906   0.00000  Uiso   1.00
H986   H     0.76389   0.42319   0.86504   0.00000  Uiso   1.00
H987   H     0.76032   0.40253   0.92742   0.00000  Uiso   1.00
H988   H     0.69695   0.40797   0.89094   0.00000  Uiso   1.00
H989   H     0.81654   0.37071   0.80045   0.00000  Uiso   1.00
H990   H     0.85014   0.62929   0.69949   0.00000  Uiso   1.00
H991   H     0.85699   0.40497   0.65249   0.00000  Uiso   1.00
H992   H     0.80971   0.59505   0.84751   0.00000  Uiso   1.00
H993   H     0.93025   0.41931   0.94036   0.00000  Uiso   1.00
H994   H     0.69515   0.43046   0.59589   0.00000  Uiso   1.00
H995   H     0.97151   0.56954   0.90411   0.00000  Uiso   1.00
H996   H     0.66852   0.58975   0.99071   0.00000  Uiso   1.00
H997   H     0.99815   0.41025   0.50929   0.00000  Uiso   1.00
H998   H     0.82268   0.55012   0.59144   0.00000  Uiso   1.00
H999   H     0.84399   0.44988   0.90856   0.00000  Uiso   1.00
H1000  H     0.90635   0.59747   0.57258   0.00000  Uiso   1.00
N1001  N     0.81362   0.48550   0.73739   0.00000  Uiso   1.00
N1002  N     0.85305   0.51450   0.76260   0.00000  Uiso   1.00
O1003  O     0.96386   0.57964   0.75309   0.00000  Uiso   1.00
O1004  O     0.78617   0.36088   0.77339   0.00000  Uiso   1.00
O1005  O     0.93210   0.33726   0.66568   0.00000  Uiso   1.00
O1006  O     0.88050   0.63911   0.72657   0.00000  Uiso   1.00
O1007  O     0.81351   0.48555   0.65435   0.00000  Uiso   1.00
O1008  O     0.85172   0.41685   0.68779   0.00000  Uiso   1.00
O1009  O     0.85315   0.51446   0.84565   0.00000  Uiso   1.00
O1010  O     0.81497   0.58317   0.81220   0.00000  Uiso   1.00
O1011  O     0.70281   0.42036   0.74690   0.00000  Uiso   1.00
O1012  O     0.72488   0.57035   0.74501   0.00000  Uiso   1.00
O1013  O     0.94178   0.42965   0.75498   0.00000  Uiso   1.00
O1014  O     0.96995   0.50730   0.82247   0.00000  Uiso   1.00
O1015  O     0.69672   0.49270   0.67753   0.00000  Uiso   1.00
O1016  O     0.73098   0.49801   0.81439   0.00000  Uiso   1.00
O1017  O     0.93569   0.50199   0.68561   0.00000  Uiso   1.00
O1018  O     0.73460   0.66275   0.83430   0.00000  Uiso   1.00
Zn1019 Zn    0.93700   0.50621   0.75539   0.00000  Uiso   1.00
Zn1020 Zn    0.72967   0.49379   0.74460   0.00000  Uiso   1.00
C1021  C     0.01454   0.93127   0.74839   0.00000  Uiso   1.00
C1022  C     0.31244   0.82939   0.65894   0.00000  Uiso   1.00
C1023  C     0.03085   0.84367   0.89396   0.00000  Uiso   1.00
C1024  C     0.30249   0.82300   0.60604   0.00000  Uiso   1.00
C1025  C     0.02308   0.89435   0.96956   0.00000  Uiso   1.00
C1026  C     0.31025   0.77232   0.53044   0.00000  Uiso   1.00
C1027  C     0.00490   0.88203   0.92089   0.00000  Uiso   1.00
C1028  C     0.32843   0.78464   0.57911   0.00000  Uiso   1.00
C1029  C     0.07152   0.81510   0.91676   0.00000  Uiso   1.00
C1030  C     0.26182   0.85157   0.58324   0.00000  Uiso   1.00
C1031  C     0.09968   0.83607   0.96079   0.00000  Uiso   1.00
C1032  C     0.31879   0.73539   0.75161   0.00000  Uiso   1.00
C1033  C     0.23366   0.83060   0.53921   0.00000  Uiso   1.00
C1034  C     0.07176   0.87319   0.98904   0.00000  Uiso   1.00
C1035  C     0.26158   0.79348   0.51096   0.00000  Uiso   1.00
C1036  C     0.15505   0.82343   0.97663   0.00000  Uiso   1.00
C1037  C     0.17828   0.84323   0.52337   0.00000  Uiso   1.00
C1038  C     0.25935   0.90757   0.60094   0.00000  Uiso   1.00
C1039  C     0.07398   0.75910   0.89905   0.00000  Uiso   1.00
C1040  C     0.07033   0.67085   0.79088   0.00000  Uiso   1.00
C1041  C     0.26302   0.99582   0.70910   0.00000  Uiso   1.00
C1042  C     0.16073   0.79762   0.69136   0.00000  Uiso   1.00
C1043  C     0.14404   0.87228   0.55379   0.00000  Uiso   1.00
C1044  C     0.17260   0.86905   0.80864   0.00000  Uiso   1.00
C1045  C     0.18929   0.79439   0.94621   0.00000  Uiso   1.00
C1046  C     0.09284   0.88879   0.53621   0.00000  Uiso   1.00
C1047  C     0.24050   0.77788   0.96379   0.00000  Uiso   1.00
C1048  C     0.02192   0.98558   0.75634   0.00000  Uiso   1.00
C1049  C     0.31141   0.68109   0.74366   0.00000  Uiso   1.00
C1050  C     0.02090   0.83728   0.84106   0.00000  Uiso   1.00
H1051  H     0.06976   0.91402   0.55964   0.00000  Uiso   1.00
H1052  H     0.23612   0.91015   0.63495   0.00000  Uiso   1.00
H1053  H     0.30306   0.92536   0.60906   0.00000  Uiso   1.00
H1054  H     0.09722   0.75652   0.86504   0.00000  Uiso   1.00
H1055  H     0.09365   0.73587   0.92742   0.00000  Uiso   1.00
H1056  H     0.03028   0.74130   0.89094   0.00000  Uiso   1.00
H1057  H     0.14987   0.70405   0.80045   0.00000  Uiso   1.00
H1058  H     0.18347   0.96263   0.69949   0.00000  Uiso   1.00
H1059  H     0.19032   0.73830   0.65249   0.00000  Uiso   1.00
H1060  H     0.14304   0.92839   0.84751   0.00000  Uiso   1.00
H1061  H     0.26358   0.75265   0.94036   0.00000  Uiso   1.00
H1062  H     0.02849   0.76379   0.59589   0.00000  Uiso   1.00
H1063  H     0.30485   0.90287   0.90411   0.00000  Uiso   1.00
H1064  H     0.00185   0.92308   0.99071   0.00000  Uiso   1.00
H1065  H     0.33148   0.74358   0.50929   0.00000  Uiso   1.00
H1066  H     0.15601   0.88345   0.59144   0.00000  Uiso   1.00
H1067  H     0.17732   0.78321   0.90856   0.00000  Uiso   1.00
H1068  H     0.23968   0.93080   0.57258   0.00000  Uiso   1.00
N1069  N     0.14695   0.81883   0.73739   0.00000  Uiso   1.00
N1070  N     0.18638   0.84784   0.76260   0.00000  Uiso   1.00
O1071  O     0.29719   0.91298   0.75309   0.00000  Uiso   1.00
O1072  O     0.11950   0.69422   0.77339   0.00000  Uiso   1.00
O1073  O     0.26544   0.67060   0.66568   0.00000  Uiso   1.00
O1074  O     0.21384   0.97245   0.72657   0.00000  Uiso   1.00
O1075  O     0.14684   0.81888   0.65435   0.00000  Uiso   1.00
O1076  O     0.18505   0.75018   0.68779   0.00000  Uiso   1.00
O1077  O     0.18648   0.84779   0.84565   0.00000  Uiso   1.00
O1078  O     0.14830   0.91650   0.81220   0.00000  Uiso   1.00
O1079  O     0.03614   0.75369   0.74690   0.00000  Uiso   1.00
O1080  O     0.05822   0.90368   0.74501   0.00000  Uiso   1.00
O1081  O     0.27512   0.76298   0.75498   0.00000  Uiso   1.00
O1082  O     0.30328   0.84063   0.82247   0.00000  Uiso   1.00
O1083  O     0.03005   0.82603   0.67753   0.00000  Uiso   1.00
O1084  O     0.06431   0.83134   0.81439   0.00000  Uiso   1.00
O1085  O     0.26902   0.83533   0.68561   0.00000  Uiso   1.00
O1086  O     0.06793   0.99608   0.83430   0.00000  Uiso   1.00
Zn1087 Zn    0.27033   0.83954   0.75539   0.00000  Uiso   1.00
Zn1088 Zn    0.06300   0.82713   0.74460   0.00000  Uiso   1.00
C1089  C     0.34787   0.93127   0.74839   0.00000  Uiso   1.00
C1090  C     0.64577   0.82939   0.65894   0.00000  Uiso   1.00
C1091  C     0.36418   0.84367   0.89396   0.00000  Uiso   1.00
C1092  C     0.63582   0.82300   0.60604   0.00000  Uiso   1.00
C1093  C     0.35642   0.89435   0.96956   0.00000  Uiso   1.00
C1094  C     0.64358   0.77232   0.53044   0.00000  Uiso   1.00
C1095  C     0.33823   0.88203   0.92089   0.00000  Uiso   1.00
C1096  C     0.66177   0.78464   0.57911   0.00000  Uiso   1.00
C1097  C     0.40485   0.81510   0.91676   0.00000  Uiso   1.00
C1098  C     0.59515   0.85157   0.58324   0.00000  Uiso   1.00
C1099  C     0.43301   0.83607   0.96079   0.00000  Uiso   1.00
C1100  C     0.65213   0.73539   0.75161   0.00000  Uiso   1.00
C1101  C     0.56699   0.83060   0.53921   0.00000  Uiso   1.00
C1102  C     0.40509   0.87319   0.98904   0.00000  Uiso   1.00
C1103  C     0.59491   0.79348   0.51096   0.00000  Uiso   1.00
C1104  C     0.48839   0.82343   0.97663   0.00000  Uiso   1.00
C1105  C     0.51161   0.84323   0.52337   0.00000  Uiso   1.00
C1106  C     0.59269   0.90757   0.60094   0.00000  Uiso   1.00
C1107  C     0.40732   0.75910   0.89905   0.00000  Uiso   1.00
C1108  C     0.40366   0.67085   0.79088   0.00000  Uiso   1.00
C1109  C     0.59635   0.99582   0.70910   0.00000  Uiso   1.00
C1110  C     0.49407   0.79762   0.69136   0.00000  Uiso   1.00
C1111  C     0.47738   0.87228   0.55379   0.00000  Uiso   1.00
C1112  C     0.50593   0.86905   0.80864   0.00000  Uiso   1.00
C1113  C     0.52263   0.79439   0.94621   0.00000  Uiso   1.00
C1114  C     0.42617   0.88879   0.53621   0.00000  Uiso   1.00
C1115  C     0.57383   0.77788   0.96379   0.00000  Uiso   1.00
C1116  C     0.35526   0.98558   0.75634   0.00000  Uiso   1.00
C1117  C     0.64474   0.68109   0.74366   0.00000  Uiso   1.00
C1118  C     0.35423   0.83728   0.84106   0.00000  Uiso   1.00
H1119  H     0.40309   0.91402   0.55964   0.00000  Uiso   1.00
H1120  H     0.56945   0.91015   0.63495   0.00000  Uiso   1.00
H1121  H     0.63639   0.92536   0.60906   0.00000  Uiso   1.00
H1122  H     0.43055   0.75652   0.86504   0.00000  Uiso   1.00
H1123  H     0.42699   0.73587   0.92742   0.00000  Uiso   1.00
H1124  H     0.36361   0.74130   0.89094   0.00000  Uiso   1.00
H1125  H     0.48321   0.70405   0.80045   0.00000  Uiso   1.00
H1126  H     0.51680   0.96263   0.69949   0.00000  Uiso   1.00
H1127  H     0.52366   0.73830   0.65249   0.00000  Uiso   1.00
H1128  H     0.47637   0.92839   0.84751   0.00000  Uiso   1.00
H1129  H     0.59691   0.75265   0.94036   0.00000  Uiso   1.00
H1130  H     0.36182   0.76379   0.59589   0.00000  Uiso   1.00
H1131  H     0.63818   0.90287   0.90411   0.00000  Uiso   1.00
H1132  H     0.33519   0.92308   0.99071   0.00000  Uiso   1.00
H1133  H     0.66481   0.74358   0.50929   0.00000  Uiso   1.00
H1134  H     0.48935   0.88345   0.59144   0.00000  Uiso   1.00
H1135  H     0.51066   0.78321   0.90856   0.00000  Uiso   1.00
H1136  H     0.57301   0.93080   0.57258   0.00000  Uiso   1.00
N1137  N     0.48029   0.81883   0.73739   0.00000  Uiso   1.00
N1138  N     0.51971   0.84784   0.76260   0.00000  Uiso   1.00
O1139  O     0.63052   0.91298   0.75309   0.00000  Uiso   1.00
O1140  O     0.45283   0.69422   0.77339   0.00000  Uiso   1.00
O1141  O     0.59877   0.67060   0.66568   0.00000  Uiso   1.00
O1142  O     0.54717   0.97245   0.72657   0.00000  Uiso   1.00
O1143  O     0.48017   0.81888   0.65435   0.00000  Uiso   1.00
O1144  O     0.51838   0.75018   0.68779   0.00000  Uiso   1.00
O1145  O     0.51981   0.84779   0.84565   0.00000  Uiso   1.00
O1146  O     0.48164   0.91650   0.81220   0.00000  Uiso   1.00
O1147  O     0.36948   0.75369   0.74690   0.00000  Uiso   1.00
O1148  O     0.39155   0.90368   0.74501   0.00000  Uiso   1.00
O1149  O     0.60845   0.76298   0.75498   0.00000  Uiso   1.00
O1150  O     0.63662   0.84063   0.82247   0.00000  Uiso   1.00
O1151  O     0.36338   0.82603   0.67753   0.00000  Uiso   1.00
O1152  O     0.39764   0.83134   0.81439   0.00000  Uiso   1.00
O1153  O     0.60236   0.83533   0.68561   0.00000  Uiso   1.00
O1154  O     0.40126   0.99608   0.83430   0.00000  Uiso   1.00
Zn1155 Zn    0.60366   0.83954   0.75539   0.00000  Uiso   1.00
Zn1156 Zn    0.39634   0.82713   0.74460   0.00000  Uiso   1.00
C1157  C     0.68121   0.93127   0.74839   0.00000  Uiso   1.00
C1158  C     0.97910   0.82939   0.65894   0.00000  Uiso   1.00
C1159  C     0.69751   0.84367   0.89396   0.00000  Uiso   1.00
C1160  C     0.96915   0.82300   0.60604   0.00000  Uiso   1.00
C1161  C     0.68975   0.89435   0.96956   0.00000  Uiso   1.00
C1162  C     0.97692   0.77232   0.53044   0.00000  Uiso   1.00
C1163  C     0.67156   0.88203   0.92089   0.00000  Uiso   1.00
C1164  C     0.99510   0.78464   0.57911   0.00000  Uiso   1.00
C1165  C     0.73819   0.81510   0.91676   0.00000  Uiso   1.00
C1166  C     0.92848   0.85157   0.58324   0.00000  Uiso   1.00
C1167  C     0.76635   0.83607   0.96079   0.00000  Uiso   1.00
C1168  C     0.98546   0.73539   0.75161   0.00000  Uiso   1.00
C1169  C     0.90032   0.83060   0.53921   0.00000  Uiso   1.00
C1170  C     0.73842   0.87319   0.98904   0.00000  Uiso   1.00
C1171  C     0.92824   0.79348   0.51096   0.00000  Uiso   1.00
C1172  C     0.82172   0.82343   0.97663   0.00000  Uiso   1.00
C1173  C     0.84495   0.84323   0.52337   0.00000  Uiso   1.00
C1174  C     0.92602   0.90757   0.60094   0.00000  Uiso   1.00
C1175  C     0.74065   0.75910   0.89905   0.00000  Uiso   1.00
C1176  C     0.73699   0.67085   0.79088   0.00000  Uiso   1.00
C1177  C     0.92969   0.99582   0.70910   0.00000  Uiso   1.00
C1178  C     0.82740   0.79762   0.69136   0.00000  Uiso   1.00
C1179  C     0.81071   0.87228   0.55379   0.00000  Uiso   1.00
C1180  C     0.83927   0.86905   0.80864   0.00000  Uiso   1.00
C1181  C     0.85596   0.79439   0.94621   0.00000  Uiso   1.00
C1182  C     0.75950   0.88879   0.53621   0.00000  Uiso   1.00
C1183  C     0.90716   0.77788   0.96379   0.00000  Uiso   1.00
C1184  C     0.68859   0.98558   0.75634   0.00000  Uiso   1.00
C1185  C     0.97808   0.68109   0.74366   0.00000  Uiso   1.00
C1186  C     0.68756   0.83728   0.84106   0.00000  Uiso   1.00
H1187  H     0.73642   0.91402   0.55964   0.00000  Uiso   1.00
H1188  H     0.90278   0.91015   0.63495   0.00000  Uiso   1.00
H1189  H     0.96972   0.92536   0.60906   0.00000  Uiso   1.00
H1190  H     0.76389   0.75652   0.86504   0.00000  Uiso   1.00
H1191  H     0.76032   0.73587   0.92742   0.00000  Uiso   1.00
H1192  H     0.69695   0.74130   0.89094   0.00000  Uiso   1.00
H1193  H     0.81654   0.70405   0.80045   0.00000  Uiso   1.00
H1194  H     0.85014   0.96263   0.69949   0.00000  Uiso   1.00
H1195  H     0.85699   0.73830   0.65249   0.00000  Uiso   1.00
H1196  H     0.80971   0.92839   0.84751   0.00000  Uiso   1.00
H1197  H     0.93025   0.75265   0.94036   0.00000  Uiso   1.00
H1198  H     0.69515   0.76379   0.59589   0.00000  Uiso   1.00
H1199  H     0.97151   0.90287   0.90411   0.00000  Uiso   1.00
H1200  H     0.66852   0.92308   0.99071   0.00000  Uiso   1.00
H1201  H     0.99815   0.74358   0.50929   0.00000  Uiso   1.00
H1202  H     0.82268   0.88345   0.59144   0.00000  Uiso   1.00
H1203  H     0.84399   0.78321   0.90856   0.00000  Uiso   1.00
H1204  H     0.90635   0.93080   0.57258   0.00000  Uiso   1.00
N1205  N     0.81362   0.81883   0.73739   0.00000  Uiso   1.00
N1206  N     0.85305   0.84784   0.76260   0.00000  Uiso   1.00
O1207  O     0.96386   0.91298   0.75309   0.00000  Uiso   1.00
O1208  O     0.78617   0.69422   0.77339   0.00000  Uiso   1.00
O1209  O     0.93210   0.67060   0.66568   0.00000  Uiso   1.00
O1210  O     0.88050   0.97245   0.72657   0.00000  Uiso   1.00
O1211  O     0.81351   0.81888   0.65435   0.00000  Uiso   1.00
O1212  O     0.85172   0.75018   0.68779   0.00000  Uiso   1.00
O1213  O     0.85315   0.84779   0.84565   0.00000  Uiso   1.00
O1214  O     0.81497   0.91650   0.81220   0.00000  Uiso   1.00
O1215  O     0.70281   0.75369   0.74690   0.00000  Uiso   1.00
O1216  O     0.72488   0.90368   0.74501   0.00000  Uiso   1.00
O1217  O     0.94178   0.76298   0.75498   0.00000  Uiso   1.00
O1218  O     0.96995   0.84063   0.82247   0.00000  Uiso   1.00
O1219  O     0.69672   0.82603   0.67753   0.00000  Uiso   1.00
O1220  O     0.73098   0.83134   0.81439   0.00000  Uiso   1.00
O1221  O     0.93569   0.83533   0.68561   0.00000  Uiso   1.00
O1222  O     0.73460   0.99608   0.83430   0.00000  Uiso   1.00
Zn1223 Zn    0.93700   0.83954   0.75539   0.00000  Uiso   1.00
Zn1224 Zn    0.72967   0.82713   0.74460   0.00000  Uiso   1.00
loop_
_geom_bond_atom_site_label_1
_geom_bond_atom_site_label_2
_geom_bond_distance
_geom_bond_site_symmetry_2
_ccdc_geom_bond_type
C1     C28     1.409   .     S
C1     O60     1.301   .     A
C1     O187    1.278   1_455 S
C2     C4      1.452   .     S
C2     O65     1.306   .     A
C2     O131    1.295   .     S
C3     C30     1.452   .     S
C3     C9      1.395   .     A
C3     C7      1.399   .     A
C4     C8      1.399   .     A
C4     C10     1.395   .     A
C5     C14     1.402   .     A
C5     H44     1.084   .     S
C5     C7      1.390   .     A
C6     H45     1.084   .     S
C6     C8      1.390   .     A
C6     C15     1.402   .     A
C7     H179    1.083   1_455 S
C8     H110    1.083   .     S
C9     C11     1.408   .     A
C9     C19     1.509   .     S
C10    C13     1.408   .     A
C10    C18     1.509   .     S
C11    C14     1.420   .     A
C11    C16     1.424   .     A
C12    O61     1.301   .     A
C12    C29     1.409   .     S
C12    O127    1.278   .     S
C13    C17     1.424   .     A
C13    C15     1.420   .     A
C14    C638    1.387   .     S
C15    C639    1.387   1_554 S
C16    C25     1.415   .     A
C16    C629    1.419   .     S
C17    C23     1.415   .     A
C17    C628    1.419   1_554 S
C18    H33     1.111   .     S
C18    H32     1.108   .     S
C18    H48     1.110   .     S
C19    H35     1.110   .     S
C19    H36     1.111   .     S
C19    H34     1.108   .     S
C20    O52     1.398   .     S
C20    C436    1.483   1_545 S
C20    O474    1.222   1_545 S
C21    O54     1.398   .     S
C21    C233    1.483   .     S
C21    O257    1.222   .     S
C22    O55     1.219   .     D
C22    N49     1.409   .     S
C22    O56     1.393   .     S
C23    H46     1.072   .     S
C23    C26     1.384   .     A
C24    N50     1.409   .     S
C24    O58     1.393   .     S
C24    O57     1.219   .     D
C25    H47     1.072   .     S
C25    C27     1.384   .     A
C26    H31     1.084   .     S
C26    C626    1.387   1_554 S
C27    H41     1.084   .     S
C27    C627    1.387   .     S
C28    C224    1.483   .     S
C28    C369    1.361   1_455 S
C29    C504    1.361   1_545 S
C29    C429    1.483   1_545 S
C30    O64     1.306   .     A
C30    O198    1.295   1_455 S
H37    O52     1.014   .     S
H38    O54     1.014   .     S
H39    O56     1.014   .     S
H40    O58     1.014   .     S
H42    C144    1.083   1_455 S
H43    C75     1.083   .     S
N49    Zn68    2.035   .     S
N49    N50     1.301   .     D
N50    Zn67    2.035   .     S
O51    Zn67    1.972   .     S
O51    C69     1.278   .     S
O53    C429    1.222   1_545 S
O59    Zn68    1.972   .     S
O59    C148    1.278   1_455 S
O60    Zn68    1.994   .     S
O61    Zn67    1.994   .     S
O62    Zn67    1.953   .     S
O62    C98     1.295   .     S
O63    Zn68    1.953   .     S
O63    C138    1.295   1_455 S
O64    Zn68    1.905   .     S
O65    Zn67    1.905   .     S
O66    C224    1.222   .     S
C69    C96     1.409   .     S
C69    O128    1.301   .     A
C70    C72     1.452   .     S
C70    O133    1.306   .     A
C70    O199    1.295   .     S
C71    C98     1.452   .     S
C71    C77     1.395   .     A
C71    C75     1.399   .     A
C72    C76     1.399   .     A
C72    C78     1.395   .     A
C73    C82     1.402   .     A
C73    H112    1.084   .     S
C73    C75     1.390   .     A
C74    H113    1.084   .     S
C74    C76     1.390   .     A
C74    C83     1.402   .     A
C76    H178    1.083   .     S
C77    C79     1.408   .     A
C77    C87     1.509   .     S
C78    C81     1.408   .     A
C78    C86     1.509   .     S
C79    C82     1.420   .     A
C79    C84     1.424   .     A
C80    O129    1.301   .     A
C80    C97     1.409   .     S
C80    O195    1.278   .     S
C81    C85     1.424   .     A
C81    C83     1.420   .     A
C82    C706    1.387   .     S
C83    C707    1.387   1_554 S
C84    C93     1.415   .     A
C84    C697    1.419   .     S
C85    C91     1.415   .     A
C85    C696    1.419   1_554 S
C86    H101    1.111   .     S
C86    H100    1.108   .     S
C86    H116    1.110   .     S
C87    H103    1.110   .     S
C87    H104    1.111   .     S
C87    H102    1.108   .     S
C88    O120    1.398   .     S
C88    C504    1.483   1_545 S
C88    O542    1.222   1_545 S
C89    O122    1.398   .     S
C89    C301    1.483   .     S
C89    O325    1.222   .     S
C90    O123    1.219   .     D
C90    N117    1.409   .     S
C90    O124    1.393   .     S
C91    H114    1.072   .     S
C91    C94     1.384   .     A
C92    N118    1.409   .     S
C92    O126    1.393   .     S
C92    O125    1.219   .     D
C93    H115    1.072   .     S
C93    C95     1.384   .     A
C94    H99     1.084   .     S
C94    C694    1.387   1_554 S
C95    H109    1.084   .     S
C95    C695    1.387   .     S
C96    C292    1.483   .     S
C96    C233    1.361   .     S
C97    C572    1.361   1_545 S
C97    C497    1.483   1_545 S
C98    O132    1.306   .     A
H105   O120    1.014   .     S
H106   O122    1.014   .     S
H107   O124    1.014   .     S
H108   O126    1.014   .     S
H111   C143    1.083   .     S
N117   Zn136   2.035   .     S
N117   N118    1.301   .     D
N118   Zn135   2.035   .     S
O119   Zn135   1.972   .     S
O119   C137    1.278   .     S
O121   C497    1.222   1_545 S
O127   Zn136   1.972   .     S
O128   Zn136   1.994   .     S
O129   Zn135   1.994   .     S
O130   Zn135   1.953   .     S
O130   C166    1.295   .     S
O131   Zn136   1.953   .     S
O132   Zn136   1.905   .     S
O133   Zn135   1.905   .     S
O134   C292    1.222   .     S
C137   C164    1.409   .     S
C137   O196    1.301   .     A
C138   C140    1.452   .     S
C138   O201    1.306   .     A
C138   O63     1.295   1_655 S
C139   C166    1.452   .     S
C139   C145    1.395   .     A
C139   C143    1.399   .     A
C140   C144    1.399   .     A
C140   C146    1.395   .     A
C141   C150    1.402   .     A
C141   H180    1.084   .     S
C141   C143    1.390   .     A
C142   H181    1.084   .     S
C142   C144    1.390   .     A
C142   C151    1.402   .     A
C144   H42     1.083   1_655 S
C145   C147    1.408   .     A
C145   C155    1.509   .     S
C146   C149    1.408   .     A
C146   C154    1.509   .     S
C147   C150    1.420   .     A
C147   C152    1.424   .     A
C148   O197    1.301   .     A
C148   C165    1.409   .     S
C148   O59     1.278   1_655 S
C149   C153    1.424   .     A
C149   C151    1.420   .     A
C150   C774    1.387   .     S
C151   C775    1.387   1_554 S
C152   C161    1.415   .     A
C152   C765    1.419   .     S
C153   C159    1.415   .     A
C153   C764    1.419   1_554 S
C154   H169    1.111   .     S
C154   H168    1.108   .     S
C154   H184    1.110   .     S
C155   H171    1.110   .     S
C155   H172    1.111   .     S
C155   H170    1.108   .     S
C156   O188    1.398   .     S
C156   C572    1.483   1_545 S
C156   O610    1.222   1_545 S
C157   O190    1.398   .     S
C157   C369    1.483   .     S
C157   O393    1.222   .     S
C158   O191    1.219   .     D
C158   N185    1.409   .     S
C158   O192    1.393   .     S
C159   H182    1.072   .     S
C159   C162    1.384   .     A
C160   N186    1.409   .     S
C160   O194    1.393   .     S
C160   O193    1.219   .     D
C161   H183    1.072   .     S
C161   C163    1.384   .     A
C162   H167    1.084   .     S
C162   C762    1.387   1_554 S
C163   H177    1.084   .     S
C163   C763    1.387   .     S
C164   C360    1.483   .     S
C164   C301    1.361   .     S
C165   C436    1.361   1_645 S
C165   C565    1.483   1_545 S
C166   O200    1.306   .     A
H173   O188    1.014   .     S
H174   O190    1.014   .     S
H175   O192    1.014   .     S
H176   O194    1.014   .     S
H179   C7      1.083   1_655 S
N185   Zn204   2.035   .     S
N185   N186    1.301   .     D
N186   Zn203   2.035   .     S
O187   Zn203   1.972   .     S
O187   C1      1.278   1_655 S
O189   C565    1.222   1_545 S
O195   Zn204   1.972   .     S
O196   Zn204   1.994   .     S
O197   Zn203   1.994   .     S
O198   Zn203   1.953   .     S
O198   C30     1.295   1_655 S
O199   Zn204   1.953   .     S
O200   Zn204   1.905   .     S
O201   Zn203   1.905   .     S
O202   C360    1.222   .     S
C205   C232    1.409   .     S
C205   O264    1.301   .     A
C205   O391    1.278   1_455 S
C206   C208    1.452   .     S
C206   O269    1.306   .     A
C206   O335    1.295   .     S
C207   C234    1.452   .     S
C207   C213    1.395   .     A
C207   C211    1.399   .     A
C208   C212    1.399   .     A
C208   C214    1.395   .     A
C209   C218    1.402   .     A
C209   H248    1.084   .     S
C209   C211    1.390   .     A
C210   H249    1.084   .     S
C210   C212    1.390   .     A
C210   C219    1.402   .     A
C211   H383    1.083   1_455 S
C212   H314    1.083   .     S
C213   C215    1.408   .     A
C213   C223    1.509   .     S
C214   C217    1.408   .     A
C214   C222    1.509   .     S
C215   C218    1.420   .     A
C215   C220    1.424   .     A
C216   O265    1.301   .     A
C216   C233    1.409   .     S
C216   O331    1.278   .     S
C217   C221    1.424   .     A
C217   C219    1.420   .     A
C218   C842    1.387   .     S
C219   C843    1.387   1_554 S
C220   C229    1.415   .     A
C220   C833    1.419   .     S
C221   C227    1.415   .     A
C221   C832    1.419   1_554 S
C222   H237    1.111   .     S
C222   H236    1.108   .     S
C222   H252    1.110   .     S
C223   H239    1.110   .     S
C223   H240    1.111   .     S
C223   H238    1.108   .     S
C224   O256    1.398   .     S
C225   O258    1.398   .     S
C225   C437    1.483   .     S
C225   O461    1.222   .     S
C226   O259    1.219   .     D
C226   N253    1.409   .     S
C226   O260    1.393   .     S
C227   H250    1.072   .     S
C227   C230    1.384   .     A
C228   N254    1.409   .     S
C228   O262    1.393   .     S
C228   O261    1.219   .     D
C229   H251    1.072   .     S
C229   C231    1.384   .     A
C230   H235    1.084   .     S
C230   C830    1.387   1_554 S
C231   H245    1.084   .     S
C231   C831    1.387   .     S
C232   C428    1.483   .     S
C232   C573    1.361   1_455 S
C234   O268    1.306   .     A
C234   O402    1.295   1_455 S
H241   O256    1.014   .     S
H242   O258    1.014   .     S
H243   O260    1.014   .     S
H244   O262    1.014   .     S
H246   C348    1.083   1_455 S
H247   C279    1.083   .     S
N253   Zn272   2.035   .     S
N253   N254    1.301   .     D
N254   Zn271   2.035   .     S
O255   Zn271   1.972   .     S
O255   C273    1.278   .     S
O263   Zn272   1.972   .     S
O263   C352    1.278   1_455 S
O264   Zn272   1.994   .     S
O265   Zn271   1.994   .     S
O266   Zn271   1.953   .     S
O266   C302    1.295   .     S
O267   Zn272   1.953   .     S
O267   C342    1.295   1_455 S
O268   Zn272   1.905   .     S
O269   Zn271   1.905   .     S
O270   C428    1.222   .     S
C273   C300    1.409   .     S
C273   O332    1.301   .     A
C274   C276    1.452   .     S
C274   O337    1.306   .     A
C274   O403    1.295   .     S
C275   C302    1.452   .     S
C275   C281    1.395   .     A
C275   C279    1.399   .     A
C276   C280    1.399   .     A
C276   C282    1.395   .     A
C277   C286    1.402   .     A
C277   H316    1.084   .     S
C277   C279    1.390   .     A
C278   H317    1.084   .     S
C278   C280    1.390   .     A
C278   C287    1.402   .     A
C280   H382    1.083   .     S
C281   C283    1.408   .     A
C281   C291    1.509   .     S
C282   C285    1.408   .     A
C282   C290    1.509   .     S
C283   C286    1.420   .     A
C283   C288    1.424   .     A
C284   O333    1.301   .     A
C284   C301    1.409   .     S
C284   O399    1.278   .     S
C285   C289    1.424   .     A
C285   C287    1.420   .     A
C286   C910    1.387   .     S
C287   C911    1.387   1_554 S
C288   C297    1.415   .     A
C288   C901    1.419   .     S
C289   C295    1.415   .     A
C289   C900    1.419   1_554 S
C290   H305    1.111   .     S
C290   H304    1.108   .     S
C290   H320    1.110   .     S
C291   H307    1.110   .     S
C291   H308    1.111   .     S
C291   H306    1.108   .     S
C292   O324    1.398   .     S
C293   O326    1.398   .     S
C293   C505    1.483   .     S
C293   O529    1.222   .     S
C294   O327    1.219   .     D
C294   N321    1.409   .     S
C294   O328    1.393   .     S
C295   H318    1.072   .     S
C295   C298    1.384   .     A
C296   N322    1.409   .     S
C296   O330    1.393   .     S
C296   O329    1.219   .     D
C297   H319    1.072   .     S
C297   C299    1.384   .     A
C298   H303    1.084   .     S
C298   C898    1.387   1_554 S
C299   H313    1.084   .     S
C299   C899    1.387   .     S
C300   C496    1.483   .     S
C300   C437    1.361   .     S
C302   O336    1.306   .     A
H309   O324    1.014   .     S
H310   O326    1.014   .     S
H311   O328    1.014   .     S
H312   O330    1.014   .     S
H315   C347    1.083   .     S
N321   Zn340   2.035   .     S
N321   N322    1.301   .     D
N322   Zn339   2.035   .     S
O323   Zn339   1.972   .     S
O323   C341    1.278   .     S
O331   Zn340   1.972   .     S
O332   Zn340   1.994   .     S
O333   Zn339   1.994   .     S
O334   Zn339   1.953   .     S
O334   C370    1.295   .     S
O335   Zn340   1.953   .     S
O336   Zn340   1.905   .     S
O337   Zn339   1.905   .     S
O338   C496    1.222   .     S
C341   C368    1.409   .     S
C341   O400    1.301   .     A
C342   C344    1.452   .     S
C342   O405    1.306   .     A
C342   O267    1.295   1_655 S
C343   C370    1.452   .     S
C343   C349    1.395   .     A
C343   C347    1.399   .     A
C344   C348    1.399   .     A
C344   C350    1.395   .     A
C345   C354    1.402   .     A
C345   H384    1.084   .     S
C345   C347    1.390   .     A
C346   H385    1.084   .     S
C346   C348    1.390   .     A
C346   C355    1.402   .     A
C348   H246    1.083   1_655 S
C349   C351    1.408   .     A
C349   C359    1.509   .     S
C350   C353    1.408   .     A
C350   C358    1.509   .     S
C351   C354    1.420   .     A
C351   C356    1.424   .     A
C352   O401    1.301   .     A
C352   C369    1.409   .     S
C352   O263    1.278   1_655 S
C353   C357    1.424   .     A
C353   C355    1.420   .     A
C354   C978    1.387   .     S
C355   C979    1.387   1_554 S
C356   C365    1.415   .     A
C356   C969    1.419   .     S
C357   C363    1.415   .     A
C357   C968    1.419   1_554 S
C358   H373    1.111   .     S
C358   H372    1.108   .     S
C358   H388    1.110   .     S
C359   H375    1.110   .     S
C359   H376    1.111   .     S
C359   H374    1.108   .     S
C360   O392    1.398   .     S
C361   O394    1.398   .     S
C361   C573    1.483   .     S
C361   O597    1.222   .     S
C362   O395    1.219   .     D
C362   N389    1.409   .     S
C362   O396    1.393   .     S
C363   H386    1.072   .     S
C363   C366    1.384   .     A
C364   N390    1.409   .     S
C364   O398    1.393   .     S
C364   O397    1.219   .     D
C365   H387    1.072   .     S
C365   C367    1.384   .     A
C366   H371    1.084   .     S
C366   C966    1.387   1_554 S
C367   H381    1.084   .     S
C367   C967    1.387   .     S
C368   C564    1.483   .     S
C368   C505    1.361   .     S
C369   C28     1.361   1_655 S
C370   O404    1.306   .     A
H377   O392    1.014   .     S
H378   O394    1.014   .     S
H379   O396    1.014   .     S
H380   O398    1.014   .     S
H383   C211    1.083   1_655 S
N389   Zn408   2.035   .     S
N389   N390    1.301   .     D
N390   Zn407   2.035   .     S
O391   Zn407   1.972   .     S
O391   C205    1.278   1_655 S
O399   Zn408   1.972   .     S
O400   Zn408   1.994   .     S
O401   Zn407   1.994   .     S
O402   Zn407   1.953   .     S
O402   C234    1.295   1_655 S
O403   Zn408   1.953   .     S
O404   Zn408   1.905   .     S
O405   Zn407   1.905   .     S
O406   C564    1.222   .     S
C409   C436    1.409   .     S
C409   O468    1.301   .     A
C409   O595    1.278   1_455 S
C410   C412    1.452   .     S
C410   O473    1.306   .     A
C410   O539    1.295   .     S
C411   C438    1.452   .     S
C411   C417    1.395   .     A
C411   C415    1.399   .     A
C412   C416    1.399   .     A
C412   C418    1.395   .     A
C413   C422    1.402   .     A
C413   H452    1.084   .     S
C413   C415    1.390   .     A
C414   H453    1.084   .     S
C414   C416    1.390   .     A
C414   C423    1.402   .     A
C415   H587    1.083   1_455 S
C416   H518    1.083   .     S
C417   C419    1.408   .     A
C417   C427    1.509   .     S
C418   C421    1.408   .     A
C418   C426    1.509   .     S
C419   C422    1.420   .     A
C419   C424    1.424   .     A
C420   O469    1.301   .     A
C420   C437    1.409   .     S
C420   O535    1.278   .     S
C421   C425    1.424   .     A
C421   C423    1.420   .     A
C422   C1046   1.387   .     S
C423   C1047   1.387   1_554 S
C424   C433    1.415   .     A
C424   C1037   1.419   .     S
C425   C431    1.415   .     A
C425   C1036   1.419   1_554 S
C426   H441    1.111   .     S
C426   H440    1.108   .     S
C426   H456    1.110   .     S
C427   H443    1.110   .     S
C427   H444    1.111   .     S
C427   H442    1.108   .     S
C428   O460    1.398   .     S
C429   O462    1.398   .     S
C429   C29     1.483   1_565 S
C429   O53     1.222   1_565 S
C430   O463    1.219   .     D
C430   N457    1.409   .     S
C430   O464    1.393   .     S
C431   H454    1.072   .     S
C431   C434    1.384   .     A
C432   N458    1.409   .     S
C432   O466    1.393   .     S
C432   O465    1.219   .     D
C433   H455    1.072   .     S
C433   C435    1.384   .     A
C434   H439    1.084   .     S
C434   C1034   1.387   1_554 S
C435   H449    1.084   .     S
C435   C1035   1.387   .     S
C436   C20     1.483   1_565 S
C436   C165    1.361   1_465 S
C438   O472    1.306   .     A
C438   O606    1.295   1_455 S
H445   O460    1.014   .     S
H446   O462    1.014   .     S
H447   O464    1.014   .     S
H448   O466    1.014   .     S
H450   C552    1.083   1_455 S
H451   C483    1.083   .     S
N457   Zn476   2.035   .     S
N457   N458    1.301   .     D
N458   Zn475   2.035   .     S
O459   Zn475   1.972   .     S
O459   C477    1.278   .     S
O467   Zn476   1.972   .     S
O467   C556    1.278   1_455 S
O468   Zn476   1.994   .     S
O469   Zn475   1.994   .     S
O470   Zn475   1.953   .     S
O470   C506    1.295   .     S
O471   Zn476   1.953   .     S
O471   C546    1.295   1_455 S
O472   Zn476   1.905   .     S
O473   Zn475   1.905   .     S
O474   C20     1.222   1_565 S
C477   C504    1.409   .     S
C477   O536    1.301   .     A
C478   C480    1.452   .     S
C478   O541    1.306   .     A
C478   O607    1.295   .     S
C479   C506    1.452   .     S
C479   C485    1.395   .     A
C479   C483    1.399   .     A
C480   C484    1.399   .     A
C480   C486    1.395   .     A
C481   C490    1.402   .     A
C481   H520    1.084   .     S
C481   C483    1.390   .     A
C482   H521    1.084   .     S
C482   C484    1.390   .     A
C482   C491    1.402   .     A
C484   H586    1.083   .     S
C485   C487    1.408   .     A
C485   C495    1.509   .     S
C486   C489    1.408   .     A
C486   C494    1.509   .     S
C487   C490    1.420   .     A
C487   C492    1.424   .     A
C488   O537    1.301   .     A
C488   C505    1.409   .     S
C488   O603    1.278   .     S
C489   C493    1.424   .     A
C489   C491    1.420   .     A
C490   C1114   1.387   .     S
C491   C1115   1.387   1_554 S
C492   C501    1.415   .     A
C492   C1105   1.419   .     S
C493   C499    1.415   .     A
C493   C1104   1.419   1_554 S
C494   H509    1.111   .     S
C494   H508    1.108   .     S
C494   H524    1.110   .     S
C495   H511    1.110   .     S
C495   H512    1.111   .     S
C495   H510    1.108   .     S
C496   O528    1.398   .     S
C497   O530    1.398   .     S
C497   C97     1.483   1_565 S
C497   O121    1.222   1_565 S
C498   O531    1.219   .     D
C498   N525    1.409   .     S
C498   O532    1.393   .     S
C499   H522    1.072   .     S
C499   C502    1.384   .     A
C500   N526    1.409   .     S
C500   O534    1.393   .     S
C500   O533    1.219   .     D
C501   H523    1.072   .     S
C501   C503    1.384   .     A
C502   H507    1.084   .     S
C502   C1102   1.387   1_554 S
C503   H517    1.084   .     S
C503   C1103   1.387   .     S
C504   C88     1.483   1_565 S
C504   C29     1.361   1_565 S
C506   O540    1.306   .     A
H513   O528    1.014   .     S
H514   O530    1.014   .     S
H515   O532    1.014   .     S
H516   O534    1.014   .     S
H519   C551    1.083   .     S
N525   Zn544   2.035   .     S
N525   N526    1.301   .     D
N526   Zn543   2.035   .     S
O527   Zn543   1.972   .     S
O527   C545    1.278   .     S
O535   Zn544   1.972   .     S
O536   Zn544   1.994   .     S
O537   Zn543   1.994   .     S
O538   Zn543   1.953   .     S
O538   C574    1.295   .     S
O539   Zn544   1.953   .     S
O540   Zn544   1.905   .     S
O541   Zn543   1.905   .     S
O542   C88     1.222   1_565 S
C545   C572    1.409   .     S
C545   O604    1.301   .     A
C546   C548    1.452   .     S
C546   O609    1.306   .     A
C546   O471    1.295   1_655 S
C547   C574    1.452   .     S
C547   C553    1.395   .     A
C547   C551    1.399   .     A
C548   C552    1.399   .     A
C548   C554    1.395   .     A
C549   C558    1.402   .     A
C549   H588    1.084   .     S
C549   C551    1.390   .     A
C550   H589    1.084   .     S
C550   C552    1.390   .     A
C550   C559    1.402   .     A
C552   H450    1.083   1_655 S
C553   C555    1.408   .     A
C553   C563    1.509   .     S
C554   C557    1.408   .     A
C554   C562    1.509   .     S
C555   C558    1.420   .     A
C555   C560    1.424   .     A
C556   O605    1.301   .     A
C556   C573    1.409   .     S
C556   O467    1.278   1_655 S
C557   C561    1.424   .     A
C557   C559    1.420   .     A
C558   C1182   1.387   .     S
C559   C1183   1.387   1_554 S
C560   C569    1.415   .     A
C560   C1173   1.419   .     S
C561   C567    1.415   .     A
C561   C1172   1.419   1_554 S
C562   H577    1.111   .     S
C562   H576    1.108   .     S
C562   H592    1.110   .     S
C563   H579    1.110   .     S
C563   H580    1.111   .     S
C563   H578    1.108   .     S
C564   O596    1.398   .     S
C565   O598    1.398   .     S
C565   C165    1.483   1_565 S
C565   O189    1.222   1_565 S
C566   O599    1.219   .     D
C566   N593    1.409   .     S
C566   O600    1.393   .     S
C567   H590    1.072   .     S
C567   C570    1.384   .     A
C568   N594    1.409   .     S
C568   O602    1.393   .     S
C568   O601    1.219   .     D
C569   H591    1.072   .     S
C569   C571    1.384   .     A
C570   H575    1.084   .     S
C570   C1170   1.387   1_554 S
C571   H585    1.084   .     S
C571   C1171   1.387   .     S
C572   C156    1.483   1_565 S
C572   C97     1.361   1_565 S
C573   C232    1.361   1_655 S
C574   O608    1.306   .     A
H581   O596    1.014   .     S
H582   O598    1.014   .     S
H583   O600    1.014   .     S
H584   O602    1.014   .     S
H587   C415    1.083   1_655 S
N593   Zn612   2.035   .     S
N593   N594    1.301   .     D
N594   Zn611   2.035   .     S
O595   Zn611   1.972   .     S
O595   C409    1.278   1_655 S
O603   Zn612   1.972   .     S
O604   Zn612   1.994   .     S
O605   Zn611   1.994   .     S
O606   Zn611   1.953   .     S
O606   C438    1.295   1_655 S
O607   Zn612   1.953   .     S
O608   Zn612   1.905   .     S
O609   Zn611   1.905   .     S
O610   C156    1.222   1_565 S
C613   C640    1.409   .     S
C613   O672    1.301   .     A
C613   O799    1.278   1_455 S
C614   C616    1.452   .     S
C614   O677    1.306   .     A
C614   O743    1.295   .     S
C615   C642    1.452   .     S
C615   C621    1.395   .     A
C615   C619    1.399   .     A
C616   C620    1.399   .     A
C616   C622    1.395   .     A
C617   C626    1.402   .     A
C617   H656    1.084   .     S
C617   C619    1.390   .     A
C618   H657    1.084   .     S
C618   C620    1.390   .     A
C618   C627    1.402   .     A
C619   H791    1.083   1_455 S
C620   H722    1.083   .     S
C621   C623    1.408   .     A
C621   C631    1.509   .     S
C622   C625    1.408   .     A
C622   C630    1.509   .     S
C623   C626    1.420   .     A
C623   C628    1.424   .     A
C624   O673    1.301   .     A
C624   C641    1.409   .     S
C624   O739    1.278   .     S
C625   C629    1.424   .     A
C625   C627    1.420   .     A
C626   C26     1.387   1_556 S
C628   C637    1.415   .     A
C628   C17     1.419   1_556 S
C629   C635    1.415   .     A
C630   H645    1.111   .     S
C630   H644    1.108   .     S
C630   H660    1.110   .     S
C631   H647    1.110   .     S
C631   H648    1.111   .     S
C631   H646    1.108   .     S
C632   O664    1.398   .     S
C632   C1048   1.483   1_545 S
C632   O1086   1.222   1_545 S
C633   O666    1.398   .     S
C633   C845    1.483   .     S
C633   O869    1.222   .     S
C634   O667    1.219   .     D
C634   N661    1.409   .     S
C634   O668    1.393   .     S
C635   H658    1.072   .     S
C635   C638    1.384   .     A
C636   N662    1.409   .     S
C636   O670    1.393   .     S
C636   O669    1.219   .     D
C637   H659    1.072   .     S
C637   C639    1.384   .     A
C638   H643    1.084   .     S
C639   H653    1.084   .     S
C639   C15     1.387   1_556 S
C640   C836    1.483   .     S
C640   C981    1.361   1_455 S
C641   C1116   1.361   1_545 S
C641   C1041   1.483   1_545 S
C642   O676    1.306   .     A
C642   O810    1.295   1_455 S
H649   O664    1.014   .     S
H650   O666    1.014   .     S
H651   O668    1.014   .     S
H652   O670    1.014   .     S
H654   C756    1.083   1_455 S
H655   C687    1.083   .     S
N661   Zn680   2.035   .     S
N661   N662    1.301   .     D
N662   Zn679   2.035   .     S
O663   Zn679   1.972   .     S
O663   C681    1.278   .     S
O665   C1041   1.222   1_545 S
O671   Zn680   1.972   .     S
O671   C760    1.278   1_455 S
O672   Zn680   1.994   .     S
O673   Zn679   1.994   .     S
O674   Zn679   1.953   .     S
O674   C710    1.295   .     S
O675   Zn680   1.953   .     S
O675   C750    1.295   1_455 S
O676   Zn680   1.905   .     S
O677   Zn679   1.905   .     S
O678   C836    1.222   .     S
C681   C708    1.409   .     S
C681   O740    1.301   .     A
C682   C684    1.452   .     S
C682   O745    1.306   .     A
C682   O811    1.295   .     S
C683   C710    1.452   .     S
C683   C689    1.395   .     A
C683   C687    1.399   .     A
C684   C688    1.399   .     A
C684   C690    1.395   .     A
C685   C694    1.402   .     A
C685   H724    1.084   .     S
C685   C687    1.390   .     A
C686   H725    1.084   .     S
C686   C688    1.390   .     A
C686   C695    1.402   .     A
C688   H790    1.083   .     S
C689   C691    1.408   .     A
C689   C699    1.509   .     S
C690   C693    1.408   .     A
C690   C698    1.509   .     S
C691   C694    1.420   .     A
C691   C696    1.424   .     A
C692   O741    1.301   .     A
C692   C709    1.409   .     S
C692   O807    1.278   .     S
C693   C697    1.424   .     A
C693   C695    1.420   .     A
C694   C94     1.387   1_556 S
C696   C705    1.415   .     A
C696   C85     1.419   1_556 S
C697   C703    1.415   .     A
C698   H713    1.111   .     S
C698   H712    1.108   .     S
C698   H728    1.110   .     S
C699   H715    1.110   .     S
C699   H716    1.111   .     S
C699   H714    1.108   .     S
C700   O732    1.398   .     S
C700   C1116   1.483   1_545 S
C700   O1154   1.222   1_545 S
C701   O734    1.398   .     S
C701   C913    1.483   .     S
C701   O937    1.222   .     S
C702   O735    1.219   .     D
C702   N729    1.409   .     S
C702   O736    1.393   .     S
C703   H726    1.072   .     S
C703   C706    1.384   .     A
C704   N730    1.409   .     S
C704   O738    1.393   .     S
C704   O737    1.219   .     D
C705   H727    1.072   .     S
C705   C707    1.384   .     A
C706   H711    1.084   .     S
C707   H721    1.084   .     S
C707   C83     1.387   1_556 S
C708   C904    1.483   .     S
C708   C845    1.361   .     S
C709   C1184   1.361   1_545 S
C709   C1109   1.483   1_545 S
C710   O744    1.306   .     A
H717   O732    1.014   .     S
H718   O734    1.014   .     S
H719   O736    1.014   .     S
H720   O738    1.014   .     S
H723   C755    1.083   .     S
N729   Zn748   2.035   .     S
N729   N730    1.301   .     D
N730   Zn747   2.035   .     S
O731   Zn747   1.972   .     S
O731   C749    1.278   .     S
O733   C1109   1.222   1_545 S
O739   Zn748   1.972   .     S
O740   Zn748   1.994   .     S
O741   Zn747   1.994   .     S
O742   Zn747   1.953   .     S
O742   C778    1.295   .     S
O743   Zn748   1.953   .     S
O744   Zn748   1.905   .     S
O745   Zn747   1.905   .     S
O746   C904    1.222   .     S
C749   C776    1.409   .     S
C749   O808    1.301   .     A
C750   C752    1.452   .     S
C750   O813    1.306   .     A
C750   O675    1.295   1_655 S
C751   C778    1.452   .     S
C751   C757    1.395   .     A
C751   C755    1.399   .     A
C752   C756    1.399   .     A
C752   C758    1.395   .     A
C753   C762    1.402   .     A
C753   H792    1.084   .     S
C753   C755    1.390   .     A
C754   H793    1.084   .     S
C754   C756    1.390   .     A
C754   C763    1.402   .     A
C756   H654    1.083   1_655 S
C757   C759    1.408   .     A
C757   C767    1.509   .     S
C758   C761    1.408   .     A
C758   C766    1.509   .     S
C759   C762    1.420   .     A
C759   C764    1.424   .     A
C760   O809    1.301   .     A
C760   C777    1.409   .     S
C760   O671    1.278   1_655 S
C761   C765    1.424   .     A
C761   C763    1.420   .     A
C762   C162    1.387   1_556 S
C764   C773    1.415   .     A
C764   C153    1.419   1_556 S
C765   C771    1.415   .     A
C766   H781    1.111   .     S
C766   H780    1.108   .     S
C766   H796    1.110   .     S
C767   H783    1.110   .     S
C767   H784    1.111   .     S
C767   H782    1.108   .     S
C768   O800    1.398   .     S
C768   C1184   1.483   1_545 S
C768   O1222   1.222   1_545 S
C769   O802    1.398   .     S
C769   C981    1.483   .     S
C769   O1005   1.222   .     S
C770   O803    1.219   .     D
C770   N797    1.409   .     S
C770   O804    1.393   .     S
C771   H794    1.072   .     S
C771   C774    1.384   .     A
C772   N798    1.409   .     S
C772   O806    1.393   .     S
C772   O805    1.219   .     D
C773   H795    1.072   .     S
C773   C775    1.384   .     A
C774   H779    1.084   .     S
C775   H789    1.084   .     S
C775   C151    1.387   1_556 S
C776   C972    1.483   .     S
C776   C913    1.361   .     S
C777   C1048   1.361   1_645 S
C777   C1177   1.483   1_545 S
C778   O812    1.306   .     A
H785   O800    1.014   .     S
H786   O802    1.014   .     S
H787   O804    1.014   .     S
H788   O806    1.014   .     S
H791   C619    1.083   1_655 S
N797   Zn816   2.035   .     S
N797   N798    1.301   .     D
N798   Zn815   2.035   .     S
O799   Zn815   1.972   .     S
O799   C613    1.278   1_655 S
O801   C1177   1.222   1_545 S
O807   Zn816   1.972   .     S
O808   Zn816   1.994   .     S
O809   Zn815   1.994   .     S
O810   Zn815   1.953   .     S
O810   C642    1.295   1_655 S
O811   Zn816   1.953   .     S
O812   Zn816   1.905   .     S
O813   Zn815   1.905   .     S
O814   C972    1.222   .     S
C817   C844    1.409   .     S
C817   O876    1.301   .     A
C817   O1003   1.278   1_455 S
C818   C820    1.452   .     S
C818   O881    1.306   .     A
C818   O947    1.295   .     S
C819   C846    1.452   .     S
C819   C825    1.395   .     A
C819   C823    1.399   .     A
C820   C824    1.399   .     A
C820   C826    1.395   .     A
C821   C830    1.402   .     A
C821   H860    1.084   .     S
C821   C823    1.390   .     A
C822   H861    1.084   .     S
C822   C824    1.390   .     A
C822   C831    1.402   .     A
C823   H995    1.083   1_455 S
C824   H926    1.083   .     S
C825   C827    1.408   .     A
C825   C835    1.509   .     S
C826   C829    1.408   .     A
C826   C834    1.509   .     S
C827   C830    1.420   .     A
C827   C832    1.424   .     A
C828   O877    1.301   .     A
C828   C845    1.409   .     S
C828   O943    1.278   .     S
C829   C833    1.424   .     A
C829   C831    1.420   .     A
C830   C230    1.387   1_556 S
C832   C841    1.415   .     A
C832   C221    1.419   1_556 S
C833   C839    1.415   .     A
C834   H849    1.111   .     S
C834   H848    1.108   .     S
C834   H864    1.110   .     S
C835   H851    1.110   .     S
C835   H852    1.111   .     S
C835   H850    1.108   .     S
C836   O868    1.398   .     S
C837   O870    1.398   .     S
C837   C1049   1.483   .     S
C837   O1073   1.222   .     S
C838   O871    1.219   .     D
C838   N865    1.409   .     S
C838   O872    1.393   .     S
C839   H862    1.072   .     S
C839   C842    1.384   .     A
C840   N866    1.409   .     S
C840   O874    1.393   .     S
C840   O873    1.219   .     D
C841   H863    1.072   .     S
C841   C843    1.384   .     A
C842   H847    1.084   .     S
C843   H857    1.084   .     S
C843   C219    1.387   1_556 S
C844   C1040   1.483   .     S
C844   C1185   1.361   1_455 S
C846   O880    1.306   .     A
C846   O1014   1.295   1_455 S
H853   O868    1.014   .     S
H854   O870    1.014   .     S
H855   O872    1.014   .     S
H856   O874    1.014   .     S
H858   C960    1.083   1_455 S
H859   C891    1.083   .     S
N865   Zn884   2.035   .     S
N865   N866    1.301   .     D
N866   Zn883   2.035   .     S
O867   Zn883   1.972   .     S
O867   C885    1.278   .     S
O875   Zn884   1.972   .     S
O875   C964    1.278   1_455 S
O876   Zn884   1.994   .     S
O877   Zn883   1.994   .     S
O878   Zn883   1.953   .     S
O878   C914    1.295   .     S
O879   Zn884   1.953   .     S
O879   C954    1.295   1_455 S
O880   Zn884   1.905   .     S
O881   Zn883   1.905   .     S
O882   C1040   1.222   .     S
C885   C912    1.409   .     S
C885   O944    1.301   .     A
C886   C888    1.452   .     S
C886   O949    1.306   .     A
C886   O1015   1.295   .     S
C887   C914    1.452   .     S
C887   C893    1.395   .     A
C887   C891    1.399   .     A
C888   C892    1.399   .     A
C888   C894    1.395   .     A
C889   C898    1.402   .     A
C889   H928    1.084   .     S
C889   C891    1.390   .     A
C890   H929    1.084   .     S
C890   C892    1.390   .     A
C890   C899    1.402   .     A
C892   H994    1.083   .     S
C893   C895    1.408   .     A
C893   C903    1.509   .     S
C894   C897    1.408   .     A
C894   C902    1.509   .     S
C895   C898    1.420   .     A
C895   C900    1.424   .     A
C896   O945    1.301   .     A
C896   C913    1.409   .     S
C896   O1011   1.278   .     S
C897   C901    1.424   .     A
C897   C899    1.420   .     A
C898   C298    1.387   1_556 S
C900   C909    1.415   .     A
C900   C289    1.419   1_556 S
C901   C907    1.415   .     A
C902   H917    1.111   .     S
C902   H916    1.108   .     S
C902   H932    1.110   .     S
C903   H919    1.110   .     S
C903   H920    1.111   .     S
C903   H918    1.108   .     S
C904   O936    1.398   .     S
C905   O938    1.398   .     S
C905   C1117   1.483   .     S
C905   O1141   1.222   .     S
C906   O939    1.219   .     D
C906   N933    1.409   .     S
C906   O940    1.393   .     S
C907   H930    1.072   .     S
C907   C910    1.384   .     A
C908   N934    1.409   .     S
C908   O942    1.393   .     S
C908   O941    1.219   .     D
C909   H931    1.072   .     S
C909   C911    1.384   .     A
C910   H915    1.084   .     S
C911   H925    1.084   .     S
C911   C287    1.387   1_556 S
C912   C1108   1.483   .     S
C912   C1049   1.361   .     S
C914   O948    1.306   .     A
H921   O936    1.014   .     S
H922   O938    1.014   .     S
H923   O940    1.014   .     S
H924   O942    1.014   .     S
H927   C959    1.083   .     S
N933   Zn952   2.035   .     S
N933   N934    1.301   .     D
N934   Zn951   2.035   .     S
O935   Zn951   1.972   .     S
O935   C953    1.278   .     S
O943   Zn952   1.972   .     S
O944   Zn952   1.994   .     S
O945   Zn951   1.994   .     S
O946   Zn951   1.953   .     S
O946   C982    1.295   .     S
O947   Zn952   1.953   .     S
O948   Zn952   1.905   .     S
O949   Zn951   1.905   .     S
O950   C1108   1.222   .     S
C953   C980    1.409   .     S
C953   O1012   1.301   .     A
C954   C956    1.452   .     S
C954   O1017   1.306   .     A
C954   O879    1.295   1_655 S
C955   C982    1.452   .     S
C955   C961    1.395   .     A
C955   C959    1.399   .     A
C956   C960    1.399   .     A
C956   C962    1.395   .     A
C957   C966    1.402   .     A
C957   H996    1.084   .     S
C957   C959    1.390   .     A
C958   H997    1.084   .     S
C958   C960    1.390   .     A
C958   C967    1.402   .     A
C960   H858    1.083   1_655 S
C961   C963    1.408   .     A
C961   C971    1.509   .     S
C962   C965    1.408   .     A
C962   C970    1.509   .     S
C963   C966    1.420   .     A
C963   C968    1.424   .     A
C964   O1013   1.301   .     A
C964   C981    1.409   .     S
C964   O875    1.278   1_655 S
C965   C969    1.424   .     A
C965   C967    1.420   .     A
C966   C366    1.387   1_556 S
C968   C977    1.415   .     A
C968   C357    1.419   1_556 S
C969   C975    1.415   .     A
C970   H985    1.111   .     S
C970   H984    1.108   .     S
C970   H1000   1.110   .     S
C971   H987    1.110   .     S
C971   H988    1.111   .     S
C971   H986    1.108   .     S
C972   O1004   1.398   .     S
C973   O1006   1.398   .     S
C973   C1185   1.483   .     S
C973   O1209   1.222   .     S
C974   O1007   1.219   .     D
C974   N1001   1.409   .     S
C974   O1008   1.393   .     S
C975   H998    1.072   .     S
C975   C978    1.384   .     A
C976   N1002   1.409   .     S
C976   O1010   1.393   .     S
C976   O1009   1.219   .     D
C977   H999    1.072   .     S
C977   C979    1.384   .     A
C978   H983    1.084   .     S
C979   H993    1.084   .     S
C979   C355    1.387   1_556 S
C980   C1176   1.483   .     S
C980   C1117   1.361   .     S
C981   C640    1.361   1_655 S
C982   O1016   1.306   .     A
H989   O1004   1.014   .     S
H990   O1006   1.014   .     S
H991   O1008   1.014   .     S
H992   O1010   1.014   .     S
H995   C823    1.083   1_655 S
N1001  Zn1020  2.035   .     S
N1001  N1002   1.301   .     D
N1002  Zn1019  2.035   .     S
O1003  Zn1019  1.972   .     S
O1003  C817    1.278   1_655 S
O1011  Zn1020  1.972   .     S
O1012  Zn1020  1.994   .     S
O1013  Zn1019  1.994   .     S
O1014  Zn1019  1.953   .     S
O1014  C846    1.295   1_655 S
O1015  Zn1020  1.953   .     S
O1016  Zn1020  1.905   .     S
O1017  Zn1019  1.905   .     S
O1018  C1176   1.222   .     S
C1021  C1048   1.409   .     S
C1021  O1080   1.301   .     A
C1021  O1207   1.278   1_455 S
C1022  C1024   1.452   .     S
C1022  O1085   1.306   .     A
C1022  O1151   1.295   .     S
C1023  C1050   1.452   .     S
C1023  C1029   1.395   .     A
C1023  C1027   1.399   .     A
C1024  C1028   1.399   .     A
C1024  C1030   1.395   .     A
C1025  C1034   1.402   .     A
C1025  H1064   1.084   .     S
C1025  C1027   1.390   .     A
C1026  H1065   1.084   .     S
C1026  C1028   1.390   .     A
C1026  C1035   1.402   .     A
C1027  H1199   1.083   1_455 S
C1028  H1130   1.083   .     S
C1029  C1031   1.408   .     A
C1029  C1039   1.509   .     S
C1030  C1033   1.408   .     A
C1030  C1038   1.509   .     S
C1031  C1034   1.420   .     A
C1031  C1036   1.424   .     A
C1032  O1081   1.301   .     A
C1032  C1049   1.409   .     S
C1032  O1147   1.278   .     S
C1033  C1037   1.424   .     A
C1033  C1035   1.420   .     A
C1034  C434    1.387   1_556 S
C1036  C1045   1.415   .     A
C1036  C425    1.419   1_556 S
C1037  C1043   1.415   .     A
C1038  H1053   1.111   .     S
C1038  H1052   1.108   .     S
C1038  H1068   1.110   .     S
C1039  H1055   1.110   .     S
C1039  H1056   1.111   .     S
C1039  H1054   1.108   .     S
C1040  O1072   1.398   .     S
C1041  O1074   1.398   .     S
C1041  C641    1.483   1_565 S
C1041  O665    1.222   1_565 S
C1042  O1075   1.219   .     D
C1042  N1069   1.409   .     S
C1042  O1076   1.393   .     S
C1043  H1066   1.072   .     S
C1043  C1046   1.384   .     A
C1044  N1070   1.409   .     S
C1044  O1078   1.393   .     S
C1044  O1077   1.219   .     D
C1045  H1067   1.072   .     S
C1045  C1047   1.384   .     A
C1046  H1051   1.084   .     S
C1047  H1061   1.084   .     S
C1047  C423    1.387   1_556 S
C1048  C632    1.483   1_565 S
C1048  C777    1.361   1_465 S
C1050  O1084   1.306   .     A
C1050  O1218   1.295   1_455 S
H1057  O1072   1.014   .     S
H1058  O1074   1.014   .     S
H1059  O1076   1.014   .     S
H1060  O1078   1.014   .     S
H1062  C1164   1.083   1_455 S
H1063  C1095   1.083   .     S
N1069  Zn1088  2.035   .     S
N1069  N1070   1.301   .     D
N1070  Zn1087  2.035   .     S
O1071  Zn1087  1.972   .     S
O1071  C1089   1.278   .     S
O1079  Zn1088  1.972   .     S
O1079  C1168   1.278   1_455 S
O1080  Zn1088  1.994   .     S
O1081  Zn1087  1.994   .     S
O1082  Zn1087  1.953   .     S
O1082  C1118   1.295   .     S
O1083  Zn1088  1.953   .     S
O1083  C1158   1.295   1_455 S
O1084  Zn1088  1.905   .     S
O1085  Zn1087  1.905   .     S
O1086  C632    1.222   1_565 S
C1089  C1116   1.409   .     S
C1089  O1148   1.301   .     A
C1090  C1092   1.452   .     S
C1090  O1153   1.306   .     A
C1090  O1219   1.295   .     S
C1091  C1118   1.452   .     S
C1091  C1097   1.395   .     A
C1091  C1095   1.399   .     A
C1092  C1096   1.399   .     A
C1092  C1098   1.395   .     A
C1093  C1102   1.402   .     A
C1093  H1132   1.084   .     S
C1093  C1095   1.390   .     A
C1094  H1133   1.084   .     S
C1094  C1096   1.390   .     A
C1094  C1103   1.402   .     A
C1096  H1198   1.083   .     S
C1097  C1099   1.408   .     A
C1097  C1107   1.509   .     S
C1098  C1101   1.408   .     A
C1098  C1106   1.509   .     S
C1099  C1102   1.420   .     A
C1099  C1104   1.424   .     A
C1100  O1149   1.301   .     A
C1100  C1117   1.409   .     S
C1100  O1215   1.278   .     S
C1101  C1105   1.424   .     A
C1101  C1103   1.420   .     A
C1102  C502    1.387   1_556 S
C1104  C1113   1.415   .     A
C1104  C493    1.419   1_556 S
C1105  C1111   1.415   .     A
C1106  H1121   1.111   .     S
C1106  H1120   1.108   .     S
C1106  H1136   1.110   .     S
C1107  H1123   1.110   .     S
C1107  H1124   1.111   .     S
C1107  H1122   1.108   .     S
C1108  O1140   1.398   .     S
C1109  O1142   1.398   .     S
C1109  C709    1.483   1_565 S
C1109  O733    1.222   1_565 S
C1110  O1143   1.219   .     D
C1110  N1137   1.409   .     S
C1110  O1144   1.393   .     S
C1111  H1134   1.072   .     S
C1111  C1114   1.384   .     A
C1112  N1138   1.409   .     S
C1112  O1146   1.393   .     S
C1112  O1145   1.219   .     D
C1113  H1135   1.072   .     S
C1113  C1115   1.384   .     A
C1114  H1119   1.084   .     S
C1115  H1129   1.084   .     S
C1115  C491    1.387   1_556 S
C1116  C700    1.483   1_565 S
C1116  C641    1.361   1_565 S
C1118  O1152   1.306   .     A
H1125  O1140   1.014   .     S
H1126  O1142   1.014   .     S
H1127  O1144   1.014   .     S
H1128  O1146   1.014   .     S
H1131  C1163   1.083   .     S
N1137  Zn1156  2.035   .     S
N1137  N1138   1.301   .     D
N1138  Zn1155  2.035   .     S
O1139  Zn1155  1.972   .     S
O1139  C1157   1.278   .     S
O1147  Zn1156  1.972   .     S
O1148  Zn1156  1.994   .     S
O1149  Zn1155  1.994   .     S
O1150  Zn1155  1.953   .     S
O1150  C1186   1.295   .     S
O1151  Zn1156  1.953   .     S
O1152  Zn1156  1.905   .     S
O1153  Zn1155  1.905   .     S
O1154  C700    1.222   1_565 S
C1157  C1184   1.409   .     S
C1157  O1216   1.301   .     A
C1158  C1160   1.452   .     S
C1158  O1221   1.306   .     A
C1158  O1083   1.295   1_655 S
C1159  C1186   1.452   .     S
C1159  C1165   1.395   .     A
C1159  C1163   1.399   .     A
C1160  C1164   1.399   .     A
C1160  C1166   1.395   .     A
C1161  C1170   1.402   .     A
C1161  H1200   1.084   .     S
C1161  C1163   1.390   .     A
C1162  H1201   1.084   .     S
C1162  C1164   1.390   .     A
C1162  C1171   1.402   .     A
C1164  H1062   1.083   1_655 S
C1165  C1167   1.408   .     A
C1165  C1175   1.509   .     S
C1166  C1169   1.408   .     A
C1166  C1174   1.509   .     S
C1167  C1170   1.420   .     A
C1167  C1172   1.424   .     A
C1168  O1217   1.301   .     A
C1168  C1185   1.409   .     S
C1168  O1079   1.278   1_655 S
C1169  C1173   1.424   .     A
C1169  C1171   1.420   .     A
C1170  C570    1.387   1_556 S
C1172  C1181   1.415   .     A
C1172  C561    1.419   1_556 S
C1173  C1179   1.415   .     A
C1174  H1189   1.111   .     S
C1174  H1188   1.108   .     S
C1174  H1204   1.110   .     S
C1175  H1191   1.110   .     S
C1175  H1192   1.111   .     S
C1175  H1190   1.108   .     S
C1176  O1208   1.398   .     S
C1177  O1210   1.398   .     S
C1177  C777    1.483   1_565 S
C1177  O801    1.222   1_565 S
C1178  O1211   1.219   .     D
C1178  N1205   1.409   .     S
C1178  O1212   1.393   .     S
C1179  H1202   1.072   .     S
C1179  C1182   1.384   .     A
C1180  N1206   1.409   .     S
C1180  O1214   1.393   .     S
C1180  O1213   1.219   .     D
C1181  H1203   1.072   .     S
C1181  C1183   1.384   .     A
C1182  H1187   1.084   .     S
C1183  H1197   1.084   .     S
C1183  C559    1.387   1_556 S
C1184  C768    1.483   1_565 S
C1184  C709    1.361   1_565 S
C1185  C844    1.361   1_655 S
C1186  O1220   1.306   .     A
H1193  O1208   1.014   .     S
H1194  O1210   1.014   .     S
H1195  O1212   1.014   .     S
H1196  O1214   1.014   .     S
H1199  C1027   1.083   1_655 S
N1205  Zn1224  2.035   .     S
N1205  N1206   1.301   .     D
N1206  Zn1223  2.035   .     S
O1207  Zn1223  1.972   .     S
O1207  C1021   1.278   1_655 S
O1215  Zn1224  1.972   .     S
O1216  Zn1224  1.994   .     S
O1217  Zn1223  1.994   .     S
O1218  Zn1223  1.953   .     S
O1218  C1050   1.295   1_655 S
O1219  Zn1224  1.953   .     S
O1220  Zn1224  1.905   .     S
O1221  Zn1223  1.905   .     S
O1222  C768    1.222   1_565 S
