data_str_m3_o1_o5_pcu_sym.105
_audit_creation_date              2020-01-03
_audit_creation_method            'Materials Studio'
_symmetry_space_group_name_H-M    'P1'
_symmetry_Int_Tables_number       1
_symmetry_cell_setting            triclinic
loop_
_symmetry_equiv_pos_as_xyz
  x,y,z
_cell_length_a                    32.1843
_cell_length_b                    29.8560
_cell_length_c                    26.7514
_cell_angle_alpha                 90.1815
_cell_angle_beta                  92.9867
_cell_angle_gamma                 90.1794
loop_
_atom_site_label
_atom_site_type_symbol
_atom_site_fract_x
_atom_site_fract_y
_atom_site_fract_z
_atom_site_U_iso_or_equiv
_atom_site_adp_type
_atom_site_occupancy
C1     C     0.08678   0.16676   0.16808   0.00000  Uiso   1.00
C2     C     0.24657   0.16695   0.16616   0.00000  Uiso   1.00
C3     C     0.16665   0.16660   0.07299   0.00000  Uiso   1.00
C4     C     0.16691   0.16669   0.26036   0.00000  Uiso   1.00
C5     C     0.16692   0.16648   0.02183   0.00000  Uiso   1.00
C6     C     0.16697   0.16662   0.31154   0.00000  Uiso   1.00
C7     C     0.02051   0.12825   0.15808   0.00000  Uiso   1.00
C8     C     0.31251   0.20711   0.17982   0.00000  Uiso   1.00
C9     C     0.31153   0.12932   0.15270   0.00000  Uiso   1.00
C10    C     0.02199   0.20702   0.18083   0.00000  Uiso   1.00
C11    C     0.29074   0.16797   0.16581   0.00000  Uiso   1.00
C12    C     0.04257   0.16728   0.16974   0.00000  Uiso   1.00
C13    C     0.19146   0.02365   0.20064   0.00000  Uiso   1.00
C14    C     0.14361   0.30893   0.13077   0.00000  Uiso   1.00
C15    C     0.14269   0.02410   0.13152   0.00000  Uiso   1.00
C16    C     0.18927   0.30921   0.20261   0.00000  Uiso   1.00
N17    N     0.16667   0.28573   0.16667   0.00000  Uiso   1.00
N18    N     0.16667   0.04760   0.16667   0.00000  Uiso   1.00
O19    O     0.10559   0.20487   0.16666   0.00000  Uiso   1.00
O20    O     0.22774   0.12846   0.16667   0.00000  Uiso   1.00
O21    O     0.22774   0.20487   0.16667   0.00000  Uiso   1.00
O22    O     0.10559   0.12846   0.16666   0.00000  Uiso   1.00
O23    O     0.16667   0.20488   0.09511   0.00000  Uiso   1.00
O24    O     0.16666   0.12845   0.23822   0.00000  Uiso   1.00
O25    O     0.16666   0.20488   0.23822   0.00000  Uiso   1.00
O26    O     0.16667   0.12845   0.09511   0.00000  Uiso   1.00
Zn27   Zn    0.16667   0.21771   0.16667   0.00000  Uiso   1.00
Zn28   Zn    0.16667   0.11563   0.16667   0.00000  Uiso   1.00
H29    H     0.03578   0.09716   0.15206   0.00000  Uiso   1.00
H30    H     0.29661   0.23748   0.18990   0.00000  Uiso   1.00
H31    H     0.29529   0.09983   0.13876   0.00000  Uiso   1.00
H32    H     0.03880   0.23755   0.19075   0.00000  Uiso   1.00
O33    O     0.21947   0.04555   0.23333   0.00000  Uiso   1.00
C34    C     0.25854   0.04928   0.21131   0.00000  Uiso   1.00
H35    H     0.27155   0.08249   0.22218   0.00000  Uiso   1.00
H36    H     0.25629   0.04687   0.16962   0.00000  Uiso   1.00
C37    C     0.29067   0.01542   0.23120   0.00000  Uiso   1.00
H38    H     0.28108   0.31407   0.22163   0.00000  Uiso   1.00
H39    H     0.32053   0.02178   0.21338   0.00000  Uiso   1.00
H40    H     0.29661   0.01934   0.27213   0.00000  Uiso   1.00
O41    O     0.11775   0.28455   0.09786   0.00000  Uiso   1.00
C42    C     0.13184   0.28699   0.04880   0.00000  Uiso   1.00
H43    H     0.16278   0.27133   0.04712   0.00000  Uiso   1.00
H44    H     0.13446   0.32187   0.03513   0.00000  Uiso   1.00
C45    C     0.10096   0.26222   0.01340   0.00000  Uiso   1.00
H46    H     0.07013   0.27882   0.01301   0.00000  Uiso   1.00
H47    H     0.11190   0.26228   0.30809   0.00000  Uiso   1.00
H48    H     0.09730   0.22706   0.02580   0.00000  Uiso   1.00
O49    O     0.12262   0.04831   0.09331   0.00000  Uiso   1.00
C50    C     0.07928   0.04038   0.09073   0.00000  Uiso   1.00
H51    H     0.06664   0.03918   0.12849   0.00000  Uiso   1.00
H52    H     0.07107   0.00840   0.07186   0.00000  Uiso   1.00
C53    C     0.05826   0.07670   0.05861   0.00000  Uiso   1.00
H54    H     0.06754   0.07341   0.01935   0.00000  Uiso   1.00
H55    H     0.02392   0.07327   0.05918   0.00000  Uiso   1.00
H56    H     0.06775   0.11044   0.07257   0.00000  Uiso   1.00
O57    O     0.21277   0.28582   0.23855   0.00000  Uiso   1.00
C58    C     0.19825   0.29364   0.28698   0.00000  Uiso   1.00
H59    H     0.18597   0.26166   0.30075   0.00000  Uiso   1.00
H60    H     0.17278   0.31884   0.28864   0.00000  Uiso   1.00
C61    C     0.23405   0.30750   0.32339   0.00000  Uiso   1.00
H62    H     0.24070   0.01037   0.31959   0.00000  Uiso   1.00
H63    H     0.22567   0.30190   0.02923   0.00000  Uiso   1.00
H64    H     0.26229   0.28755   0.31662   0.00000  Uiso   1.00
C65    C     0.42011   0.16676   0.16808   0.00000  Uiso   1.00
C66    C     0.57990   0.16695   0.16616   0.00000  Uiso   1.00
C67    C     0.49998   0.16660   0.07299   0.00000  Uiso   1.00
C68    C     0.50024   0.16669   0.26036   0.00000  Uiso   1.00
C69    C     0.50025   0.16648   0.02183   0.00000  Uiso   1.00
C70    C     0.50031   0.16662   0.31154   0.00000  Uiso   1.00
C71    C     0.35384   0.12825   0.15808   0.00000  Uiso   1.00
C72    C     0.64584   0.20711   0.17982   0.00000  Uiso   1.00
C73    C     0.64486   0.12932   0.15270   0.00000  Uiso   1.00
C74    C     0.35532   0.20702   0.18083   0.00000  Uiso   1.00
C75    C     0.62408   0.16797   0.16581   0.00000  Uiso   1.00
C76    C     0.37591   0.16728   0.16974   0.00000  Uiso   1.00
C77    C     0.52480   0.02365   0.20064   0.00000  Uiso   1.00
C78    C     0.47694   0.30893   0.13077   0.00000  Uiso   1.00
C79    C     0.47602   0.02410   0.13152   0.00000  Uiso   1.00
C80    C     0.52260   0.30921   0.20261   0.00000  Uiso   1.00
N81    N     0.50000   0.28573   0.16667   0.00000  Uiso   1.00
N82    N     0.50000   0.04760   0.16667   0.00000  Uiso   1.00
O83    O     0.43892   0.20487   0.16666   0.00000  Uiso   1.00
O84    O     0.56108   0.12846   0.16667   0.00000  Uiso   1.00
O85    O     0.56108   0.20487   0.16667   0.00000  Uiso   1.00
O86    O     0.43892   0.12846   0.16666   0.00000  Uiso   1.00
O87    O     0.50000   0.20488   0.09511   0.00000  Uiso   1.00
O88    O     0.50000   0.12845   0.23822   0.00000  Uiso   1.00
O89    O     0.50000   0.20488   0.23822   0.00000  Uiso   1.00
O90    O     0.50000   0.12845   0.09511   0.00000  Uiso   1.00
Zn91   Zn    0.50000   0.21771   0.16667   0.00000  Uiso   1.00
Zn92   Zn    0.50000   0.11563   0.16667   0.00000  Uiso   1.00
H93    H     0.36911   0.09716   0.15206   0.00000  Uiso   1.00
H94    H     0.62994   0.23748   0.18990   0.00000  Uiso   1.00
H95    H     0.62862   0.09983   0.13876   0.00000  Uiso   1.00
H96    H     0.37213   0.23755   0.19075   0.00000  Uiso   1.00
O97    O     0.55281   0.04555   0.23333   0.00000  Uiso   1.00
C98    C     0.59187   0.04928   0.21131   0.00000  Uiso   1.00
H99    H     0.60488   0.08249   0.22218   0.00000  Uiso   1.00
H100   H     0.58962   0.04687   0.16962   0.00000  Uiso   1.00
C101   C     0.62400   0.01542   0.23120   0.00000  Uiso   1.00
H102   H     0.61441   0.31407   0.22163   0.00000  Uiso   1.00
H103   H     0.65386   0.02178   0.21338   0.00000  Uiso   1.00
H104   H     0.62994   0.01934   0.27213   0.00000  Uiso   1.00
O105   O     0.45108   0.28455   0.09786   0.00000  Uiso   1.00
C106   C     0.46517   0.28699   0.04880   0.00000  Uiso   1.00
H107   H     0.49611   0.27133   0.04712   0.00000  Uiso   1.00
H108   H     0.46779   0.32187   0.03513   0.00000  Uiso   1.00
C109   C     0.43429   0.26222   0.01340   0.00000  Uiso   1.00
H110   H     0.40346   0.27882   0.01301   0.00000  Uiso   1.00
H111   H     0.44523   0.26228   0.30809   0.00000  Uiso   1.00
H112   H     0.43063   0.22706   0.02580   0.00000  Uiso   1.00
O113   O     0.45595   0.04831   0.09331   0.00000  Uiso   1.00
C114   C     0.41261   0.04038   0.09073   0.00000  Uiso   1.00
H115   H     0.39997   0.03918   0.12849   0.00000  Uiso   1.00
H116   H     0.40440   0.00840   0.07186   0.00000  Uiso   1.00
C117   C     0.39159   0.07670   0.05861   0.00000  Uiso   1.00
H118   H     0.40087   0.07341   0.01935   0.00000  Uiso   1.00
H119   H     0.35725   0.07327   0.05918   0.00000  Uiso   1.00
H120   H     0.40108   0.11044   0.07257   0.00000  Uiso   1.00
O121   O     0.54611   0.28582   0.23855   0.00000  Uiso   1.00
C122   C     0.53158   0.29364   0.28698   0.00000  Uiso   1.00
H123   H     0.51930   0.26166   0.30075   0.00000  Uiso   1.00
H124   H     0.50612   0.31884   0.28864   0.00000  Uiso   1.00
C125   C     0.56739   0.30750   0.32339   0.00000  Uiso   1.00
H126   H     0.57403   0.01037   0.31959   0.00000  Uiso   1.00
H127   H     0.55900   0.30190   0.02923   0.00000  Uiso   1.00
H128   H     0.59563   0.28755   0.31662   0.00000  Uiso   1.00
C129   C     0.75344   0.16676   0.16808   0.00000  Uiso   1.00
C130   C     0.91323   0.16695   0.16616   0.00000  Uiso   1.00
C131   C     0.83331   0.16660   0.07299   0.00000  Uiso   1.00
C132   C     0.83357   0.16669   0.26036   0.00000  Uiso   1.00
C133   C     0.83358   0.16648   0.02183   0.00000  Uiso   1.00
C134   C     0.83364   0.16662   0.31154   0.00000  Uiso   1.00
C135   C     0.68718   0.12825   0.15808   0.00000  Uiso   1.00
C136   C     0.97917   0.20711   0.17982   0.00000  Uiso   1.00
C137   C     0.97819   0.12932   0.15270   0.00000  Uiso   1.00
C138   C     0.68866   0.20702   0.18083   0.00000  Uiso   1.00
C139   C     0.95741   0.16797   0.16581   0.00000  Uiso   1.00
C140   C     0.70924   0.16728   0.16974   0.00000  Uiso   1.00
C141   C     0.85813   0.02365   0.20064   0.00000  Uiso   1.00
C142   C     0.81027   0.30893   0.13077   0.00000  Uiso   1.00
C143   C     0.80936   0.02410   0.13152   0.00000  Uiso   1.00
C144   C     0.85593   0.30921   0.20261   0.00000  Uiso   1.00
N145   N     0.83333   0.28573   0.16667   0.00000  Uiso   1.00
N146   N     0.83333   0.04760   0.16667   0.00000  Uiso   1.00
O147   O     0.77226   0.20487   0.16666   0.00000  Uiso   1.00
O148   O     0.89441   0.12846   0.16667   0.00000  Uiso   1.00
O149   O     0.89441   0.20487   0.16667   0.00000  Uiso   1.00
O150   O     0.77226   0.12846   0.16666   0.00000  Uiso   1.00
O151   O     0.83334   0.20488   0.09511   0.00000  Uiso   1.00
O152   O     0.83333   0.12845   0.23822   0.00000  Uiso   1.00
O153   O     0.83333   0.20488   0.23822   0.00000  Uiso   1.00
O154   O     0.83334   0.12845   0.09511   0.00000  Uiso   1.00
Zn155  Zn    0.83333   0.21771   0.16667   0.00000  Uiso   1.00
Zn156  Zn    0.83333   0.11563   0.16667   0.00000  Uiso   1.00
H157   H     0.70244   0.09716   0.15206   0.00000  Uiso   1.00
H158   H     0.96327   0.23748   0.18990   0.00000  Uiso   1.00
H159   H     0.96195   0.09983   0.13876   0.00000  Uiso   1.00
H160   H     0.70546   0.23755   0.19075   0.00000  Uiso   1.00
O161   O     0.88614   0.04555   0.23333   0.00000  Uiso   1.00
C162   C     0.92520   0.04928   0.21131   0.00000  Uiso   1.00
H163   H     0.93822   0.08249   0.22218   0.00000  Uiso   1.00
H164   H     0.92296   0.04687   0.16962   0.00000  Uiso   1.00
C165   C     0.95733   0.01542   0.23120   0.00000  Uiso   1.00
H166   H     0.94775   0.31407   0.22163   0.00000  Uiso   1.00
H167   H     0.98720   0.02178   0.21338   0.00000  Uiso   1.00
H168   H     0.96328   0.01934   0.27213   0.00000  Uiso   1.00
O169   O     0.78441   0.28455   0.09786   0.00000  Uiso   1.00
C170   C     0.79850   0.28699   0.04880   0.00000  Uiso   1.00
H171   H     0.82945   0.27133   0.04712   0.00000  Uiso   1.00
H172   H     0.80112   0.32187   0.03513   0.00000  Uiso   1.00
C173   C     0.76763   0.26222   0.01340   0.00000  Uiso   1.00
H174   H     0.73680   0.27882   0.01301   0.00000  Uiso   1.00
H175   H     0.77856   0.26228   0.30809   0.00000  Uiso   1.00
H176   H     0.76397   0.22706   0.02580   0.00000  Uiso   1.00
O177   O     0.78928   0.04831   0.09331   0.00000  Uiso   1.00
C178   C     0.74594   0.04038   0.09073   0.00000  Uiso   1.00
H179   H     0.73330   0.03918   0.12849   0.00000  Uiso   1.00
H180   H     0.73774   0.00840   0.07186   0.00000  Uiso   1.00
C181   C     0.72493   0.07670   0.05861   0.00000  Uiso   1.00
H182   H     0.73420   0.07341   0.01935   0.00000  Uiso   1.00
H183   H     0.69058   0.07327   0.05918   0.00000  Uiso   1.00
H184   H     0.73442   0.11044   0.07257   0.00000  Uiso   1.00
O185   O     0.87944   0.28582   0.23855   0.00000  Uiso   1.00
C186   C     0.86491   0.29364   0.28698   0.00000  Uiso   1.00
H187   H     0.85263   0.26166   0.30075   0.00000  Uiso   1.00
H188   H     0.83945   0.31884   0.28864   0.00000  Uiso   1.00
C189   C     0.90072   0.30750   0.32339   0.00000  Uiso   1.00
H190   H     0.90737   0.01037   0.31959   0.00000  Uiso   1.00
H191   H     0.89234   0.30190   0.02923   0.00000  Uiso   1.00
H192   H     0.92896   0.28755   0.31662   0.00000  Uiso   1.00
C193   C     0.08678   0.50010   0.16808   0.00000  Uiso   1.00
C194   C     0.24657   0.50028   0.16616   0.00000  Uiso   1.00
C195   C     0.16665   0.49993   0.07299   0.00000  Uiso   1.00
C196   C     0.16691   0.50003   0.26036   0.00000  Uiso   1.00
C197   C     0.16692   0.49982   0.02183   0.00000  Uiso   1.00
C198   C     0.16697   0.49995   0.31154   0.00000  Uiso   1.00
C199   C     0.02051   0.46158   0.15808   0.00000  Uiso   1.00
C200   C     0.31251   0.54045   0.17982   0.00000  Uiso   1.00
C201   C     0.31153   0.46265   0.15270   0.00000  Uiso   1.00
C202   C     0.02199   0.54035   0.18083   0.00000  Uiso   1.00
C203   C     0.29074   0.50130   0.16581   0.00000  Uiso   1.00
C204   C     0.04257   0.50062   0.16974   0.00000  Uiso   1.00
C205   C     0.19146   0.35698   0.20064   0.00000  Uiso   1.00
C206   C     0.14361   0.64226   0.13077   0.00000  Uiso   1.00
C207   C     0.14269   0.35743   0.13152   0.00000  Uiso   1.00
C208   C     0.18927   0.64255   0.20261   0.00000  Uiso   1.00
N209   N     0.16667   0.61907   0.16667   0.00000  Uiso   1.00
N210   N     0.16667   0.38093   0.16667   0.00000  Uiso   1.00
O211   O     0.10559   0.53821   0.16666   0.00000  Uiso   1.00
O212   O     0.22774   0.46179   0.16667   0.00000  Uiso   1.00
O213   O     0.22774   0.53821   0.16667   0.00000  Uiso   1.00
O214   O     0.10559   0.46179   0.16666   0.00000  Uiso   1.00
O215   O     0.16667   0.53821   0.09511   0.00000  Uiso   1.00
O216   O     0.16666   0.46179   0.23822   0.00000  Uiso   1.00
O217   O     0.16666   0.53821   0.23822   0.00000  Uiso   1.00
O218   O     0.16667   0.46179   0.09511   0.00000  Uiso   1.00
Zn219  Zn    0.16667   0.55104   0.16667   0.00000  Uiso   1.00
Zn220  Zn    0.16667   0.44896   0.16667   0.00000  Uiso   1.00
H221   H     0.03578   0.43050   0.15206   0.00000  Uiso   1.00
H222   H     0.29661   0.57082   0.18990   0.00000  Uiso   1.00
H223   H     0.29529   0.43316   0.13876   0.00000  Uiso   1.00
H224   H     0.03880   0.57089   0.19075   0.00000  Uiso   1.00
O225   O     0.21947   0.37888   0.23333   0.00000  Uiso   1.00
C226   C     0.25854   0.38261   0.21131   0.00000  Uiso   1.00
H227   H     0.27155   0.41582   0.22218   0.00000  Uiso   1.00
H228   H     0.25629   0.38020   0.16962   0.00000  Uiso   1.00
C229   C     0.29067   0.34875   0.23120   0.00000  Uiso   1.00
H230   H     0.28108   0.64741   0.22163   0.00000  Uiso   1.00
H231   H     0.32053   0.35511   0.21338   0.00000  Uiso   1.00
H232   H     0.29661   0.35267   0.27213   0.00000  Uiso   1.00
O233   O     0.11775   0.61789   0.09786   0.00000  Uiso   1.00
C234   C     0.13184   0.62033   0.04880   0.00000  Uiso   1.00
H235   H     0.16278   0.60467   0.04712   0.00000  Uiso   1.00
H236   H     0.13446   0.65520   0.03513   0.00000  Uiso   1.00
C237   C     0.10096   0.59556   0.01340   0.00000  Uiso   1.00
H238   H     0.07013   0.61215   0.01301   0.00000  Uiso   1.00
H239   H     0.11190   0.59562   0.30809   0.00000  Uiso   1.00
H240   H     0.09730   0.56039   0.02580   0.00000  Uiso   1.00
O241   O     0.12262   0.38165   0.09331   0.00000  Uiso   1.00
C242   C     0.07928   0.37371   0.09073   0.00000  Uiso   1.00
H243   H     0.06664   0.37251   0.12849   0.00000  Uiso   1.00
H244   H     0.07107   0.34174   0.07186   0.00000  Uiso   1.00
C245   C     0.05826   0.41003   0.05861   0.00000  Uiso   1.00
H246   H     0.06754   0.40674   0.01935   0.00000  Uiso   1.00
H247   H     0.02392   0.40660   0.05918   0.00000  Uiso   1.00
H248   H     0.06775   0.44377   0.07257   0.00000  Uiso   1.00
O249   O     0.21277   0.61915   0.23855   0.00000  Uiso   1.00
C250   C     0.19825   0.62697   0.28698   0.00000  Uiso   1.00
H251   H     0.18597   0.59499   0.30075   0.00000  Uiso   1.00
H252   H     0.17278   0.65217   0.28864   0.00000  Uiso   1.00
C253   C     0.23405   0.64083   0.32339   0.00000  Uiso   1.00
H254   H     0.24070   0.34371   0.31959   0.00000  Uiso   1.00
H255   H     0.22567   0.63523   0.02923   0.00000  Uiso   1.00
H256   H     0.26229   0.62089   0.31662   0.00000  Uiso   1.00
C257   C     0.42011   0.50010   0.16808   0.00000  Uiso   1.00
C258   C     0.57990   0.50028   0.16616   0.00000  Uiso   1.00
C259   C     0.49998   0.49993   0.07299   0.00000  Uiso   1.00
C260   C     0.50024   0.50003   0.26036   0.00000  Uiso   1.00
C261   C     0.50025   0.49982   0.02183   0.00000  Uiso   1.00
C262   C     0.50031   0.49995   0.31154   0.00000  Uiso   1.00
C263   C     0.35384   0.46158   0.15808   0.00000  Uiso   1.00
C264   C     0.64584   0.54045   0.17982   0.00000  Uiso   1.00
C265   C     0.64486   0.46265   0.15270   0.00000  Uiso   1.00
C266   C     0.35532   0.54035   0.18083   0.00000  Uiso   1.00
C267   C     0.62408   0.50130   0.16581   0.00000  Uiso   1.00
C268   C     0.37591   0.50062   0.16974   0.00000  Uiso   1.00
C269   C     0.52480   0.35698   0.20064   0.00000  Uiso   1.00
C270   C     0.47694   0.64226   0.13077   0.00000  Uiso   1.00
C271   C     0.47602   0.35743   0.13152   0.00000  Uiso   1.00
C272   C     0.52260   0.64255   0.20261   0.00000  Uiso   1.00
N273   N     0.50000   0.61907   0.16667   0.00000  Uiso   1.00
N274   N     0.50000   0.38093   0.16667   0.00000  Uiso   1.00
O275   O     0.43892   0.53821   0.16666   0.00000  Uiso   1.00
O276   O     0.56108   0.46179   0.16667   0.00000  Uiso   1.00
O277   O     0.56108   0.53821   0.16667   0.00000  Uiso   1.00
O278   O     0.43892   0.46179   0.16666   0.00000  Uiso   1.00
O279   O     0.50000   0.53821   0.09511   0.00000  Uiso   1.00
O280   O     0.50000   0.46179   0.23822   0.00000  Uiso   1.00
O281   O     0.50000   0.53821   0.23822   0.00000  Uiso   1.00
O282   O     0.50000   0.46179   0.09511   0.00000  Uiso   1.00
Zn283  Zn    0.50000   0.55104   0.16667   0.00000  Uiso   1.00
Zn284  Zn    0.50000   0.44896   0.16667   0.00000  Uiso   1.00
H285   H     0.36911   0.43050   0.15206   0.00000  Uiso   1.00
H286   H     0.62994   0.57082   0.18990   0.00000  Uiso   1.00
H287   H     0.62862   0.43316   0.13876   0.00000  Uiso   1.00
H288   H     0.37213   0.57089   0.19075   0.00000  Uiso   1.00
O289   O     0.55281   0.37888   0.23333   0.00000  Uiso   1.00
C290   C     0.59187   0.38261   0.21131   0.00000  Uiso   1.00
H291   H     0.60488   0.41582   0.22218   0.00000  Uiso   1.00
H292   H     0.58962   0.38020   0.16962   0.00000  Uiso   1.00
C293   C     0.62400   0.34875   0.23120   0.00000  Uiso   1.00
H294   H     0.61441   0.64741   0.22163   0.00000  Uiso   1.00
H295   H     0.65386   0.35511   0.21338   0.00000  Uiso   1.00
H296   H     0.62994   0.35267   0.27213   0.00000  Uiso   1.00
O297   O     0.45108   0.61789   0.09786   0.00000  Uiso   1.00
C298   C     0.46517   0.62033   0.04880   0.00000  Uiso   1.00
H299   H     0.49611   0.60467   0.04712   0.00000  Uiso   1.00
H300   H     0.46779   0.65520   0.03513   0.00000  Uiso   1.00
C301   C     0.43429   0.59556   0.01340   0.00000  Uiso   1.00
H302   H     0.40346   0.61215   0.01301   0.00000  Uiso   1.00
H303   H     0.44523   0.59562   0.30809   0.00000  Uiso   1.00
H304   H     0.43063   0.56039   0.02580   0.00000  Uiso   1.00
O305   O     0.45595   0.38165   0.09331   0.00000  Uiso   1.00
C306   C     0.41261   0.37371   0.09073   0.00000  Uiso   1.00
H307   H     0.39997   0.37251   0.12849   0.00000  Uiso   1.00
H308   H     0.40440   0.34174   0.07186   0.00000  Uiso   1.00
C309   C     0.39159   0.41003   0.05861   0.00000  Uiso   1.00
H310   H     0.40087   0.40674   0.01935   0.00000  Uiso   1.00
H311   H     0.35725   0.40660   0.05918   0.00000  Uiso   1.00
H312   H     0.40108   0.44377   0.07257   0.00000  Uiso   1.00
O313   O     0.54611   0.61915   0.23855   0.00000  Uiso   1.00
C314   C     0.53158   0.62697   0.28698   0.00000  Uiso   1.00
H315   H     0.51930   0.59499   0.30075   0.00000  Uiso   1.00
H316   H     0.50612   0.65217   0.28864   0.00000  Uiso   1.00
C317   C     0.56739   0.64083   0.32339   0.00000  Uiso   1.00
H318   H     0.57403   0.34371   0.31959   0.00000  Uiso   1.00
H319   H     0.55900   0.63523   0.02923   0.00000  Uiso   1.00
H320   H     0.59563   0.62089   0.31662   0.00000  Uiso   1.00
C321   C     0.75344   0.50010   0.16808   0.00000  Uiso   1.00
C322   C     0.91323   0.50028   0.16616   0.00000  Uiso   1.00
C323   C     0.83331   0.49993   0.07299   0.00000  Uiso   1.00
C324   C     0.83357   0.50003   0.26036   0.00000  Uiso   1.00
C325   C     0.83358   0.49982   0.02183   0.00000  Uiso   1.00
C326   C     0.83364   0.49995   0.31154   0.00000  Uiso   1.00
C327   C     0.68718   0.46158   0.15808   0.00000  Uiso   1.00
C328   C     0.97917   0.54045   0.17982   0.00000  Uiso   1.00
C329   C     0.97819   0.46265   0.15270   0.00000  Uiso   1.00
C330   C     0.68866   0.54035   0.18083   0.00000  Uiso   1.00
C331   C     0.95741   0.50130   0.16581   0.00000  Uiso   1.00
C332   C     0.70924   0.50062   0.16974   0.00000  Uiso   1.00
C333   C     0.85813   0.35698   0.20064   0.00000  Uiso   1.00
C334   C     0.81027   0.64226   0.13077   0.00000  Uiso   1.00
C335   C     0.80936   0.35743   0.13152   0.00000  Uiso   1.00
C336   C     0.85593   0.64255   0.20261   0.00000  Uiso   1.00
N337   N     0.83333   0.61907   0.16667   0.00000  Uiso   1.00
N338   N     0.83333   0.38093   0.16667   0.00000  Uiso   1.00
O339   O     0.77226   0.53821   0.16666   0.00000  Uiso   1.00
O340   O     0.89441   0.46179   0.16667   0.00000  Uiso   1.00
O341   O     0.89441   0.53821   0.16667   0.00000  Uiso   1.00
O342   O     0.77226   0.46179   0.16666   0.00000  Uiso   1.00
O343   O     0.83334   0.53821   0.09511   0.00000  Uiso   1.00
O344   O     0.83333   0.46179   0.23822   0.00000  Uiso   1.00
O345   O     0.83333   0.53821   0.23822   0.00000  Uiso   1.00
O346   O     0.83334   0.46179   0.09511   0.00000  Uiso   1.00
Zn347  Zn    0.83333   0.55104   0.16667   0.00000  Uiso   1.00
Zn348  Zn    0.83333   0.44896   0.16667   0.00000  Uiso   1.00
H349   H     0.70244   0.43050   0.15206   0.00000  Uiso   1.00
H350   H     0.96327   0.57082   0.18990   0.00000  Uiso   1.00
H351   H     0.96195   0.43316   0.13876   0.00000  Uiso   1.00
H352   H     0.70546   0.57089   0.19075   0.00000  Uiso   1.00
O353   O     0.88614   0.37888   0.23333   0.00000  Uiso   1.00
C354   C     0.92520   0.38261   0.21131   0.00000  Uiso   1.00
H355   H     0.93822   0.41582   0.22218   0.00000  Uiso   1.00
H356   H     0.92296   0.38020   0.16962   0.00000  Uiso   1.00
C357   C     0.95733   0.34875   0.23120   0.00000  Uiso   1.00
H358   H     0.94775   0.64741   0.22163   0.00000  Uiso   1.00
H359   H     0.98720   0.35511   0.21338   0.00000  Uiso   1.00
H360   H     0.96328   0.35267   0.27213   0.00000  Uiso   1.00
O361   O     0.78441   0.61789   0.09786   0.00000  Uiso   1.00
C362   C     0.79850   0.62033   0.04880   0.00000  Uiso   1.00
H363   H     0.82945   0.60467   0.04712   0.00000  Uiso   1.00
H364   H     0.80112   0.65520   0.03513   0.00000  Uiso   1.00
C365   C     0.76763   0.59556   0.01340   0.00000  Uiso   1.00
H366   H     0.73680   0.61215   0.01301   0.00000  Uiso   1.00
H367   H     0.77856   0.59562   0.30809   0.00000  Uiso   1.00
H368   H     0.76397   0.56039   0.02580   0.00000  Uiso   1.00
O369   O     0.78928   0.38165   0.09331   0.00000  Uiso   1.00
C370   C     0.74594   0.37371   0.09073   0.00000  Uiso   1.00
H371   H     0.73330   0.37251   0.12849   0.00000  Uiso   1.00
H372   H     0.73774   0.34174   0.07186   0.00000  Uiso   1.00
C373   C     0.72493   0.41003   0.05861   0.00000  Uiso   1.00
H374   H     0.73420   0.40674   0.01935   0.00000  Uiso   1.00
H375   H     0.69058   0.40660   0.05918   0.00000  Uiso   1.00
H376   H     0.73442   0.44377   0.07257   0.00000  Uiso   1.00
O377   O     0.87944   0.61915   0.23855   0.00000  Uiso   1.00
C378   C     0.86491   0.62697   0.28698   0.00000  Uiso   1.00
H379   H     0.85263   0.59499   0.30075   0.00000  Uiso   1.00
H380   H     0.83945   0.65217   0.28864   0.00000  Uiso   1.00
C381   C     0.90072   0.64083   0.32339   0.00000  Uiso   1.00
H382   H     0.90737   0.34371   0.31959   0.00000  Uiso   1.00
H383   H     0.89234   0.63523   0.02923   0.00000  Uiso   1.00
H384   H     0.92896   0.62089   0.31662   0.00000  Uiso   1.00
C385   C     0.08678   0.83343   0.16808   0.00000  Uiso   1.00
C386   C     0.24657   0.83361   0.16616   0.00000  Uiso   1.00
C387   C     0.16665   0.83326   0.07299   0.00000  Uiso   1.00
C388   C     0.16691   0.83336   0.26036   0.00000  Uiso   1.00
C389   C     0.16692   0.83315   0.02183   0.00000  Uiso   1.00
C390   C     0.16697   0.83329   0.31154   0.00000  Uiso   1.00
C391   C     0.02051   0.79492   0.15808   0.00000  Uiso   1.00
C392   C     0.31251   0.87378   0.17982   0.00000  Uiso   1.00
C393   C     0.31153   0.79599   0.15270   0.00000  Uiso   1.00
C394   C     0.02199   0.87369   0.18083   0.00000  Uiso   1.00
C395   C     0.29074   0.83463   0.16581   0.00000  Uiso   1.00
C396   C     0.04257   0.83395   0.16974   0.00000  Uiso   1.00
C397   C     0.19146   0.69032   0.20064   0.00000  Uiso   1.00
C398   C     0.14361   0.97559   0.13077   0.00000  Uiso   1.00
C399   C     0.14269   0.69076   0.13152   0.00000  Uiso   1.00
C400   C     0.18927   0.97588   0.20261   0.00000  Uiso   1.00
N401   N     0.16667   0.95240   0.16667   0.00000  Uiso   1.00
N402   N     0.16667   0.71427   0.16667   0.00000  Uiso   1.00
O403   O     0.10559   0.87154   0.16666   0.00000  Uiso   1.00
O404   O     0.22774   0.79513   0.16667   0.00000  Uiso   1.00
O405   O     0.22774   0.87154   0.16667   0.00000  Uiso   1.00
O406   O     0.10559   0.79513   0.16666   0.00000  Uiso   1.00
O407   O     0.16667   0.87155   0.09511   0.00000  Uiso   1.00
O408   O     0.16666   0.79512   0.23822   0.00000  Uiso   1.00
O409   O     0.16666   0.87155   0.23822   0.00000  Uiso   1.00
O410   O     0.16667   0.79512   0.09511   0.00000  Uiso   1.00
Zn411  Zn    0.16667   0.88437   0.16667   0.00000  Uiso   1.00
Zn412  Zn    0.16667   0.78229   0.16667   0.00000  Uiso   1.00
H413   H     0.03578   0.76383   0.15206   0.00000  Uiso   1.00
H414   H     0.29661   0.90415   0.18990   0.00000  Uiso   1.00
H415   H     0.29529   0.76649   0.13876   0.00000  Uiso   1.00
H416   H     0.03880   0.90422   0.19075   0.00000  Uiso   1.00
O417   O     0.21947   0.71222   0.23333   0.00000  Uiso   1.00
C418   C     0.25854   0.71594   0.21131   0.00000  Uiso   1.00
H419   H     0.27155   0.74916   0.22218   0.00000  Uiso   1.00
H420   H     0.25629   0.71354   0.16962   0.00000  Uiso   1.00
C421   C     0.29067   0.68208   0.23120   0.00000  Uiso   1.00
H422   H     0.28108   0.98074   0.22163   0.00000  Uiso   1.00
H423   H     0.32053   0.68844   0.21338   0.00000  Uiso   1.00
H424   H     0.29661   0.68600   0.27213   0.00000  Uiso   1.00
O425   O     0.11775   0.95122   0.09786   0.00000  Uiso   1.00
C426   C     0.13184   0.95366   0.04880   0.00000  Uiso   1.00
H427   H     0.16278   0.93800   0.04712   0.00000  Uiso   1.00
H428   H     0.13446   0.98854   0.03513   0.00000  Uiso   1.00
C429   C     0.10096   0.92889   0.01340   0.00000  Uiso   1.00
H430   H     0.07013   0.94548   0.01301   0.00000  Uiso   1.00
H431   H     0.11190   0.92895   0.30809   0.00000  Uiso   1.00
H432   H     0.09730   0.89373   0.02580   0.00000  Uiso   1.00
O433   O     0.12262   0.71498   0.09331   0.00000  Uiso   1.00
C434   C     0.07928   0.70704   0.09073   0.00000  Uiso   1.00
H435   H     0.06664   0.70584   0.12849   0.00000  Uiso   1.00
H436   H     0.07107   0.67507   0.07186   0.00000  Uiso   1.00
C437   C     0.05826   0.74336   0.05861   0.00000  Uiso   1.00
H438   H     0.06754   0.74008   0.01935   0.00000  Uiso   1.00
H439   H     0.02392   0.73993   0.05918   0.00000  Uiso   1.00
H440   H     0.06775   0.77710   0.07257   0.00000  Uiso   1.00
O441   O     0.21277   0.95249   0.23855   0.00000  Uiso   1.00
C442   C     0.19825   0.96031   0.28698   0.00000  Uiso   1.00
H443   H     0.18597   0.92833   0.30075   0.00000  Uiso   1.00
H444   H     0.17278   0.98550   0.28864   0.00000  Uiso   1.00
C445   C     0.23405   0.97417   0.32339   0.00000  Uiso   1.00
H446   H     0.24070   0.67704   0.31959   0.00000  Uiso   1.00
H447   H     0.22567   0.96857   0.02923   0.00000  Uiso   1.00
H448   H     0.26229   0.95422   0.31662   0.00000  Uiso   1.00
C449   C     0.42011   0.83343   0.16808   0.00000  Uiso   1.00
C450   C     0.57990   0.83361   0.16616   0.00000  Uiso   1.00
C451   C     0.49998   0.83326   0.07299   0.00000  Uiso   1.00
C452   C     0.50024   0.83336   0.26036   0.00000  Uiso   1.00
C453   C     0.50025   0.83315   0.02183   0.00000  Uiso   1.00
C454   C     0.50031   0.83329   0.31154   0.00000  Uiso   1.00
C455   C     0.35384   0.79492   0.15808   0.00000  Uiso   1.00
C456   C     0.64584   0.87378   0.17982   0.00000  Uiso   1.00
C457   C     0.64486   0.79599   0.15270   0.00000  Uiso   1.00
C458   C     0.35532   0.87369   0.18083   0.00000  Uiso   1.00
C459   C     0.62408   0.83463   0.16581   0.00000  Uiso   1.00
C460   C     0.37591   0.83395   0.16974   0.00000  Uiso   1.00
C461   C     0.52480   0.69032   0.20064   0.00000  Uiso   1.00
C462   C     0.47694   0.97559   0.13077   0.00000  Uiso   1.00
C463   C     0.47602   0.69076   0.13152   0.00000  Uiso   1.00
C464   C     0.52260   0.97588   0.20261   0.00000  Uiso   1.00
N465   N     0.50000   0.95240   0.16667   0.00000  Uiso   1.00
N466   N     0.50000   0.71427   0.16667   0.00000  Uiso   1.00
O467   O     0.43892   0.87154   0.16666   0.00000  Uiso   1.00
O468   O     0.56108   0.79513   0.16667   0.00000  Uiso   1.00
O469   O     0.56108   0.87154   0.16667   0.00000  Uiso   1.00
O470   O     0.43892   0.79513   0.16666   0.00000  Uiso   1.00
O471   O     0.50000   0.87155   0.09511   0.00000  Uiso   1.00
O472   O     0.50000   0.79512   0.23822   0.00000  Uiso   1.00
O473   O     0.50000   0.87155   0.23822   0.00000  Uiso   1.00
O474   O     0.50000   0.79512   0.09511   0.00000  Uiso   1.00
Zn475  Zn    0.50000   0.88437   0.16667   0.00000  Uiso   1.00
Zn476  Zn    0.50000   0.78229   0.16667   0.00000  Uiso   1.00
H477   H     0.36911   0.76383   0.15206   0.00000  Uiso   1.00
H478   H     0.62994   0.90415   0.18990   0.00000  Uiso   1.00
H479   H     0.62862   0.76649   0.13876   0.00000  Uiso   1.00
H480   H     0.37213   0.90422   0.19075   0.00000  Uiso   1.00
O481   O     0.55281   0.71222   0.23333   0.00000  Uiso   1.00
C482   C     0.59187   0.71594   0.21131   0.00000  Uiso   1.00
H483   H     0.60488   0.74916   0.22218   0.00000  Uiso   1.00
H484   H     0.58962   0.71354   0.16962   0.00000  Uiso   1.00
C485   C     0.62400   0.68208   0.23120   0.00000  Uiso   1.00
H486   H     0.61441   0.98074   0.22163   0.00000  Uiso   1.00
H487   H     0.65386   0.68844   0.21338   0.00000  Uiso   1.00
H488   H     0.62994   0.68600   0.27213   0.00000  Uiso   1.00
O489   O     0.45108   0.95122   0.09786   0.00000  Uiso   1.00
C490   C     0.46517   0.95366   0.04880   0.00000  Uiso   1.00
H491   H     0.49611   0.93800   0.04712   0.00000  Uiso   1.00
H492   H     0.46779   0.98854   0.03513   0.00000  Uiso   1.00
C493   C     0.43429   0.92889   0.01340   0.00000  Uiso   1.00
H494   H     0.40346   0.94548   0.01301   0.00000  Uiso   1.00
H495   H     0.44523   0.92895   0.30809   0.00000  Uiso   1.00
H496   H     0.43063   0.89373   0.02580   0.00000  Uiso   1.00
O497   O     0.45595   0.71498   0.09331   0.00000  Uiso   1.00
C498   C     0.41261   0.70704   0.09073   0.00000  Uiso   1.00
H499   H     0.39997   0.70584   0.12849   0.00000  Uiso   1.00
H500   H     0.40440   0.67507   0.07186   0.00000  Uiso   1.00
C501   C     0.39159   0.74336   0.05861   0.00000  Uiso   1.00
H502   H     0.40087   0.74008   0.01935   0.00000  Uiso   1.00
H503   H     0.35725   0.73993   0.05918   0.00000  Uiso   1.00
H504   H     0.40108   0.77710   0.07257   0.00000  Uiso   1.00
O505   O     0.54611   0.95249   0.23855   0.00000  Uiso   1.00
C506   C     0.53158   0.96031   0.28698   0.00000  Uiso   1.00
H507   H     0.51930   0.92833   0.30075   0.00000  Uiso   1.00
H508   H     0.50612   0.98550   0.28864   0.00000  Uiso   1.00
C509   C     0.56739   0.97417   0.32339   0.00000  Uiso   1.00
H510   H     0.57403   0.67704   0.31959   0.00000  Uiso   1.00
H511   H     0.55900   0.96857   0.02923   0.00000  Uiso   1.00
H512   H     0.59563   0.95422   0.31662   0.00000  Uiso   1.00
C513   C     0.75344   0.83343   0.16808   0.00000  Uiso   1.00
C514   C     0.91323   0.83361   0.16616   0.00000  Uiso   1.00
C515   C     0.83331   0.83326   0.07299   0.00000  Uiso   1.00
C516   C     0.83357   0.83336   0.26036   0.00000  Uiso   1.00
C517   C     0.83358   0.83315   0.02183   0.00000  Uiso   1.00
C518   C     0.83364   0.83329   0.31154   0.00000  Uiso   1.00
C519   C     0.68718   0.79492   0.15808   0.00000  Uiso   1.00
C520   C     0.97917   0.87378   0.17982   0.00000  Uiso   1.00
C521   C     0.97819   0.79599   0.15270   0.00000  Uiso   1.00
C522   C     0.68866   0.87369   0.18083   0.00000  Uiso   1.00
C523   C     0.95741   0.83463   0.16581   0.00000  Uiso   1.00
C524   C     0.70924   0.83395   0.16974   0.00000  Uiso   1.00
C525   C     0.85813   0.69032   0.20064   0.00000  Uiso   1.00
C526   C     0.81027   0.97559   0.13077   0.00000  Uiso   1.00
C527   C     0.80936   0.69076   0.13152   0.00000  Uiso   1.00
C528   C     0.85593   0.97588   0.20261   0.00000  Uiso   1.00
N529   N     0.83333   0.95240   0.16667   0.00000  Uiso   1.00
N530   N     0.83333   0.71427   0.16667   0.00000  Uiso   1.00
O531   O     0.77226   0.87154   0.16666   0.00000  Uiso   1.00
O532   O     0.89441   0.79513   0.16667   0.00000  Uiso   1.00
O533   O     0.89441   0.87154   0.16667   0.00000  Uiso   1.00
O534   O     0.77226   0.79513   0.16666   0.00000  Uiso   1.00
O535   O     0.83334   0.87155   0.09511   0.00000  Uiso   1.00
O536   O     0.83333   0.79512   0.23822   0.00000  Uiso   1.00
O537   O     0.83333   0.87155   0.23822   0.00000  Uiso   1.00
O538   O     0.83334   0.79512   0.09511   0.00000  Uiso   1.00
Zn539  Zn    0.83333   0.88437   0.16667   0.00000  Uiso   1.00
Zn540  Zn    0.83333   0.78229   0.16667   0.00000  Uiso   1.00
H541   H     0.70244   0.76383   0.15206   0.00000  Uiso   1.00
H542   H     0.96327   0.90415   0.18990   0.00000  Uiso   1.00
H543   H     0.96195   0.76649   0.13876   0.00000  Uiso   1.00
H544   H     0.70546   0.90422   0.19075   0.00000  Uiso   1.00
O545   O     0.88614   0.71222   0.23333   0.00000  Uiso   1.00
C546   C     0.92520   0.71594   0.21131   0.00000  Uiso   1.00
H547   H     0.93822   0.74916   0.22218   0.00000  Uiso   1.00
H548   H     0.92296   0.71354   0.16962   0.00000  Uiso   1.00
C549   C     0.95733   0.68208   0.23120   0.00000  Uiso   1.00
H550   H     0.94775   0.98074   0.22163   0.00000  Uiso   1.00
H551   H     0.98720   0.68844   0.21338   0.00000  Uiso   1.00
H552   H     0.96328   0.68600   0.27213   0.00000  Uiso   1.00
O553   O     0.78441   0.95122   0.09786   0.00000  Uiso   1.00
C554   C     0.79850   0.95366   0.04880   0.00000  Uiso   1.00
H555   H     0.82945   0.93800   0.04712   0.00000  Uiso   1.00
H556   H     0.80112   0.98854   0.03513   0.00000  Uiso   1.00
C557   C     0.76763   0.92889   0.01340   0.00000  Uiso   1.00
H558   H     0.73680   0.94548   0.01301   0.00000  Uiso   1.00
H559   H     0.77856   0.92895   0.30809   0.00000  Uiso   1.00
H560   H     0.76397   0.89373   0.02580   0.00000  Uiso   1.00
O561   O     0.78928   0.71498   0.09331   0.00000  Uiso   1.00
C562   C     0.74594   0.70704   0.09073   0.00000  Uiso   1.00
H563   H     0.73330   0.70584   0.12849   0.00000  Uiso   1.00
H564   H     0.73774   0.67507   0.07186   0.00000  Uiso   1.00
C565   C     0.72493   0.74336   0.05861   0.00000  Uiso   1.00
H566   H     0.73420   0.74008   0.01935   0.00000  Uiso   1.00
H567   H     0.69058   0.73993   0.05918   0.00000  Uiso   1.00
H568   H     0.73442   0.77710   0.07257   0.00000  Uiso   1.00
O569   O     0.87944   0.95249   0.23855   0.00000  Uiso   1.00
C570   C     0.86491   0.96031   0.28698   0.00000  Uiso   1.00
H571   H     0.85263   0.92833   0.30075   0.00000  Uiso   1.00
H572   H     0.83945   0.98550   0.28864   0.00000  Uiso   1.00
C573   C     0.90072   0.97417   0.32339   0.00000  Uiso   1.00
H574   H     0.90737   0.67704   0.31959   0.00000  Uiso   1.00
H575   H     0.89234   0.96857   0.02923   0.00000  Uiso   1.00
H576   H     0.92896   0.95422   0.31662   0.00000  Uiso   1.00
C577   C     0.08678   0.16676   0.50142   0.00000  Uiso   1.00
C578   C     0.24657   0.16695   0.49949   0.00000  Uiso   1.00
C579   C     0.16665   0.16660   0.40632   0.00000  Uiso   1.00
C580   C     0.16691   0.16669   0.59370   0.00000  Uiso   1.00
C581   C     0.16692   0.16648   0.35516   0.00000  Uiso   1.00
C582   C     0.16697   0.16662   0.64488   0.00000  Uiso   1.00
C583   C     0.02051   0.12825   0.49142   0.00000  Uiso   1.00
C584   C     0.31251   0.20711   0.51315   0.00000  Uiso   1.00
C585   C     0.31153   0.12932   0.48604   0.00000  Uiso   1.00
C586   C     0.02199   0.20702   0.51416   0.00000  Uiso   1.00
C587   C     0.29074   0.16797   0.49915   0.00000  Uiso   1.00
C588   C     0.04257   0.16728   0.50307   0.00000  Uiso   1.00
C589   C     0.19146   0.02365   0.53398   0.00000  Uiso   1.00
C590   C     0.14361   0.30893   0.46410   0.00000  Uiso   1.00
C591   C     0.14269   0.02410   0.46486   0.00000  Uiso   1.00
C592   C     0.18927   0.30921   0.53594   0.00000  Uiso   1.00
N593   N     0.16667   0.28573   0.50000   0.00000  Uiso   1.00
N594   N     0.16667   0.04760   0.50000   0.00000  Uiso   1.00
O595   O     0.10559   0.20487   0.50000   0.00000  Uiso   1.00
O596   O     0.22774   0.12846   0.50000   0.00000  Uiso   1.00
O597   O     0.22774   0.20487   0.50000   0.00000  Uiso   1.00
O598   O     0.10559   0.12846   0.50000   0.00000  Uiso   1.00
O599   O     0.16667   0.20488   0.42845   0.00000  Uiso   1.00
O600   O     0.16666   0.12845   0.57155   0.00000  Uiso   1.00
O601   O     0.16666   0.20488   0.57155   0.00000  Uiso   1.00
O602   O     0.16667   0.12845   0.42845   0.00000  Uiso   1.00
Zn603  Zn    0.16667   0.21771   0.50000   0.00000  Uiso   1.00
Zn604  Zn    0.16667   0.11563   0.50000   0.00000  Uiso   1.00
H605   H     0.03578   0.09716   0.48539   0.00000  Uiso   1.00
H606   H     0.29661   0.23748   0.52324   0.00000  Uiso   1.00
H607   H     0.29529   0.09983   0.47209   0.00000  Uiso   1.00
H608   H     0.03880   0.23755   0.52408   0.00000  Uiso   1.00
O609   O     0.21947   0.04555   0.56666   0.00000  Uiso   1.00
C610   C     0.25854   0.04928   0.54465   0.00000  Uiso   1.00
H611   H     0.27155   0.08249   0.55551   0.00000  Uiso   1.00
H612   H     0.25629   0.04687   0.50295   0.00000  Uiso   1.00
C613   C     0.29067   0.01542   0.56453   0.00000  Uiso   1.00
H614   H     0.28108   0.31407   0.55496   0.00000  Uiso   1.00
H615   H     0.32053   0.02178   0.54671   0.00000  Uiso   1.00
H616   H     0.29661   0.01934   0.60547   0.00000  Uiso   1.00
O617   O     0.11775   0.28455   0.43119   0.00000  Uiso   1.00
C618   C     0.13184   0.28699   0.38213   0.00000  Uiso   1.00
H619   H     0.16278   0.27133   0.38045   0.00000  Uiso   1.00
H620   H     0.13446   0.32187   0.36847   0.00000  Uiso   1.00
C621   C     0.10096   0.26222   0.34673   0.00000  Uiso   1.00
H622   H     0.07013   0.27882   0.34634   0.00000  Uiso   1.00
H623   H     0.11190   0.26228   0.64142   0.00000  Uiso   1.00
H624   H     0.09730   0.22706   0.35913   0.00000  Uiso   1.00
O625   O     0.12262   0.04831   0.42665   0.00000  Uiso   1.00
C626   C     0.07928   0.04038   0.42406   0.00000  Uiso   1.00
H627   H     0.06664   0.03918   0.46182   0.00000  Uiso   1.00
H628   H     0.07107   0.00840   0.40520   0.00000  Uiso   1.00
C629   C     0.05826   0.07670   0.39195   0.00000  Uiso   1.00
H630   H     0.06754   0.07341   0.35268   0.00000  Uiso   1.00
H631   H     0.02392   0.07327   0.39251   0.00000  Uiso   1.00
H632   H     0.06775   0.11044   0.40590   0.00000  Uiso   1.00
O633   O     0.21277   0.28582   0.57188   0.00000  Uiso   1.00
C634   C     0.19825   0.29364   0.62031   0.00000  Uiso   1.00
H635   H     0.18597   0.26166   0.63408   0.00000  Uiso   1.00
H636   H     0.17278   0.31884   0.62197   0.00000  Uiso   1.00
C637   C     0.23405   0.30750   0.65672   0.00000  Uiso   1.00
H638   H     0.24070   0.01037   0.65292   0.00000  Uiso   1.00
H639   H     0.22567   0.30190   0.36256   0.00000  Uiso   1.00
H640   H     0.26229   0.28755   0.64995   0.00000  Uiso   1.00
C641   C     0.42011   0.16676   0.50142   0.00000  Uiso   1.00
C642   C     0.57990   0.16695   0.49949   0.00000  Uiso   1.00
C643   C     0.49998   0.16660   0.40632   0.00000  Uiso   1.00
C644   C     0.50024   0.16669   0.59370   0.00000  Uiso   1.00
C645   C     0.50025   0.16648   0.35516   0.00000  Uiso   1.00
C646   C     0.50031   0.16662   0.64488   0.00000  Uiso   1.00
C647   C     0.35384   0.12825   0.49142   0.00000  Uiso   1.00
C648   C     0.64584   0.20711   0.51315   0.00000  Uiso   1.00
C649   C     0.64486   0.12932   0.48604   0.00000  Uiso   1.00
C650   C     0.35532   0.20702   0.51416   0.00000  Uiso   1.00
C651   C     0.62408   0.16797   0.49915   0.00000  Uiso   1.00
C652   C     0.37591   0.16728   0.50307   0.00000  Uiso   1.00
C653   C     0.52480   0.02365   0.53398   0.00000  Uiso   1.00
C654   C     0.47694   0.30893   0.46410   0.00000  Uiso   1.00
C655   C     0.47602   0.02410   0.46486   0.00000  Uiso   1.00
C656   C     0.52260   0.30921   0.53594   0.00000  Uiso   1.00
N657   N     0.50000   0.28573   0.50000   0.00000  Uiso   1.00
N658   N     0.50000   0.04760   0.50000   0.00000  Uiso   1.00
O659   O     0.43892   0.20487   0.50000   0.00000  Uiso   1.00
O660   O     0.56108   0.12846   0.50000   0.00000  Uiso   1.00
O661   O     0.56108   0.20487   0.50000   0.00000  Uiso   1.00
O662   O     0.43892   0.12846   0.50000   0.00000  Uiso   1.00
O663   O     0.50000   0.20488   0.42845   0.00000  Uiso   1.00
O664   O     0.50000   0.12845   0.57155   0.00000  Uiso   1.00
O665   O     0.50000   0.20488   0.57155   0.00000  Uiso   1.00
O666   O     0.50000   0.12845   0.42845   0.00000  Uiso   1.00
Zn667  Zn    0.50000   0.21771   0.50000   0.00000  Uiso   1.00
Zn668  Zn    0.50000   0.11563   0.50000   0.00000  Uiso   1.00
H669   H     0.36911   0.09716   0.48539   0.00000  Uiso   1.00
H670   H     0.62994   0.23748   0.52324   0.00000  Uiso   1.00
H671   H     0.62862   0.09983   0.47209   0.00000  Uiso   1.00
H672   H     0.37213   0.23755   0.52408   0.00000  Uiso   1.00
O673   O     0.55281   0.04555   0.56666   0.00000  Uiso   1.00
C674   C     0.59187   0.04928   0.54465   0.00000  Uiso   1.00
H675   H     0.60488   0.08249   0.55551   0.00000  Uiso   1.00
H676   H     0.58962   0.04687   0.50295   0.00000  Uiso   1.00
C677   C     0.62400   0.01542   0.56453   0.00000  Uiso   1.00
H678   H     0.61441   0.31407   0.55496   0.00000  Uiso   1.00
H679   H     0.65386   0.02178   0.54671   0.00000  Uiso   1.00
H680   H     0.62994   0.01934   0.60547   0.00000  Uiso   1.00
O681   O     0.45108   0.28455   0.43119   0.00000  Uiso   1.00
C682   C     0.46517   0.28699   0.38213   0.00000  Uiso   1.00
H683   H     0.49611   0.27133   0.38045   0.00000  Uiso   1.00
H684   H     0.46779   0.32187   0.36847   0.00000  Uiso   1.00
C685   C     0.43429   0.26222   0.34673   0.00000  Uiso   1.00
H686   H     0.40346   0.27882   0.34634   0.00000  Uiso   1.00
H687   H     0.44523   0.26228   0.64142   0.00000  Uiso   1.00
H688   H     0.43063   0.22706   0.35913   0.00000  Uiso   1.00
O689   O     0.45595   0.04831   0.42665   0.00000  Uiso   1.00
C690   C     0.41261   0.04038   0.42406   0.00000  Uiso   1.00
H691   H     0.39997   0.03918   0.46182   0.00000  Uiso   1.00
H692   H     0.40440   0.00840   0.40520   0.00000  Uiso   1.00
C693   C     0.39159   0.07670   0.39195   0.00000  Uiso   1.00
H694   H     0.40087   0.07341   0.35268   0.00000  Uiso   1.00
H695   H     0.35725   0.07327   0.39251   0.00000  Uiso   1.00
H696   H     0.40108   0.11044   0.40590   0.00000  Uiso   1.00
O697   O     0.54611   0.28582   0.57188   0.00000  Uiso   1.00
C698   C     0.53158   0.29364   0.62031   0.00000  Uiso   1.00
H699   H     0.51930   0.26166   0.63408   0.00000  Uiso   1.00
H700   H     0.50612   0.31884   0.62197   0.00000  Uiso   1.00
C701   C     0.56739   0.30750   0.65672   0.00000  Uiso   1.00
H702   H     0.57403   0.01037   0.65292   0.00000  Uiso   1.00
H703   H     0.55900   0.30190   0.36256   0.00000  Uiso   1.00
H704   H     0.59563   0.28755   0.64995   0.00000  Uiso   1.00
C705   C     0.75344   0.16676   0.50142   0.00000  Uiso   1.00
C706   C     0.91323   0.16695   0.49949   0.00000  Uiso   1.00
C707   C     0.83331   0.16660   0.40632   0.00000  Uiso   1.00
C708   C     0.83357   0.16669   0.59370   0.00000  Uiso   1.00
C709   C     0.83358   0.16648   0.35516   0.00000  Uiso   1.00
C710   C     0.83364   0.16662   0.64488   0.00000  Uiso   1.00
C711   C     0.68718   0.12825   0.49142   0.00000  Uiso   1.00
C712   C     0.97917   0.20711   0.51315   0.00000  Uiso   1.00
C713   C     0.97819   0.12932   0.48604   0.00000  Uiso   1.00
C714   C     0.68866   0.20702   0.51416   0.00000  Uiso   1.00
C715   C     0.95741   0.16797   0.49915   0.00000  Uiso   1.00
C716   C     0.70924   0.16728   0.50307   0.00000  Uiso   1.00
C717   C     0.85813   0.02365   0.53398   0.00000  Uiso   1.00
C718   C     0.81027   0.30893   0.46410   0.00000  Uiso   1.00
C719   C     0.80936   0.02410   0.46486   0.00000  Uiso   1.00
C720   C     0.85593   0.30921   0.53594   0.00000  Uiso   1.00
N721   N     0.83333   0.28573   0.50000   0.00000  Uiso   1.00
N722   N     0.83333   0.04760   0.50000   0.00000  Uiso   1.00
O723   O     0.77226   0.20487   0.50000   0.00000  Uiso   1.00
O724   O     0.89441   0.12846   0.50000   0.00000  Uiso   1.00
O725   O     0.89441   0.20487   0.50000   0.00000  Uiso   1.00
O726   O     0.77226   0.12846   0.50000   0.00000  Uiso   1.00
O727   O     0.83334   0.20488   0.42845   0.00000  Uiso   1.00
O728   O     0.83333   0.12845   0.57155   0.00000  Uiso   1.00
O729   O     0.83333   0.20488   0.57155   0.00000  Uiso   1.00
O730   O     0.83334   0.12845   0.42845   0.00000  Uiso   1.00
Zn731  Zn    0.83333   0.21771   0.50000   0.00000  Uiso   1.00
Zn732  Zn    0.83333   0.11563   0.50000   0.00000  Uiso   1.00
H733   H     0.70244   0.09716   0.48539   0.00000  Uiso   1.00
H734   H     0.96327   0.23748   0.52324   0.00000  Uiso   1.00
H735   H     0.96195   0.09983   0.47209   0.00000  Uiso   1.00
H736   H     0.70546   0.23755   0.52408   0.00000  Uiso   1.00
O737   O     0.88614   0.04555   0.56666   0.00000  Uiso   1.00
C738   C     0.92520   0.04928   0.54465   0.00000  Uiso   1.00
H739   H     0.93822   0.08249   0.55551   0.00000  Uiso   1.00
H740   H     0.92296   0.04687   0.50295   0.00000  Uiso   1.00
C741   C     0.95733   0.01542   0.56453   0.00000  Uiso   1.00
H742   H     0.94775   0.31407   0.55496   0.00000  Uiso   1.00
H743   H     0.98720   0.02178   0.54671   0.00000  Uiso   1.00
H744   H     0.96328   0.01934   0.60547   0.00000  Uiso   1.00
O745   O     0.78441   0.28455   0.43119   0.00000  Uiso   1.00
C746   C     0.79850   0.28699   0.38213   0.00000  Uiso   1.00
H747   H     0.82945   0.27133   0.38045   0.00000  Uiso   1.00
H748   H     0.80112   0.32187   0.36847   0.00000  Uiso   1.00
C749   C     0.76763   0.26222   0.34673   0.00000  Uiso   1.00
H750   H     0.73680   0.27882   0.34634   0.00000  Uiso   1.00
H751   H     0.77856   0.26228   0.64142   0.00000  Uiso   1.00
H752   H     0.76397   0.22706   0.35913   0.00000  Uiso   1.00
O753   O     0.78928   0.04831   0.42665   0.00000  Uiso   1.00
C754   C     0.74594   0.04038   0.42406   0.00000  Uiso   1.00
H755   H     0.73330   0.03918   0.46182   0.00000  Uiso   1.00
H756   H     0.73774   0.00840   0.40520   0.00000  Uiso   1.00
C757   C     0.72493   0.07670   0.39195   0.00000  Uiso   1.00
H758   H     0.73420   0.07341   0.35268   0.00000  Uiso   1.00
H759   H     0.69058   0.07327   0.39251   0.00000  Uiso   1.00
H760   H     0.73442   0.11044   0.40590   0.00000  Uiso   1.00
O761   O     0.87944   0.28582   0.57188   0.00000  Uiso   1.00
C762   C     0.86491   0.29364   0.62031   0.00000  Uiso   1.00
H763   H     0.85263   0.26166   0.63408   0.00000  Uiso   1.00
H764   H     0.83945   0.31884   0.62197   0.00000  Uiso   1.00
C765   C     0.90072   0.30750   0.65672   0.00000  Uiso   1.00
H766   H     0.90737   0.01037   0.65292   0.00000  Uiso   1.00
H767   H     0.89234   0.30190   0.36256   0.00000  Uiso   1.00
H768   H     0.92896   0.28755   0.64995   0.00000  Uiso   1.00
C769   C     0.08678   0.50010   0.50142   0.00000  Uiso   1.00
C770   C     0.24657   0.50028   0.49949   0.00000  Uiso   1.00
C771   C     0.16665   0.49993   0.40632   0.00000  Uiso   1.00
C772   C     0.16691   0.50003   0.59370   0.00000  Uiso   1.00
C773   C     0.16692   0.49982   0.35516   0.00000  Uiso   1.00
C774   C     0.16697   0.49995   0.64488   0.00000  Uiso   1.00
C775   C     0.02051   0.46158   0.49142   0.00000  Uiso   1.00
C776   C     0.31251   0.54045   0.51315   0.00000  Uiso   1.00
C777   C     0.31153   0.46265   0.48604   0.00000  Uiso   1.00
C778   C     0.02199   0.54035   0.51416   0.00000  Uiso   1.00
C779   C     0.29074   0.50130   0.49915   0.00000  Uiso   1.00
C780   C     0.04257   0.50062   0.50307   0.00000  Uiso   1.00
C781   C     0.19146   0.35698   0.53398   0.00000  Uiso   1.00
C782   C     0.14361   0.64226   0.46410   0.00000  Uiso   1.00
C783   C     0.14269   0.35743   0.46486   0.00000  Uiso   1.00
C784   C     0.18927   0.64255   0.53594   0.00000  Uiso   1.00
N785   N     0.16667   0.61907   0.50000   0.00000  Uiso   1.00
N786   N     0.16667   0.38093   0.50000   0.00000  Uiso   1.00
O787   O     0.10559   0.53821   0.50000   0.00000  Uiso   1.00
O788   O     0.22774   0.46179   0.50000   0.00000  Uiso   1.00
O789   O     0.22774   0.53821   0.50000   0.00000  Uiso   1.00
O790   O     0.10559   0.46179   0.50000   0.00000  Uiso   1.00
O791   O     0.16667   0.53821   0.42845   0.00000  Uiso   1.00
O792   O     0.16666   0.46179   0.57155   0.00000  Uiso   1.00
O793   O     0.16666   0.53821   0.57155   0.00000  Uiso   1.00
O794   O     0.16667   0.46179   0.42845   0.00000  Uiso   1.00
Zn795  Zn    0.16667   0.55104   0.50000   0.00000  Uiso   1.00
Zn796  Zn    0.16667   0.44896   0.50000   0.00000  Uiso   1.00
H797   H     0.03578   0.43050   0.48539   0.00000  Uiso   1.00
H798   H     0.29661   0.57082   0.52324   0.00000  Uiso   1.00
H799   H     0.29529   0.43316   0.47209   0.00000  Uiso   1.00
H800   H     0.03880   0.57089   0.52408   0.00000  Uiso   1.00
O801   O     0.21947   0.37888   0.56666   0.00000  Uiso   1.00
C802   C     0.25854   0.38261   0.54465   0.00000  Uiso   1.00
H803   H     0.27155   0.41582   0.55551   0.00000  Uiso   1.00
H804   H     0.25629   0.38020   0.50295   0.00000  Uiso   1.00
C805   C     0.29067   0.34875   0.56453   0.00000  Uiso   1.00
H806   H     0.28108   0.64741   0.55496   0.00000  Uiso   1.00
H807   H     0.32053   0.35511   0.54671   0.00000  Uiso   1.00
H808   H     0.29661   0.35267   0.60547   0.00000  Uiso   1.00
O809   O     0.11775   0.61789   0.43119   0.00000  Uiso   1.00
C810   C     0.13184   0.62033   0.38213   0.00000  Uiso   1.00
H811   H     0.16278   0.60467   0.38045   0.00000  Uiso   1.00
H812   H     0.13446   0.65520   0.36847   0.00000  Uiso   1.00
C813   C     0.10096   0.59556   0.34673   0.00000  Uiso   1.00
H814   H     0.07013   0.61215   0.34634   0.00000  Uiso   1.00
H815   H     0.11190   0.59562   0.64142   0.00000  Uiso   1.00
H816   H     0.09730   0.56039   0.35913   0.00000  Uiso   1.00
O817   O     0.12262   0.38165   0.42665   0.00000  Uiso   1.00
C818   C     0.07928   0.37371   0.42406   0.00000  Uiso   1.00
H819   H     0.06664   0.37251   0.46182   0.00000  Uiso   1.00
H820   H     0.07107   0.34174   0.40520   0.00000  Uiso   1.00
C821   C     0.05826   0.41003   0.39195   0.00000  Uiso   1.00
H822   H     0.06754   0.40674   0.35268   0.00000  Uiso   1.00
H823   H     0.02392   0.40660   0.39251   0.00000  Uiso   1.00
H824   H     0.06775   0.44377   0.40590   0.00000  Uiso   1.00
O825   O     0.21277   0.61915   0.57188   0.00000  Uiso   1.00
C826   C     0.19825   0.62697   0.62031   0.00000  Uiso   1.00
H827   H     0.18597   0.59499   0.63408   0.00000  Uiso   1.00
H828   H     0.17278   0.65217   0.62197   0.00000  Uiso   1.00
C829   C     0.23405   0.64083   0.65672   0.00000  Uiso   1.00
H830   H     0.24070   0.34371   0.65292   0.00000  Uiso   1.00
H831   H     0.22567   0.63523   0.36256   0.00000  Uiso   1.00
H832   H     0.26229   0.62089   0.64995   0.00000  Uiso   1.00
C833   C     0.42011   0.50010   0.50142   0.00000  Uiso   1.00
C834   C     0.57990   0.50028   0.49949   0.00000  Uiso   1.00
C835   C     0.49998   0.49993   0.40632   0.00000  Uiso   1.00
C836   C     0.50024   0.50003   0.59370   0.00000  Uiso   1.00
C837   C     0.50025   0.49982   0.35516   0.00000  Uiso   1.00
C838   C     0.50031   0.49995   0.64488   0.00000  Uiso   1.00
C839   C     0.35384   0.46158   0.49142   0.00000  Uiso   1.00
C840   C     0.64584   0.54045   0.51315   0.00000  Uiso   1.00
C841   C     0.64486   0.46265   0.48604   0.00000  Uiso   1.00
C842   C     0.35532   0.54035   0.51416   0.00000  Uiso   1.00
C843   C     0.62408   0.50130   0.49915   0.00000  Uiso   1.00
C844   C     0.37591   0.50062   0.50307   0.00000  Uiso   1.00
C845   C     0.52480   0.35698   0.53398   0.00000  Uiso   1.00
C846   C     0.47694   0.64226   0.46410   0.00000  Uiso   1.00
C847   C     0.47602   0.35743   0.46486   0.00000  Uiso   1.00
C848   C     0.52260   0.64255   0.53594   0.00000  Uiso   1.00
N849   N     0.50000   0.61907   0.50000   0.00000  Uiso   1.00
N850   N     0.50000   0.38093   0.50000   0.00000  Uiso   1.00
O851   O     0.43892   0.53821   0.50000   0.00000  Uiso   1.00
O852   O     0.56108   0.46179   0.50000   0.00000  Uiso   1.00
O853   O     0.56108   0.53821   0.50000   0.00000  Uiso   1.00
O854   O     0.43892   0.46179   0.50000   0.00000  Uiso   1.00
O855   O     0.50000   0.53821   0.42845   0.00000  Uiso   1.00
O856   O     0.50000   0.46179   0.57155   0.00000  Uiso   1.00
O857   O     0.50000   0.53821   0.57155   0.00000  Uiso   1.00
O858   O     0.50000   0.46179   0.42845   0.00000  Uiso   1.00
Zn859  Zn    0.50000   0.55104   0.50000   0.00000  Uiso   1.00
Zn860  Zn    0.50000   0.44896   0.50000   0.00000  Uiso   1.00
H861   H     0.36911   0.43050   0.48539   0.00000  Uiso   1.00
H862   H     0.62994   0.57082   0.52324   0.00000  Uiso   1.00
H863   H     0.62862   0.43316   0.47209   0.00000  Uiso   1.00
H864   H     0.37213   0.57089   0.52408   0.00000  Uiso   1.00
O865   O     0.55281   0.37888   0.56666   0.00000  Uiso   1.00
C866   C     0.59187   0.38261   0.54465   0.00000  Uiso   1.00
H867   H     0.60488   0.41582   0.55551   0.00000  Uiso   1.00
H868   H     0.58962   0.38020   0.50295   0.00000  Uiso   1.00
C869   C     0.62400   0.34875   0.56453   0.00000  Uiso   1.00
H870   H     0.61441   0.64741   0.55496   0.00000  Uiso   1.00
H871   H     0.65386   0.35511   0.54671   0.00000  Uiso   1.00
H872   H     0.62994   0.35267   0.60547   0.00000  Uiso   1.00
O873   O     0.45108   0.61789   0.43119   0.00000  Uiso   1.00
C874   C     0.46517   0.62033   0.38213   0.00000  Uiso   1.00
H875   H     0.49611   0.60467   0.38045   0.00000  Uiso   1.00
H876   H     0.46779   0.65520   0.36847   0.00000  Uiso   1.00
C877   C     0.43429   0.59556   0.34673   0.00000  Uiso   1.00
H878   H     0.40346   0.61215   0.34634   0.00000  Uiso   1.00
H879   H     0.44523   0.59562   0.64142   0.00000  Uiso   1.00
H880   H     0.43063   0.56039   0.35913   0.00000  Uiso   1.00
O881   O     0.45595   0.38165   0.42665   0.00000  Uiso   1.00
C882   C     0.41261   0.37371   0.42406   0.00000  Uiso   1.00
H883   H     0.39997   0.37251   0.46182   0.00000  Uiso   1.00
H884   H     0.40440   0.34174   0.40520   0.00000  Uiso   1.00
C885   C     0.39159   0.41003   0.39195   0.00000  Uiso   1.00
H886   H     0.40087   0.40674   0.35268   0.00000  Uiso   1.00
H887   H     0.35725   0.40660   0.39251   0.00000  Uiso   1.00
H888   H     0.40108   0.44377   0.40590   0.00000  Uiso   1.00
O889   O     0.54611   0.61915   0.57188   0.00000  Uiso   1.00
C890   C     0.53158   0.62697   0.62031   0.00000  Uiso   1.00
H891   H     0.51930   0.59499   0.63408   0.00000  Uiso   1.00
H892   H     0.50612   0.65217   0.62197   0.00000  Uiso   1.00
C893   C     0.56739   0.64083   0.65672   0.00000  Uiso   1.00
H894   H     0.57403   0.34371   0.65292   0.00000  Uiso   1.00
H895   H     0.55900   0.63523   0.36256   0.00000  Uiso   1.00
H896   H     0.59563   0.62089   0.64995   0.00000  Uiso   1.00
C897   C     0.75344   0.50010   0.50142   0.00000  Uiso   1.00
C898   C     0.91323   0.50028   0.49949   0.00000  Uiso   1.00
C899   C     0.83331   0.49993   0.40632   0.00000  Uiso   1.00
C900   C     0.83357   0.50003   0.59370   0.00000  Uiso   1.00
C901   C     0.83358   0.49982   0.35516   0.00000  Uiso   1.00
C902   C     0.83364   0.49995   0.64488   0.00000  Uiso   1.00
C903   C     0.68718   0.46158   0.49142   0.00000  Uiso   1.00
C904   C     0.97917   0.54045   0.51315   0.00000  Uiso   1.00
C905   C     0.97819   0.46265   0.48604   0.00000  Uiso   1.00
C906   C     0.68866   0.54035   0.51416   0.00000  Uiso   1.00
C907   C     0.95741   0.50130   0.49915   0.00000  Uiso   1.00
C908   C     0.70924   0.50062   0.50307   0.00000  Uiso   1.00
C909   C     0.85813   0.35698   0.53398   0.00000  Uiso   1.00
C910   C     0.81027   0.64226   0.46410   0.00000  Uiso   1.00
C911   C     0.80936   0.35743   0.46486   0.00000  Uiso   1.00
C912   C     0.85593   0.64255   0.53594   0.00000  Uiso   1.00
N913   N     0.83333   0.61907   0.50000   0.00000  Uiso   1.00
N914   N     0.83333   0.38093   0.50000   0.00000  Uiso   1.00
O915   O     0.77226   0.53821   0.50000   0.00000  Uiso   1.00
O916   O     0.89441   0.46179   0.50000   0.00000  Uiso   1.00
O917   O     0.89441   0.53821   0.50000   0.00000  Uiso   1.00
O918   O     0.77226   0.46179   0.50000   0.00000  Uiso   1.00
O919   O     0.83334   0.53821   0.42845   0.00000  Uiso   1.00
O920   O     0.83333   0.46179   0.57155   0.00000  Uiso   1.00
O921   O     0.83333   0.53821   0.57155   0.00000  Uiso   1.00
O922   O     0.83334   0.46179   0.42845   0.00000  Uiso   1.00
Zn923  Zn    0.83333   0.55104   0.50000   0.00000  Uiso   1.00
Zn924  Zn    0.83333   0.44896   0.50000   0.00000  Uiso   1.00
H925   H     0.70244   0.43050   0.48539   0.00000  Uiso   1.00
H926   H     0.96327   0.57082   0.52324   0.00000  Uiso   1.00
H927   H     0.96195   0.43316   0.47209   0.00000  Uiso   1.00
H928   H     0.70546   0.57089   0.52408   0.00000  Uiso   1.00
O929   O     0.88614   0.37888   0.56666   0.00000  Uiso   1.00
C930   C     0.92520   0.38261   0.54465   0.00000  Uiso   1.00
H931   H     0.93822   0.41582   0.55551   0.00000  Uiso   1.00
H932   H     0.92296   0.38020   0.50295   0.00000  Uiso   1.00
C933   C     0.95733   0.34875   0.56453   0.00000  Uiso   1.00
H934   H     0.94775   0.64741   0.55496   0.00000  Uiso   1.00
H935   H     0.98720   0.35511   0.54671   0.00000  Uiso   1.00
H936   H     0.96328   0.35267   0.60547   0.00000  Uiso   1.00
O937   O     0.78441   0.61789   0.43119   0.00000  Uiso   1.00
C938   C     0.79850   0.62033   0.38213   0.00000  Uiso   1.00
H939   H     0.82945   0.60467   0.38045   0.00000  Uiso   1.00
H940   H     0.80112   0.65520   0.36847   0.00000  Uiso   1.00
C941   C     0.76763   0.59556   0.34673   0.00000  Uiso   1.00
H942   H     0.73680   0.61215   0.34634   0.00000  Uiso   1.00
H943   H     0.77856   0.59562   0.64142   0.00000  Uiso   1.00
H944   H     0.76397   0.56039   0.35913   0.00000  Uiso   1.00
O945   O     0.78928   0.38165   0.42665   0.00000  Uiso   1.00
C946   C     0.74594   0.37371   0.42406   0.00000  Uiso   1.00
H947   H     0.73330   0.37251   0.46182   0.00000  Uiso   1.00
H948   H     0.73774   0.34174   0.40520   0.00000  Uiso   1.00
C949   C     0.72493   0.41003   0.39195   0.00000  Uiso   1.00
H950   H     0.73420   0.40674   0.35268   0.00000  Uiso   1.00
H951   H     0.69058   0.40660   0.39251   0.00000  Uiso   1.00
H952   H     0.73442   0.44377   0.40590   0.00000  Uiso   1.00
O953   O     0.87944   0.61915   0.57188   0.00000  Uiso   1.00
C954   C     0.86491   0.62697   0.62031   0.00000  Uiso   1.00
H955   H     0.85263   0.59499   0.63408   0.00000  Uiso   1.00
H956   H     0.83945   0.65217   0.62197   0.00000  Uiso   1.00
C957   C     0.90072   0.64083   0.65672   0.00000  Uiso   1.00
H958   H     0.90737   0.34371   0.65292   0.00000  Uiso   1.00
H959   H     0.89234   0.63523   0.36256   0.00000  Uiso   1.00
H960   H     0.92896   0.62089   0.64995   0.00000  Uiso   1.00
C961   C     0.08678   0.83343   0.50142   0.00000  Uiso   1.00
C962   C     0.24657   0.83361   0.49949   0.00000  Uiso   1.00
C963   C     0.16665   0.83326   0.40632   0.00000  Uiso   1.00
C964   C     0.16691   0.83336   0.59370   0.00000  Uiso   1.00
C965   C     0.16692   0.83315   0.35516   0.00000  Uiso   1.00
C966   C     0.16697   0.83329   0.64488   0.00000  Uiso   1.00
C967   C     0.02051   0.79492   0.49142   0.00000  Uiso   1.00
C968   C     0.31251   0.87378   0.51315   0.00000  Uiso   1.00
C969   C     0.31153   0.79599   0.48604   0.00000  Uiso   1.00
C970   C     0.02199   0.87369   0.51416   0.00000  Uiso   1.00
C971   C     0.29074   0.83463   0.49915   0.00000  Uiso   1.00
C972   C     0.04257   0.83395   0.50307   0.00000  Uiso   1.00
C973   C     0.19146   0.69032   0.53398   0.00000  Uiso   1.00
C974   C     0.14361   0.97559   0.46410   0.00000  Uiso   1.00
C975   C     0.14269   0.69076   0.46486   0.00000  Uiso   1.00
C976   C     0.18927   0.97588   0.53594   0.00000  Uiso   1.00
N977   N     0.16667   0.95240   0.50000   0.00000  Uiso   1.00
N978   N     0.16667   0.71427   0.50000   0.00000  Uiso   1.00
O979   O     0.10559   0.87154   0.50000   0.00000  Uiso   1.00
O980   O     0.22774   0.79513   0.50000   0.00000  Uiso   1.00
O981   O     0.22774   0.87154   0.50000   0.00000  Uiso   1.00
O982   O     0.10559   0.79513   0.50000   0.00000  Uiso   1.00
O983   O     0.16667   0.87155   0.42845   0.00000  Uiso   1.00
O984   O     0.16666   0.79512   0.57155   0.00000  Uiso   1.00
O985   O     0.16666   0.87155   0.57155   0.00000  Uiso   1.00
O986   O     0.16667   0.79512   0.42845   0.00000  Uiso   1.00
Zn987  Zn    0.16667   0.88437   0.50000   0.00000  Uiso   1.00
Zn988  Zn    0.16667   0.78229   0.50000   0.00000  Uiso   1.00
H989   H     0.03578   0.76383   0.48539   0.00000  Uiso   1.00
H990   H     0.29661   0.90415   0.52324   0.00000  Uiso   1.00
H991   H     0.29529   0.76649   0.47209   0.00000  Uiso   1.00
H992   H     0.03880   0.90422   0.52408   0.00000  Uiso   1.00
O993   O     0.21947   0.71222   0.56666   0.00000  Uiso   1.00
C994   C     0.25854   0.71594   0.54465   0.00000  Uiso   1.00
H995   H     0.27155   0.74916   0.55551   0.00000  Uiso   1.00
H996   H     0.25629   0.71354   0.50295   0.00000  Uiso   1.00
C997   C     0.29067   0.68208   0.56453   0.00000  Uiso   1.00
H998   H     0.28108   0.98074   0.55496   0.00000  Uiso   1.00
H999   H     0.32053   0.68844   0.54671   0.00000  Uiso   1.00
H1000  H     0.29661   0.68600   0.60547   0.00000  Uiso   1.00
O1001  O     0.11775   0.95122   0.43119   0.00000  Uiso   1.00
C1002  C     0.13184   0.95366   0.38213   0.00000  Uiso   1.00
H1003  H     0.16278   0.93800   0.38045   0.00000  Uiso   1.00
H1004  H     0.13446   0.98854   0.36847   0.00000  Uiso   1.00
C1005  C     0.10096   0.92889   0.34673   0.00000  Uiso   1.00
H1006  H     0.07013   0.94548   0.34634   0.00000  Uiso   1.00
H1007  H     0.11190   0.92895   0.64142   0.00000  Uiso   1.00
H1008  H     0.09730   0.89373   0.35913   0.00000  Uiso   1.00
O1009  O     0.12262   0.71498   0.42665   0.00000  Uiso   1.00
C1010  C     0.07928   0.70704   0.42406   0.00000  Uiso   1.00
H1011  H     0.06664   0.70584   0.46182   0.00000  Uiso   1.00
H1012  H     0.07107   0.67507   0.40520   0.00000  Uiso   1.00
C1013  C     0.05826   0.74336   0.39195   0.00000  Uiso   1.00
H1014  H     0.06754   0.74008   0.35268   0.00000  Uiso   1.00
H1015  H     0.02392   0.73993   0.39251   0.00000  Uiso   1.00
H1016  H     0.06775   0.77710   0.40590   0.00000  Uiso   1.00
O1017  O     0.21277   0.95249   0.57188   0.00000  Uiso   1.00
C1018  C     0.19825   0.96031   0.62031   0.00000  Uiso   1.00
H1019  H     0.18597   0.92833   0.63408   0.00000  Uiso   1.00
H1020  H     0.17278   0.98550   0.62197   0.00000  Uiso   1.00
C1021  C     0.23405   0.97417   0.65672   0.00000  Uiso   1.00
H1022  H     0.24070   0.67704   0.65292   0.00000  Uiso   1.00
H1023  H     0.22567   0.96857   0.36256   0.00000  Uiso   1.00
H1024  H     0.26229   0.95422   0.64995   0.00000  Uiso   1.00
C1025  C     0.42011   0.83343   0.50142   0.00000  Uiso   1.00
C1026  C     0.57990   0.83361   0.49949   0.00000  Uiso   1.00
C1027  C     0.49998   0.83326   0.40632   0.00000  Uiso   1.00
C1028  C     0.50024   0.83336   0.59370   0.00000  Uiso   1.00
C1029  C     0.50025   0.83315   0.35516   0.00000  Uiso   1.00
C1030  C     0.50031   0.83329   0.64488   0.00000  Uiso   1.00
C1031  C     0.35384   0.79492   0.49142   0.00000  Uiso   1.00
C1032  C     0.64584   0.87378   0.51315   0.00000  Uiso   1.00
C1033  C     0.64486   0.79599   0.48604   0.00000  Uiso   1.00
C1034  C     0.35532   0.87369   0.51416   0.00000  Uiso   1.00
C1035  C     0.62408   0.83463   0.49915   0.00000  Uiso   1.00
C1036  C     0.37591   0.83395   0.50307   0.00000  Uiso   1.00
C1037  C     0.52480   0.69032   0.53398   0.00000  Uiso   1.00
C1038  C     0.47694   0.97559   0.46410   0.00000  Uiso   1.00
C1039  C     0.47602   0.69076   0.46486   0.00000  Uiso   1.00
C1040  C     0.52260   0.97588   0.53594   0.00000  Uiso   1.00
N1041  N     0.50000   0.95240   0.50000   0.00000  Uiso   1.00
N1042  N     0.50000   0.71427   0.50000   0.00000  Uiso   1.00
O1043  O     0.43892   0.87154   0.50000   0.00000  Uiso   1.00
O1044  O     0.56108   0.79513   0.50000   0.00000  Uiso   1.00
O1045  O     0.56108   0.87154   0.50000   0.00000  Uiso   1.00
O1046  O     0.43892   0.79513   0.50000   0.00000  Uiso   1.00
O1047  O     0.50000   0.87155   0.42845   0.00000  Uiso   1.00
O1048  O     0.50000   0.79512   0.57155   0.00000  Uiso   1.00
O1049  O     0.50000   0.87155   0.57155   0.00000  Uiso   1.00
O1050  O     0.50000   0.79512   0.42845   0.00000  Uiso   1.00
Zn1051 Zn    0.50000   0.88437   0.50000   0.00000  Uiso   1.00
Zn1052 Zn    0.50000   0.78229   0.50000   0.00000  Uiso   1.00
H1053  H     0.36911   0.76383   0.48539   0.00000  Uiso   1.00
H1054  H     0.62994   0.90415   0.52324   0.00000  Uiso   1.00
H1055  H     0.62862   0.76649   0.47209   0.00000  Uiso   1.00
H1056  H     0.37213   0.90422   0.52408   0.00000  Uiso   1.00
O1057  O     0.55281   0.71222   0.56666   0.00000  Uiso   1.00
C1058  C     0.59187   0.71594   0.54465   0.00000  Uiso   1.00
H1059  H     0.60488   0.74916   0.55551   0.00000  Uiso   1.00
H1060  H     0.58962   0.71354   0.50295   0.00000  Uiso   1.00
C1061  C     0.62400   0.68208   0.56453   0.00000  Uiso   1.00
H1062  H     0.61441   0.98074   0.55496   0.00000  Uiso   1.00
H1063  H     0.65386   0.68844   0.54671   0.00000  Uiso   1.00
H1064  H     0.62994   0.68600   0.60547   0.00000  Uiso   1.00
O1065  O     0.45108   0.95122   0.43119   0.00000  Uiso   1.00
C1066  C     0.46517   0.95366   0.38213   0.00000  Uiso   1.00
H1067  H     0.49611   0.93800   0.38045   0.00000  Uiso   1.00
H1068  H     0.46779   0.98854   0.36847   0.00000  Uiso   1.00
C1069  C     0.43429   0.92889   0.34673   0.00000  Uiso   1.00
H1070  H     0.40346   0.94548   0.34634   0.00000  Uiso   1.00
H1071  H     0.44523   0.92895   0.64142   0.00000  Uiso   1.00
H1072  H     0.43063   0.89373   0.35913   0.00000  Uiso   1.00
O1073  O     0.45595   0.71498   0.42665   0.00000  Uiso   1.00
C1074  C     0.41261   0.70704   0.42406   0.00000  Uiso   1.00
H1075  H     0.39997   0.70584   0.46182   0.00000  Uiso   1.00
H1076  H     0.40440   0.67507   0.40520   0.00000  Uiso   1.00
C1077  C     0.39159   0.74336   0.39195   0.00000  Uiso   1.00
H1078  H     0.40087   0.74008   0.35268   0.00000  Uiso   1.00
H1079  H     0.35725   0.73993   0.39251   0.00000  Uiso   1.00
H1080  H     0.40108   0.77710   0.40590   0.00000  Uiso   1.00
O1081  O     0.54611   0.95249   0.57188   0.00000  Uiso   1.00
C1082  C     0.53158   0.96031   0.62031   0.00000  Uiso   1.00
H1083  H     0.51930   0.92833   0.63408   0.00000  Uiso   1.00
H1084  H     0.50612   0.98550   0.62197   0.00000  Uiso   1.00
C1085  C     0.56739   0.97417   0.65672   0.00000  Uiso   1.00
H1086  H     0.57403   0.67704   0.65292   0.00000  Uiso   1.00
H1087  H     0.55900   0.96857   0.36256   0.00000  Uiso   1.00
H1088  H     0.59563   0.95422   0.64995   0.00000  Uiso   1.00
C1089  C     0.75344   0.83343   0.50142   0.00000  Uiso   1.00
C1090  C     0.91323   0.83361   0.49949   0.00000  Uiso   1.00
C1091  C     0.83331   0.83326   0.40632   0.00000  Uiso   1.00
C1092  C     0.83357   0.83336   0.59370   0.00000  Uiso   1.00
C1093  C     0.83358   0.83315   0.35516   0.00000  Uiso   1.00
C1094  C     0.83364   0.83329   0.64488   0.00000  Uiso   1.00
C1095  C     0.68718   0.79492   0.49142   0.00000  Uiso   1.00
C1096  C     0.97917   0.87378   0.51315   0.00000  Uiso   1.00
C1097  C     0.97819   0.79599   0.48604   0.00000  Uiso   1.00
C1098  C     0.68866   0.87369   0.51416   0.00000  Uiso   1.00
C1099  C     0.95741   0.83463   0.49915   0.00000  Uiso   1.00
C1100  C     0.70924   0.83395   0.50307   0.00000  Uiso   1.00
C1101  C     0.85813   0.69032   0.53398   0.00000  Uiso   1.00
C1102  C     0.81027   0.97559   0.46410   0.00000  Uiso   1.00
C1103  C     0.80936   0.69076   0.46486   0.00000  Uiso   1.00
C1104  C     0.85593   0.97588   0.53594   0.00000  Uiso   1.00
N1105  N     0.83333   0.95240   0.50000   0.00000  Uiso   1.00
N1106  N     0.83333   0.71427   0.50000   0.00000  Uiso   1.00
O1107  O     0.77226   0.87154   0.50000   0.00000  Uiso   1.00
O1108  O     0.89441   0.79513   0.50000   0.00000  Uiso   1.00
O1109  O     0.89441   0.87154   0.50000   0.00000  Uiso   1.00
O1110  O     0.77226   0.79513   0.50000   0.00000  Uiso   1.00
O1111  O     0.83334   0.87155   0.42845   0.00000  Uiso   1.00
O1112  O     0.83333   0.79512   0.57155   0.00000  Uiso   1.00
O1113  O     0.83333   0.87155   0.57155   0.00000  Uiso   1.00
O1114  O     0.83334   0.79512   0.42845   0.00000  Uiso   1.00
Zn1115 Zn    0.83333   0.88437   0.50000   0.00000  Uiso   1.00
Zn1116 Zn    0.83333   0.78229   0.50000   0.00000  Uiso   1.00
H1117  H     0.70244   0.76383   0.48539   0.00000  Uiso   1.00
H1118  H     0.96327   0.90415   0.52324   0.00000  Uiso   1.00
H1119  H     0.96195   0.76649   0.47209   0.00000  Uiso   1.00
H1120  H     0.70546   0.90422   0.52408   0.00000  Uiso   1.00
O1121  O     0.88614   0.71222   0.56666   0.00000  Uiso   1.00
C1122  C     0.92520   0.71594   0.54465   0.00000  Uiso   1.00
H1123  H     0.93822   0.74916   0.55551   0.00000  Uiso   1.00
H1124  H     0.92296   0.71354   0.50295   0.00000  Uiso   1.00
C1125  C     0.95733   0.68208   0.56453   0.00000  Uiso   1.00
H1126  H     0.94775   0.98074   0.55496   0.00000  Uiso   1.00
H1127  H     0.98720   0.68844   0.54671   0.00000  Uiso   1.00
H1128  H     0.96328   0.68600   0.60547   0.00000  Uiso   1.00
O1129  O     0.78441   0.95122   0.43119   0.00000  Uiso   1.00
C1130  C     0.79850   0.95366   0.38213   0.00000  Uiso   1.00
H1131  H     0.82945   0.93800   0.38045   0.00000  Uiso   1.00
H1132  H     0.80112   0.98854   0.36847   0.00000  Uiso   1.00
C1133  C     0.76763   0.92889   0.34673   0.00000  Uiso   1.00
H1134  H     0.73680   0.94548   0.34634   0.00000  Uiso   1.00
H1135  H     0.77856   0.92895   0.64142   0.00000  Uiso   1.00
H1136  H     0.76397   0.89373   0.35913   0.00000  Uiso   1.00
O1137  O     0.78928   0.71498   0.42665   0.00000  Uiso   1.00
C1138  C     0.74594   0.70704   0.42406   0.00000  Uiso   1.00
H1139  H     0.73330   0.70584   0.46182   0.00000  Uiso   1.00
H1140  H     0.73774   0.67507   0.40520   0.00000  Uiso   1.00
C1141  C     0.72493   0.74336   0.39195   0.00000  Uiso   1.00
H1142  H     0.73420   0.74008   0.35268   0.00000  Uiso   1.00
H1143  H     0.69058   0.73993   0.39251   0.00000  Uiso   1.00
H1144  H     0.73442   0.77710   0.40590   0.00000  Uiso   1.00
O1145  O     0.87944   0.95249   0.57188   0.00000  Uiso   1.00
C1146  C     0.86491   0.96031   0.62031   0.00000  Uiso   1.00
H1147  H     0.85263   0.92833   0.63408   0.00000  Uiso   1.00
H1148  H     0.83945   0.98550   0.62197   0.00000  Uiso   1.00
C1149  C     0.90072   0.97417   0.65672   0.00000  Uiso   1.00
H1150  H     0.90737   0.67704   0.65292   0.00000  Uiso   1.00
H1151  H     0.89234   0.96857   0.36256   0.00000  Uiso   1.00
H1152  H     0.92896   0.95422   0.64995   0.00000  Uiso   1.00
C1153  C     0.08678   0.16676   0.83475   0.00000  Uiso   1.00
C1154  C     0.24657   0.16695   0.83282   0.00000  Uiso   1.00
C1155  C     0.16665   0.16660   0.73965   0.00000  Uiso   1.00
C1156  C     0.16691   0.16669   0.92703   0.00000  Uiso   1.00
C1157  C     0.16692   0.16648   0.68850   0.00000  Uiso   1.00
C1158  C     0.16697   0.16662   0.97821   0.00000  Uiso   1.00
C1159  C     0.02051   0.12825   0.82475   0.00000  Uiso   1.00
C1160  C     0.31251   0.20711   0.84649   0.00000  Uiso   1.00
C1161  C     0.31153   0.12932   0.81937   0.00000  Uiso   1.00
C1162  C     0.02199   0.20702   0.84750   0.00000  Uiso   1.00
C1163  C     0.29074   0.16797   0.83248   0.00000  Uiso   1.00
C1164  C     0.04257   0.16728   0.83640   0.00000  Uiso   1.00
C1165  C     0.19146   0.02365   0.86731   0.00000  Uiso   1.00
C1166  C     0.14361   0.30893   0.79744   0.00000  Uiso   1.00
C1167  C     0.14269   0.02410   0.79819   0.00000  Uiso   1.00
C1168  C     0.18927   0.30921   0.86927   0.00000  Uiso   1.00
N1169  N     0.16667   0.28573   0.83333   0.00000  Uiso   1.00
N1170  N     0.16667   0.04760   0.83333   0.00000  Uiso   1.00
O1171  O     0.10559   0.20487   0.83333   0.00000  Uiso   1.00
O1172  O     0.22774   0.12846   0.83334   0.00000  Uiso   1.00
O1173  O     0.22774   0.20487   0.83334   0.00000  Uiso   1.00
O1174  O     0.10559   0.12846   0.83333   0.00000  Uiso   1.00
O1175  O     0.16667   0.20488   0.76178   0.00000  Uiso   1.00
O1176  O     0.16666   0.12845   0.90489   0.00000  Uiso   1.00
O1177  O     0.16666   0.20488   0.90489   0.00000  Uiso   1.00
O1178  O     0.16667   0.12845   0.76178   0.00000  Uiso   1.00
Zn1179 Zn    0.16667   0.21771   0.83333   0.00000  Uiso   1.00
Zn1180 Zn    0.16667   0.11563   0.83333   0.00000  Uiso   1.00
H1181  H     0.03578   0.09716   0.81873   0.00000  Uiso   1.00
H1182  H     0.29661   0.23748   0.85657   0.00000  Uiso   1.00
H1183  H     0.29529   0.09983   0.80543   0.00000  Uiso   1.00
H1184  H     0.03880   0.23755   0.85741   0.00000  Uiso   1.00
O1185  O     0.21947   0.04555   0.90000   0.00000  Uiso   1.00
C1186  C     0.25854   0.04928   0.87798   0.00000  Uiso   1.00
H1187  H     0.27155   0.08249   0.88884   0.00000  Uiso   1.00
H1188  H     0.25629   0.04687   0.83629   0.00000  Uiso   1.00
C1189  C     0.29067   0.01542   0.89786   0.00000  Uiso   1.00
H1190  H     0.28108   0.31407   0.88830   0.00000  Uiso   1.00
H1191  H     0.32053   0.02178   0.88004   0.00000  Uiso   1.00
H1192  H     0.29661   0.01934   0.93880   0.00000  Uiso   1.00
O1193  O     0.11775   0.28455   0.76453   0.00000  Uiso   1.00
C1194  C     0.13184   0.28699   0.71546   0.00000  Uiso   1.00
H1195  H     0.16278   0.27133   0.71378   0.00000  Uiso   1.00
H1196  H     0.13446   0.32187   0.70180   0.00000  Uiso   1.00
C1197  C     0.10096   0.26222   0.68007   0.00000  Uiso   1.00
H1198  H     0.07013   0.27882   0.67967   0.00000  Uiso   1.00
H1199  H     0.11190   0.26228   0.97475   0.00000  Uiso   1.00
H1200  H     0.09730   0.22706   0.69247   0.00000  Uiso   1.00
O1201  O     0.12262   0.04831   0.75998   0.00000  Uiso   1.00
C1202  C     0.07928   0.04038   0.75739   0.00000  Uiso   1.00
H1203  H     0.06664   0.03918   0.79516   0.00000  Uiso   1.00
H1204  H     0.07107   0.00840   0.73853   0.00000  Uiso   1.00
C1205  C     0.05826   0.07670   0.72528   0.00000  Uiso   1.00
H1206  H     0.06754   0.07341   0.68602   0.00000  Uiso   1.00
H1207  H     0.02392   0.07327   0.72584   0.00000  Uiso   1.00
H1208  H     0.06775   0.11044   0.73924   0.00000  Uiso   1.00
O1209  O     0.21277   0.28582   0.90522   0.00000  Uiso   1.00
C1210  C     0.19825   0.29364   0.95364   0.00000  Uiso   1.00
H1211  H     0.18597   0.26166   0.96742   0.00000  Uiso   1.00
H1212  H     0.17278   0.31884   0.95530   0.00000  Uiso   1.00
C1213  C     0.23405   0.30750   0.99006   0.00000  Uiso   1.00
H1214  H     0.24070   0.01037   0.98625   0.00000  Uiso   1.00
H1215  H     0.22567   0.30190   0.69590   0.00000  Uiso   1.00
H1216  H     0.26229   0.28755   0.98329   0.00000  Uiso   1.00
C1217  C     0.42011   0.16676   0.83475   0.00000  Uiso   1.00
C1218  C     0.57990   0.16695   0.83282   0.00000  Uiso   1.00
C1219  C     0.49998   0.16660   0.73965   0.00000  Uiso   1.00
C1220  C     0.50024   0.16669   0.92703   0.00000  Uiso   1.00
C1221  C     0.50025   0.16648   0.68850   0.00000  Uiso   1.00
C1222  C     0.50031   0.16662   0.97821   0.00000  Uiso   1.00
C1223  C     0.35384   0.12825   0.82475   0.00000  Uiso   1.00
C1224  C     0.64584   0.20711   0.84649   0.00000  Uiso   1.00
C1225  C     0.64486   0.12932   0.81937   0.00000  Uiso   1.00
C1226  C     0.35532   0.20702   0.84750   0.00000  Uiso   1.00
C1227  C     0.62408   0.16797   0.83248   0.00000  Uiso   1.00
C1228  C     0.37591   0.16728   0.83640   0.00000  Uiso   1.00
C1229  C     0.52480   0.02365   0.86731   0.00000  Uiso   1.00
C1230  C     0.47694   0.30893   0.79744   0.00000  Uiso   1.00
C1231  C     0.47602   0.02410   0.79819   0.00000  Uiso   1.00
C1232  C     0.52260   0.30921   0.86927   0.00000  Uiso   1.00
N1233  N     0.50000   0.28573   0.83333   0.00000  Uiso   1.00
N1234  N     0.50000   0.04760   0.83333   0.00000  Uiso   1.00
O1235  O     0.43892   0.20487   0.83333   0.00000  Uiso   1.00
O1236  O     0.56108   0.12846   0.83334   0.00000  Uiso   1.00
O1237  O     0.56108   0.20487   0.83334   0.00000  Uiso   1.00
O1238  O     0.43892   0.12846   0.83333   0.00000  Uiso   1.00
O1239  O     0.50000   0.20488   0.76178   0.00000  Uiso   1.00
O1240  O     0.50000   0.12845   0.90489   0.00000  Uiso   1.00
O1241  O     0.50000   0.20488   0.90489   0.00000  Uiso   1.00
O1242  O     0.50000   0.12845   0.76178   0.00000  Uiso   1.00
Zn1243 Zn    0.50000   0.21771   0.83333   0.00000  Uiso   1.00
Zn1244 Zn    0.50000   0.11563   0.83333   0.00000  Uiso   1.00
H1245  H     0.36911   0.09716   0.81873   0.00000  Uiso   1.00
H1246  H     0.62994   0.23748   0.85657   0.00000  Uiso   1.00
H1247  H     0.62862   0.09983   0.80543   0.00000  Uiso   1.00
H1248  H     0.37213   0.23755   0.85741   0.00000  Uiso   1.00
O1249  O     0.55281   0.04555   0.90000   0.00000  Uiso   1.00
C1250  C     0.59187   0.04928   0.87798   0.00000  Uiso   1.00
H1251  H     0.60488   0.08249   0.88884   0.00000  Uiso   1.00
H1252  H     0.58962   0.04687   0.83629   0.00000  Uiso   1.00
C1253  C     0.62400   0.01542   0.89786   0.00000  Uiso   1.00
H1254  H     0.61441   0.31407   0.88830   0.00000  Uiso   1.00
H1255  H     0.65386   0.02178   0.88004   0.00000  Uiso   1.00
H1256  H     0.62994   0.01934   0.93880   0.00000  Uiso   1.00
O1257  O     0.45108   0.28455   0.76453   0.00000  Uiso   1.00
C1258  C     0.46517   0.28699   0.71546   0.00000  Uiso   1.00
H1259  H     0.49611   0.27133   0.71378   0.00000  Uiso   1.00
H1260  H     0.46779   0.32187   0.70180   0.00000  Uiso   1.00
C1261  C     0.43429   0.26222   0.68007   0.00000  Uiso   1.00
H1262  H     0.40346   0.27882   0.67967   0.00000  Uiso   1.00
H1263  H     0.44523   0.26228   0.97475   0.00000  Uiso   1.00
H1264  H     0.43063   0.22706   0.69247   0.00000  Uiso   1.00
O1265  O     0.45595   0.04831   0.75998   0.00000  Uiso   1.00
C1266  C     0.41261   0.04038   0.75739   0.00000  Uiso   1.00
H1267  H     0.39997   0.03918   0.79516   0.00000  Uiso   1.00
H1268  H     0.40440   0.00840   0.73853   0.00000  Uiso   1.00
C1269  C     0.39159   0.07670   0.72528   0.00000  Uiso   1.00
H1270  H     0.40087   0.07341   0.68602   0.00000  Uiso   1.00
H1271  H     0.35725   0.07327   0.72584   0.00000  Uiso   1.00
H1272  H     0.40108   0.11044   0.73924   0.00000  Uiso   1.00
O1273  O     0.54611   0.28582   0.90522   0.00000  Uiso   1.00
C1274  C     0.53158   0.29364   0.95364   0.00000  Uiso   1.00
H1275  H     0.51930   0.26166   0.96742   0.00000  Uiso   1.00
H1276  H     0.50612   0.31884   0.95530   0.00000  Uiso   1.00
C1277  C     0.56739   0.30750   0.99006   0.00000  Uiso   1.00
H1278  H     0.57403   0.01037   0.98625   0.00000  Uiso   1.00
H1279  H     0.55900   0.30190   0.69590   0.00000  Uiso   1.00
H1280  H     0.59563   0.28755   0.98329   0.00000  Uiso   1.00
C1281  C     0.75344   0.16676   0.83475   0.00000  Uiso   1.00
C1282  C     0.91323   0.16695   0.83282   0.00000  Uiso   1.00
C1283  C     0.83331   0.16660   0.73965   0.00000  Uiso   1.00
C1284  C     0.83357   0.16669   0.92703   0.00000  Uiso   1.00
C1285  C     0.83358   0.16648   0.68850   0.00000  Uiso   1.00
C1286  C     0.83364   0.16662   0.97821   0.00000  Uiso   1.00
C1287  C     0.68718   0.12825   0.82475   0.00000  Uiso   1.00
C1288  C     0.97917   0.20711   0.84649   0.00000  Uiso   1.00
C1289  C     0.97819   0.12932   0.81937   0.00000  Uiso   1.00
C1290  C     0.68866   0.20702   0.84750   0.00000  Uiso   1.00
C1291  C     0.95741   0.16797   0.83248   0.00000  Uiso   1.00
C1292  C     0.70924   0.16728   0.83640   0.00000  Uiso   1.00
C1293  C     0.85813   0.02365   0.86731   0.00000  Uiso   1.00
C1294  C     0.81027   0.30893   0.79744   0.00000  Uiso   1.00
C1295  C     0.80936   0.02410   0.79819   0.00000  Uiso   1.00
C1296  C     0.85593   0.30921   0.86927   0.00000  Uiso   1.00
N1297  N     0.83333   0.28573   0.83333   0.00000  Uiso   1.00
N1298  N     0.83333   0.04760   0.83333   0.00000  Uiso   1.00
O1299  O     0.77226   0.20487   0.83333   0.00000  Uiso   1.00
O1300  O     0.89441   0.12846   0.83334   0.00000  Uiso   1.00
O1301  O     0.89441   0.20487   0.83334   0.00000  Uiso   1.00
O1302  O     0.77226   0.12846   0.83333   0.00000  Uiso   1.00
O1303  O     0.83334   0.20488   0.76178   0.00000  Uiso   1.00
O1304  O     0.83333   0.12845   0.90489   0.00000  Uiso   1.00
O1305  O     0.83333   0.20488   0.90489   0.00000  Uiso   1.00
O1306  O     0.83334   0.12845   0.76178   0.00000  Uiso   1.00
Zn1307 Zn    0.83333   0.21771   0.83333   0.00000  Uiso   1.00
Zn1308 Zn    0.83333   0.11563   0.83333   0.00000  Uiso   1.00
H1309  H     0.70244   0.09716   0.81873   0.00000  Uiso   1.00
H1310  H     0.96327   0.23748   0.85657   0.00000  Uiso   1.00
H1311  H     0.96195   0.09983   0.80543   0.00000  Uiso   1.00
H1312  H     0.70546   0.23755   0.85741   0.00000  Uiso   1.00
O1313  O     0.88614   0.04555   0.90000   0.00000  Uiso   1.00
C1314  C     0.92520   0.04928   0.87798   0.00000  Uiso   1.00
H1315  H     0.93822   0.08249   0.88884   0.00000  Uiso   1.00
H1316  H     0.92296   0.04687   0.83629   0.00000  Uiso   1.00
C1317  C     0.95733   0.01542   0.89786   0.00000  Uiso   1.00
H1318  H     0.94775   0.31407   0.88830   0.00000  Uiso   1.00
H1319  H     0.98720   0.02178   0.88004   0.00000  Uiso   1.00
H1320  H     0.96328   0.01934   0.93880   0.00000  Uiso   1.00
O1321  O     0.78441   0.28455   0.76453   0.00000  Uiso   1.00
C1322  C     0.79850   0.28699   0.71546   0.00000  Uiso   1.00
H1323  H     0.82945   0.27133   0.71378   0.00000  Uiso   1.00
H1324  H     0.80112   0.32187   0.70180   0.00000  Uiso   1.00
C1325  C     0.76763   0.26222   0.68007   0.00000  Uiso   1.00
H1326  H     0.73680   0.27882   0.67967   0.00000  Uiso   1.00
H1327  H     0.77856   0.26228   0.97475   0.00000  Uiso   1.00
H1328  H     0.76397   0.22706   0.69247   0.00000  Uiso   1.00
O1329  O     0.78928   0.04831   0.75998   0.00000  Uiso   1.00
C1330  C     0.74594   0.04038   0.75739   0.00000  Uiso   1.00
H1331  H     0.73330   0.03918   0.79516   0.00000  Uiso   1.00
H1332  H     0.73774   0.00840   0.73853   0.00000  Uiso   1.00
C1333  C     0.72493   0.07670   0.72528   0.00000  Uiso   1.00
H1334  H     0.73420   0.07341   0.68602   0.00000  Uiso   1.00
H1335  H     0.69058   0.07327   0.72584   0.00000  Uiso   1.00
H1336  H     0.73442   0.11044   0.73924   0.00000  Uiso   1.00
O1337  O     0.87944   0.28582   0.90522   0.00000  Uiso   1.00
C1338  C     0.86491   0.29364   0.95364   0.00000  Uiso   1.00
H1339  H     0.85263   0.26166   0.96742   0.00000  Uiso   1.00
H1340  H     0.83945   0.31884   0.95530   0.00000  Uiso   1.00
C1341  C     0.90072   0.30750   0.99006   0.00000  Uiso   1.00
H1342  H     0.90737   0.01037   0.98625   0.00000  Uiso   1.00
H1343  H     0.89234   0.30190   0.69590   0.00000  Uiso   1.00
H1344  H     0.92896   0.28755   0.98329   0.00000  Uiso   1.00
C1345  C     0.08678   0.50010   0.83475   0.00000  Uiso   1.00
C1346  C     0.24657   0.50028   0.83282   0.00000  Uiso   1.00
C1347  C     0.16665   0.49993   0.73965   0.00000  Uiso   1.00
C1348  C     0.16691   0.50003   0.92703   0.00000  Uiso   1.00
C1349  C     0.16692   0.49982   0.68850   0.00000  Uiso   1.00
C1350  C     0.16697   0.49995   0.97821   0.00000  Uiso   1.00
C1351  C     0.02051   0.46158   0.82475   0.00000  Uiso   1.00
C1352  C     0.31251   0.54045   0.84649   0.00000  Uiso   1.00
C1353  C     0.31153   0.46265   0.81937   0.00000  Uiso   1.00
C1354  C     0.02199   0.54035   0.84750   0.00000  Uiso   1.00
C1355  C     0.29074   0.50130   0.83248   0.00000  Uiso   1.00
C1356  C     0.04257   0.50062   0.83640   0.00000  Uiso   1.00
C1357  C     0.19146   0.35698   0.86731   0.00000  Uiso   1.00
C1358  C     0.14361   0.64226   0.79744   0.00000  Uiso   1.00
C1359  C     0.14269   0.35743   0.79819   0.00000  Uiso   1.00
C1360  C     0.18927   0.64255   0.86927   0.00000  Uiso   1.00
N1361  N     0.16667   0.61907   0.83333   0.00000  Uiso   1.00
N1362  N     0.16667   0.38093   0.83333   0.00000  Uiso   1.00
O1363  O     0.10559   0.53821   0.83333   0.00000  Uiso   1.00
O1364  O     0.22774   0.46179   0.83334   0.00000  Uiso   1.00
O1365  O     0.22774   0.53821   0.83334   0.00000  Uiso   1.00
O1366  O     0.10559   0.46179   0.83333   0.00000  Uiso   1.00
O1367  O     0.16667   0.53821   0.76178   0.00000  Uiso   1.00
O1368  O     0.16666   0.46179   0.90489   0.00000  Uiso   1.00
O1369  O     0.16666   0.53821   0.90489   0.00000  Uiso   1.00
O1370  O     0.16667   0.46179   0.76178   0.00000  Uiso   1.00
Zn1371 Zn    0.16667   0.55104   0.83333   0.00000  Uiso   1.00
Zn1372 Zn    0.16667   0.44896   0.83333   0.00000  Uiso   1.00
H1373  H     0.03578   0.43050   0.81873   0.00000  Uiso   1.00
H1374  H     0.29661   0.57082   0.85657   0.00000  Uiso   1.00
H1375  H     0.29529   0.43316   0.80543   0.00000  Uiso   1.00
H1376  H     0.03880   0.57089   0.85741   0.00000  Uiso   1.00
O1377  O     0.21947   0.37888   0.90000   0.00000  Uiso   1.00
C1378  C     0.25854   0.38261   0.87798   0.00000  Uiso   1.00
H1379  H     0.27155   0.41582   0.88884   0.00000  Uiso   1.00
H1380  H     0.25629   0.38020   0.83629   0.00000  Uiso   1.00
C1381  C     0.29067   0.34875   0.89786   0.00000  Uiso   1.00
H1382  H     0.28108   0.64741   0.88830   0.00000  Uiso   1.00
H1383  H     0.32053   0.35511   0.88004   0.00000  Uiso   1.00
H1384  H     0.29661   0.35267   0.93880   0.00000  Uiso   1.00
O1385  O     0.11775   0.61789   0.76453   0.00000  Uiso   1.00
C1386  C     0.13184   0.62033   0.71546   0.00000  Uiso   1.00
H1387  H     0.16278   0.60467   0.71378   0.00000  Uiso   1.00
H1388  H     0.13446   0.65520   0.70180   0.00000  Uiso   1.00
C1389  C     0.10096   0.59556   0.68007   0.00000  Uiso   1.00
H1390  H     0.07013   0.61215   0.67967   0.00000  Uiso   1.00
H1391  H     0.11190   0.59562   0.97475   0.00000  Uiso   1.00
H1392  H     0.09730   0.56039   0.69247   0.00000  Uiso   1.00
O1393  O     0.12262   0.38165   0.75998   0.00000  Uiso   1.00
C1394  C     0.07928   0.37371   0.75739   0.00000  Uiso   1.00
H1395  H     0.06664   0.37251   0.79516   0.00000  Uiso   1.00
H1396  H     0.07107   0.34174   0.73853   0.00000  Uiso   1.00
C1397  C     0.05826   0.41003   0.72528   0.00000  Uiso   1.00
H1398  H     0.06754   0.40674   0.68602   0.00000  Uiso   1.00
H1399  H     0.02392   0.40660   0.72584   0.00000  Uiso   1.00
H1400  H     0.06775   0.44377   0.73924   0.00000  Uiso   1.00
O1401  O     0.21277   0.61915   0.90522   0.00000  Uiso   1.00
C1402  C     0.19825   0.62697   0.95364   0.00000  Uiso   1.00
H1403  H     0.18597   0.59499   0.96742   0.00000  Uiso   1.00
H1404  H     0.17278   0.65217   0.95530   0.00000  Uiso   1.00
C1405  C     0.23405   0.64083   0.99006   0.00000  Uiso   1.00
H1406  H     0.24070   0.34371   0.98625   0.00000  Uiso   1.00
H1407  H     0.22567   0.63523   0.69590   0.00000  Uiso   1.00
H1408  H     0.26229   0.62089   0.98329   0.00000  Uiso   1.00
C1409  C     0.42011   0.50010   0.83475   0.00000  Uiso   1.00
C1410  C     0.57990   0.50028   0.83282   0.00000  Uiso   1.00
C1411  C     0.49998   0.49993   0.73965   0.00000  Uiso   1.00
C1412  C     0.50024   0.50003   0.92703   0.00000  Uiso   1.00
C1413  C     0.50025   0.49982   0.68850   0.00000  Uiso   1.00
C1414  C     0.50031   0.49995   0.97821   0.00000  Uiso   1.00
C1415  C     0.35384   0.46158   0.82475   0.00000  Uiso   1.00
C1416  C     0.64584   0.54045   0.84649   0.00000  Uiso   1.00
C1417  C     0.64486   0.46265   0.81937   0.00000  Uiso   1.00
C1418  C     0.35532   0.54035   0.84750   0.00000  Uiso   1.00
C1419  C     0.62408   0.50130   0.83248   0.00000  Uiso   1.00
C1420  C     0.37591   0.50062   0.83640   0.00000  Uiso   1.00
C1421  C     0.52480   0.35698   0.86731   0.00000  Uiso   1.00
C1422  C     0.47694   0.64226   0.79744   0.00000  Uiso   1.00
C1423  C     0.47602   0.35743   0.79819   0.00000  Uiso   1.00
C1424  C     0.52260   0.64255   0.86927   0.00000  Uiso   1.00
N1425  N     0.50000   0.61907   0.83333   0.00000  Uiso   1.00
N1426  N     0.50000   0.38093   0.83333   0.00000  Uiso   1.00
O1427  O     0.43892   0.53821   0.83333   0.00000  Uiso   1.00
O1428  O     0.56108   0.46179   0.83334   0.00000  Uiso   1.00
O1429  O     0.56108   0.53821   0.83334   0.00000  Uiso   1.00
O1430  O     0.43892   0.46179   0.83333   0.00000  Uiso   1.00
O1431  O     0.50000   0.53821   0.76178   0.00000  Uiso   1.00
O1432  O     0.50000   0.46179   0.90489   0.00000  Uiso   1.00
O1433  O     0.50000   0.53821   0.90489   0.00000  Uiso   1.00
O1434  O     0.50000   0.46179   0.76178   0.00000  Uiso   1.00
Zn1435 Zn    0.50000   0.55104   0.83333   0.00000  Uiso   1.00
Zn1436 Zn    0.50000   0.44896   0.83333   0.00000  Uiso   1.00
H1437  H     0.36911   0.43050   0.81873   0.00000  Uiso   1.00
H1438  H     0.62994   0.57082   0.85657   0.00000  Uiso   1.00
H1439  H     0.62862   0.43316   0.80543   0.00000  Uiso   1.00
H1440  H     0.37213   0.57089   0.85741   0.00000  Uiso   1.00
O1441  O     0.55281   0.37888   0.90000   0.00000  Uiso   1.00
C1442  C     0.59187   0.38261   0.87798   0.00000  Uiso   1.00
H1443  H     0.60488   0.41582   0.88884   0.00000  Uiso   1.00
H1444  H     0.58962   0.38020   0.83629   0.00000  Uiso   1.00
C1445  C     0.62400   0.34875   0.89786   0.00000  Uiso   1.00
H1446  H     0.61441   0.64741   0.88830   0.00000  Uiso   1.00
H1447  H     0.65386   0.35511   0.88004   0.00000  Uiso   1.00
H1448  H     0.62994   0.35267   0.93880   0.00000  Uiso   1.00
O1449  O     0.45108   0.61789   0.76453   0.00000  Uiso   1.00
C1450  C     0.46517   0.62033   0.71546   0.00000  Uiso   1.00
H1451  H     0.49611   0.60467   0.71378   0.00000  Uiso   1.00
H1452  H     0.46779   0.65520   0.70180   0.00000  Uiso   1.00
C1453  C     0.43429   0.59556   0.68007   0.00000  Uiso   1.00
H1454  H     0.40346   0.61215   0.67967   0.00000  Uiso   1.00
H1455  H     0.44523   0.59562   0.97475   0.00000  Uiso   1.00
H1456  H     0.43063   0.56039   0.69247   0.00000  Uiso   1.00
O1457  O     0.45595   0.38165   0.75998   0.00000  Uiso   1.00
C1458  C     0.41261   0.37371   0.75739   0.00000  Uiso   1.00
H1459  H     0.39997   0.37251   0.79516   0.00000  Uiso   1.00
H1460  H     0.40440   0.34174   0.73853   0.00000  Uiso   1.00
C1461  C     0.39159   0.41003   0.72528   0.00000  Uiso   1.00
H1462  H     0.40087   0.40674   0.68602   0.00000  Uiso   1.00
H1463  H     0.35725   0.40660   0.72584   0.00000  Uiso   1.00
H1464  H     0.40108   0.44377   0.73924   0.00000  Uiso   1.00
O1465  O     0.54611   0.61915   0.90522   0.00000  Uiso   1.00
C1466  C     0.53158   0.62697   0.95364   0.00000  Uiso   1.00
H1467  H     0.51930   0.59499   0.96742   0.00000  Uiso   1.00
H1468  H     0.50612   0.65217   0.95530   0.00000  Uiso   1.00
C1469  C     0.56739   0.64083   0.99006   0.00000  Uiso   1.00
H1470  H     0.57403   0.34371   0.98625   0.00000  Uiso   1.00
H1471  H     0.55900   0.63523   0.69590   0.00000  Uiso   1.00
H1472  H     0.59563   0.62089   0.98329   0.00000  Uiso   1.00
C1473  C     0.75344   0.50010   0.83475   0.00000  Uiso   1.00
C1474  C     0.91323   0.50028   0.83282   0.00000  Uiso   1.00
C1475  C     0.83331   0.49993   0.73965   0.00000  Uiso   1.00
C1476  C     0.83357   0.50003   0.92703   0.00000  Uiso   1.00
C1477  C     0.83358   0.49982   0.68850   0.00000  Uiso   1.00
C1478  C     0.83364   0.49995   0.97821   0.00000  Uiso   1.00
C1479  C     0.68718   0.46158   0.82475   0.00000  Uiso   1.00
C1480  C     0.97917   0.54045   0.84649   0.00000  Uiso   1.00
C1481  C     0.97819   0.46265   0.81937   0.00000  Uiso   1.00
C1482  C     0.68866   0.54035   0.84750   0.00000  Uiso   1.00
C1483  C     0.95741   0.50130   0.83248   0.00000  Uiso   1.00
C1484  C     0.70924   0.50062   0.83640   0.00000  Uiso   1.00
C1485  C     0.85813   0.35698   0.86731   0.00000  Uiso   1.00
C1486  C     0.81027   0.64226   0.79744   0.00000  Uiso   1.00
C1487  C     0.80936   0.35743   0.79819   0.00000  Uiso   1.00
C1488  C     0.85593   0.64255   0.86927   0.00000  Uiso   1.00
N1489  N     0.83333   0.61907   0.83333   0.00000  Uiso   1.00
N1490  N     0.83333   0.38093   0.83333   0.00000  Uiso   1.00
O1491  O     0.77226   0.53821   0.83333   0.00000  Uiso   1.00
O1492  O     0.89441   0.46179   0.83334   0.00000  Uiso   1.00
O1493  O     0.89441   0.53821   0.83334   0.00000  Uiso   1.00
O1494  O     0.77226   0.46179   0.83333   0.00000  Uiso   1.00
O1495  O     0.83334   0.53821   0.76178   0.00000  Uiso   1.00
O1496  O     0.83333   0.46179   0.90489   0.00000  Uiso   1.00
O1497  O     0.83333   0.53821   0.90489   0.00000  Uiso   1.00
O1498  O     0.83334   0.46179   0.76178   0.00000  Uiso   1.00
Zn1499 Zn    0.83333   0.55104   0.83333   0.00000  Uiso   1.00
Zn1500 Zn    0.83333   0.44896   0.83333   0.00000  Uiso   1.00
H1501  H     0.70244   0.43050   0.81873   0.00000  Uiso   1.00
H1502  H     0.96327   0.57082   0.85657   0.00000  Uiso   1.00
H1503  H     0.96195   0.43316   0.80543   0.00000  Uiso   1.00
H1504  H     0.70546   0.57089   0.85741   0.00000  Uiso   1.00
O1505  O     0.88614   0.37888   0.90000   0.00000  Uiso   1.00
C1506  C     0.92520   0.38261   0.87798   0.00000  Uiso   1.00
H1507  H     0.93822   0.41582   0.88884   0.00000  Uiso   1.00
H1508  H     0.92296   0.38020   0.83629   0.00000  Uiso   1.00
C1509  C     0.95733   0.34875   0.89786   0.00000  Uiso   1.00
H1510  H     0.94775   0.64741   0.88830   0.00000  Uiso   1.00
H1511  H     0.98720   0.35511   0.88004   0.00000  Uiso   1.00
H1512  H     0.96328   0.35267   0.93880   0.00000  Uiso   1.00
O1513  O     0.78441   0.61789   0.76453   0.00000  Uiso   1.00
C1514  C     0.79850   0.62033   0.71546   0.00000  Uiso   1.00
H1515  H     0.82945   0.60467   0.71378   0.00000  Uiso   1.00
H1516  H     0.80112   0.65520   0.70180   0.00000  Uiso   1.00
C1517  C     0.76763   0.59556   0.68007   0.00000  Uiso   1.00
H1518  H     0.73680   0.61215   0.67967   0.00000  Uiso   1.00
H1519  H     0.77856   0.59562   0.97475   0.00000  Uiso   1.00
H1520  H     0.76397   0.56039   0.69247   0.00000  Uiso   1.00
O1521  O     0.78928   0.38165   0.75998   0.00000  Uiso   1.00
C1522  C     0.74594   0.37371   0.75739   0.00000  Uiso   1.00
H1523  H     0.73330   0.37251   0.79516   0.00000  Uiso   1.00
H1524  H     0.73774   0.34174   0.73853   0.00000  Uiso   1.00
C1525  C     0.72493   0.41003   0.72528   0.00000  Uiso   1.00
H1526  H     0.73420   0.40674   0.68602   0.00000  Uiso   1.00
H1527  H     0.69058   0.40660   0.72584   0.00000  Uiso   1.00
H1528  H     0.73442   0.44377   0.73924   0.00000  Uiso   1.00
O1529  O     0.87944   0.61915   0.90522   0.00000  Uiso   1.00
C1530  C     0.86491   0.62697   0.95364   0.00000  Uiso   1.00
H1531  H     0.85263   0.59499   0.96742   0.00000  Uiso   1.00
H1532  H     0.83945   0.65217   0.95530   0.00000  Uiso   1.00
C1533  C     0.90072   0.64083   0.99006   0.00000  Uiso   1.00
H1534  H     0.90737   0.34371   0.98625   0.00000  Uiso   1.00
H1535  H     0.89234   0.63523   0.69590   0.00000  Uiso   1.00
H1536  H     0.92896   0.62089   0.98329   0.00000  Uiso   1.00
C1537  C     0.08678   0.83343   0.83475   0.00000  Uiso   1.00
C1538  C     0.24657   0.83361   0.83282   0.00000  Uiso   1.00
C1539  C     0.16665   0.83326   0.73965   0.00000  Uiso   1.00
C1540  C     0.16691   0.83336   0.92703   0.00000  Uiso   1.00
C1541  C     0.16692   0.83315   0.68850   0.00000  Uiso   1.00
C1542  C     0.16697   0.83329   0.97821   0.00000  Uiso   1.00
C1543  C     0.02051   0.79492   0.82475   0.00000  Uiso   1.00
C1544  C     0.31251   0.87378   0.84649   0.00000  Uiso   1.00
C1545  C     0.31153   0.79599   0.81937   0.00000  Uiso   1.00
C1546  C     0.02199   0.87369   0.84750   0.00000  Uiso   1.00
C1547  C     0.29074   0.83463   0.83248   0.00000  Uiso   1.00
C1548  C     0.04257   0.83395   0.83640   0.00000  Uiso   1.00
C1549  C     0.19146   0.69032   0.86731   0.00000  Uiso   1.00
C1550  C     0.14361   0.97559   0.79744   0.00000  Uiso   1.00
C1551  C     0.14269   0.69076   0.79819   0.00000  Uiso   1.00
C1552  C     0.18927   0.97588   0.86927   0.00000  Uiso   1.00
N1553  N     0.16667   0.95240   0.83333   0.00000  Uiso   1.00
N1554  N     0.16667   0.71427   0.83333   0.00000  Uiso   1.00
O1555  O     0.10559   0.87154   0.83333   0.00000  Uiso   1.00
O1556  O     0.22774   0.79513   0.83334   0.00000  Uiso   1.00
O1557  O     0.22774   0.87154   0.83334   0.00000  Uiso   1.00
O1558  O     0.10559   0.79513   0.83333   0.00000  Uiso   1.00
O1559  O     0.16667   0.87155   0.76178   0.00000  Uiso   1.00
O1560  O     0.16666   0.79512   0.90489   0.00000  Uiso   1.00
O1561  O     0.16666   0.87155   0.90489   0.00000  Uiso   1.00
O1562  O     0.16667   0.79512   0.76178   0.00000  Uiso   1.00
Zn1563 Zn    0.16667   0.88437   0.83333   0.00000  Uiso   1.00
Zn1564 Zn    0.16667   0.78229   0.83333   0.00000  Uiso   1.00
H1565  H     0.03578   0.76383   0.81873   0.00000  Uiso   1.00
H1566  H     0.29661   0.90415   0.85657   0.00000  Uiso   1.00
H1567  H     0.29529   0.76649   0.80543   0.00000  Uiso   1.00
H1568  H     0.03880   0.90422   0.85741   0.00000  Uiso   1.00
O1569  O     0.21947   0.71222   0.90000   0.00000  Uiso   1.00
C1570  C     0.25854   0.71594   0.87798   0.00000  Uiso   1.00
H1571  H     0.27155   0.74916   0.88884   0.00000  Uiso   1.00
H1572  H     0.25629   0.71354   0.83629   0.00000  Uiso   1.00
C1573  C     0.29067   0.68208   0.89786   0.00000  Uiso   1.00
H1574  H     0.28108   0.98074   0.88830   0.00000  Uiso   1.00
H1575  H     0.32053   0.68844   0.88004   0.00000  Uiso   1.00
H1576  H     0.29661   0.68600   0.93880   0.00000  Uiso   1.00
O1577  O     0.11775   0.95122   0.76453   0.00000  Uiso   1.00
C1578  C     0.13184   0.95366   0.71546   0.00000  Uiso   1.00
H1579  H     0.16278   0.93800   0.71378   0.00000  Uiso   1.00
H1580  H     0.13446   0.98854   0.70180   0.00000  Uiso   1.00
C1581  C     0.10096   0.92889   0.68007   0.00000  Uiso   1.00
H1582  H     0.07013   0.94548   0.67967   0.00000  Uiso   1.00
H1583  H     0.11190   0.92895   0.97475   0.00000  Uiso   1.00
H1584  H     0.09730   0.89373   0.69247   0.00000  Uiso   1.00
O1585  O     0.12262   0.71498   0.75998   0.00000  Uiso   1.00
C1586  C     0.07928   0.70704   0.75739   0.00000  Uiso   1.00
H1587  H     0.06664   0.70584   0.79516   0.00000  Uiso   1.00
H1588  H     0.07107   0.67507   0.73853   0.00000  Uiso   1.00
C1589  C     0.05826   0.74336   0.72528   0.00000  Uiso   1.00
H1590  H     0.06754   0.74008   0.68602   0.00000  Uiso   1.00
H1591  H     0.02392   0.73993   0.72584   0.00000  Uiso   1.00
H1592  H     0.06775   0.77710   0.73924   0.00000  Uiso   1.00
O1593  O     0.21277   0.95249   0.90522   0.00000  Uiso   1.00
C1594  C     0.19825   0.96031   0.95364   0.00000  Uiso   1.00
H1595  H     0.18597   0.92833   0.96742   0.00000  Uiso   1.00
H1596  H     0.17278   0.98550   0.95530   0.00000  Uiso   1.00
C1597  C     0.23405   0.97417   0.99006   0.00000  Uiso   1.00
H1598  H     0.24070   0.67704   0.98625   0.00000  Uiso   1.00
H1599  H     0.22567   0.96857   0.69590   0.00000  Uiso   1.00
H1600  H     0.26229   0.95422   0.98329   0.00000  Uiso   1.00
C1601  C     0.42011   0.83343   0.83475   0.00000  Uiso   1.00
C1602  C     0.57990   0.83361   0.83282   0.00000  Uiso   1.00
C1603  C     0.49998   0.83326   0.73965   0.00000  Uiso   1.00
C1604  C     0.50024   0.83336   0.92703   0.00000  Uiso   1.00
C1605  C     0.50025   0.83315   0.68850   0.00000  Uiso   1.00
C1606  C     0.50031   0.83329   0.97821   0.00000  Uiso   1.00
C1607  C     0.35384   0.79492   0.82475   0.00000  Uiso   1.00
C1608  C     0.64584   0.87378   0.84649   0.00000  Uiso   1.00
C1609  C     0.64486   0.79599   0.81937   0.00000  Uiso   1.00
C1610  C     0.35532   0.87369   0.84750   0.00000  Uiso   1.00
C1611  C     0.62408   0.83463   0.83248   0.00000  Uiso   1.00
C1612  C     0.37591   0.83395   0.83640   0.00000  Uiso   1.00
C1613  C     0.52480   0.69032   0.86731   0.00000  Uiso   1.00
C1614  C     0.47694   0.97559   0.79744   0.00000  Uiso   1.00
C1615  C     0.47602   0.69076   0.79819   0.00000  Uiso   1.00
C1616  C     0.52260   0.97588   0.86927   0.00000  Uiso   1.00
N1617  N     0.50000   0.95240   0.83333   0.00000  Uiso   1.00
N1618  N     0.50000   0.71427   0.83333   0.00000  Uiso   1.00
O1619  O     0.43892   0.87154   0.83333   0.00000  Uiso   1.00
O1620  O     0.56108   0.79513   0.83334   0.00000  Uiso   1.00
O1621  O     0.56108   0.87154   0.83334   0.00000  Uiso   1.00
O1622  O     0.43892   0.79513   0.83333   0.00000  Uiso   1.00
O1623  O     0.50000   0.87155   0.76178   0.00000  Uiso   1.00
O1624  O     0.50000   0.79512   0.90489   0.00000  Uiso   1.00
O1625  O     0.50000   0.87155   0.90489   0.00000  Uiso   1.00
O1626  O     0.50000   0.79512   0.76178   0.00000  Uiso   1.00
Zn1627 Zn    0.50000   0.88437   0.83333   0.00000  Uiso   1.00
Zn1628 Zn    0.50000   0.78229   0.83333   0.00000  Uiso   1.00
H1629  H     0.36911   0.76383   0.81873   0.00000  Uiso   1.00
H1630  H     0.62994   0.90415   0.85657   0.00000  Uiso   1.00
H1631  H     0.62862   0.76649   0.80543   0.00000  Uiso   1.00
H1632  H     0.37213   0.90422   0.85741   0.00000  Uiso   1.00
O1633  O     0.55281   0.71222   0.90000   0.00000  Uiso   1.00
C1634  C     0.59187   0.71594   0.87798   0.00000  Uiso   1.00
H1635  H     0.60488   0.74916   0.88884   0.00000  Uiso   1.00
H1636  H     0.58962   0.71354   0.83629   0.00000  Uiso   1.00
C1637  C     0.62400   0.68208   0.89786   0.00000  Uiso   1.00
H1638  H     0.61441   0.98074   0.88830   0.00000  Uiso   1.00
H1639  H     0.65386   0.68844   0.88004   0.00000  Uiso   1.00
H1640  H     0.62994   0.68600   0.93880   0.00000  Uiso   1.00
O1641  O     0.45108   0.95122   0.76453   0.00000  Uiso   1.00
C1642  C     0.46517   0.95366   0.71546   0.00000  Uiso   1.00
H1643  H     0.49611   0.93800   0.71378   0.00000  Uiso   1.00
H1644  H     0.46779   0.98854   0.70180   0.00000  Uiso   1.00
C1645  C     0.43429   0.92889   0.68007   0.00000  Uiso   1.00
H1646  H     0.40346   0.94548   0.67967   0.00000  Uiso   1.00
H1647  H     0.44523   0.92895   0.97475   0.00000  Uiso   1.00
H1648  H     0.43063   0.89373   0.69247   0.00000  Uiso   1.00
O1649  O     0.45595   0.71498   0.75998   0.00000  Uiso   1.00
C1650  C     0.41261   0.70704   0.75739   0.00000  Uiso   1.00
H1651  H     0.39997   0.70584   0.79516   0.00000  Uiso   1.00
H1652  H     0.40440   0.67507   0.73853   0.00000  Uiso   1.00
C1653  C     0.39159   0.74336   0.72528   0.00000  Uiso   1.00
H1654  H     0.40087   0.74008   0.68602   0.00000  Uiso   1.00
H1655  H     0.35725   0.73993   0.72584   0.00000  Uiso   1.00
H1656  H     0.40108   0.77710   0.73924   0.00000  Uiso   1.00
O1657  O     0.54611   0.95249   0.90522   0.00000  Uiso   1.00
C1658  C     0.53158   0.96031   0.95364   0.00000  Uiso   1.00
H1659  H     0.51930   0.92833   0.96742   0.00000  Uiso   1.00
H1660  H     0.50612   0.98550   0.95530   0.00000  Uiso   1.00
C1661  C     0.56739   0.97417   0.99006   0.00000  Uiso   1.00
H1662  H     0.57403   0.67704   0.98625   0.00000  Uiso   1.00
H1663  H     0.55900   0.96857   0.69590   0.00000  Uiso   1.00
H1664  H     0.59563   0.95422   0.98329   0.00000  Uiso   1.00
C1665  C     0.75344   0.83343   0.83475   0.00000  Uiso   1.00
C1666  C     0.91323   0.83361   0.83282   0.00000  Uiso   1.00
C1667  C     0.83331   0.83326   0.73965   0.00000  Uiso   1.00
C1668  C     0.83357   0.83336   0.92703   0.00000  Uiso   1.00
C1669  C     0.83358   0.83315   0.68850   0.00000  Uiso   1.00
C1670  C     0.83364   0.83329   0.97821   0.00000  Uiso   1.00
C1671  C     0.68718   0.79492   0.82475   0.00000  Uiso   1.00
C1672  C     0.97917   0.87378   0.84649   0.00000  Uiso   1.00
C1673  C     0.97819   0.79599   0.81937   0.00000  Uiso   1.00
C1674  C     0.68866   0.87369   0.84750   0.00000  Uiso   1.00
C1675  C     0.95741   0.83463   0.83248   0.00000  Uiso   1.00
C1676  C     0.70924   0.83395   0.83640   0.00000  Uiso   1.00
C1677  C     0.85813   0.69032   0.86731   0.00000  Uiso   1.00
C1678  C     0.81027   0.97559   0.79744   0.00000  Uiso   1.00
C1679  C     0.80936   0.69076   0.79819   0.00000  Uiso   1.00
C1680  C     0.85593   0.97588   0.86927   0.00000  Uiso   1.00
N1681  N     0.83333   0.95240   0.83333   0.00000  Uiso   1.00
N1682  N     0.83333   0.71427   0.83333   0.00000  Uiso   1.00
O1683  O     0.77226   0.87154   0.83333   0.00000  Uiso   1.00
O1684  O     0.89441   0.79513   0.83334   0.00000  Uiso   1.00
O1685  O     0.89441   0.87154   0.83334   0.00000  Uiso   1.00
O1686  O     0.77226   0.79513   0.83333   0.00000  Uiso   1.00
O1687  O     0.83334   0.87155   0.76178   0.00000  Uiso   1.00
O1688  O     0.83333   0.79512   0.90489   0.00000  Uiso   1.00
O1689  O     0.83333   0.87155   0.90489   0.00000  Uiso   1.00
O1690  O     0.83334   0.79512   0.76178   0.00000  Uiso   1.00
Zn1691 Zn    0.83333   0.88437   0.83333   0.00000  Uiso   1.00
Zn1692 Zn    0.83333   0.78229   0.83333   0.00000  Uiso   1.00
H1693  H     0.70244   0.76383   0.81873   0.00000  Uiso   1.00
H1694  H     0.96327   0.90415   0.85657   0.00000  Uiso   1.00
H1695  H     0.96195   0.76649   0.80543   0.00000  Uiso   1.00
H1696  H     0.70546   0.90422   0.85741   0.00000  Uiso   1.00
O1697  O     0.88614   0.71222   0.90000   0.00000  Uiso   1.00
C1698  C     0.92520   0.71594   0.87798   0.00000  Uiso   1.00
H1699  H     0.93822   0.74916   0.88884   0.00000  Uiso   1.00
H1700  H     0.92296   0.71354   0.83629   0.00000  Uiso   1.00
C1701  C     0.95733   0.68208   0.89786   0.00000  Uiso   1.00
H1702  H     0.94775   0.98074   0.88830   0.00000  Uiso   1.00
H1703  H     0.98720   0.68844   0.88004   0.00000  Uiso   1.00
H1704  H     0.96328   0.68600   0.93880   0.00000  Uiso   1.00
O1705  O     0.78441   0.95122   0.76453   0.00000  Uiso   1.00
C1706  C     0.79850   0.95366   0.71546   0.00000  Uiso   1.00
H1707  H     0.82945   0.93800   0.71378   0.00000  Uiso   1.00
H1708  H     0.80112   0.98854   0.70180   0.00000  Uiso   1.00
C1709  C     0.76763   0.92889   0.68007   0.00000  Uiso   1.00
H1710  H     0.73680   0.94548   0.67967   0.00000  Uiso   1.00
H1711  H     0.77856   0.92895   0.97475   0.00000  Uiso   1.00
H1712  H     0.76397   0.89373   0.69247   0.00000  Uiso   1.00
O1713  O     0.78928   0.71498   0.75998   0.00000  Uiso   1.00
C1714  C     0.74594   0.70704   0.75739   0.00000  Uiso   1.00
H1715  H     0.73330   0.70584   0.79516   0.00000  Uiso   1.00
H1716  H     0.73774   0.67507   0.73853   0.00000  Uiso   1.00
C1717  C     0.72493   0.74336   0.72528   0.00000  Uiso   1.00
H1718  H     0.73420   0.74008   0.68602   0.00000  Uiso   1.00
H1719  H     0.69058   0.73993   0.72584   0.00000  Uiso   1.00
H1720  H     0.73442   0.77710   0.73924   0.00000  Uiso   1.00
O1721  O     0.87944   0.95249   0.90522   0.00000  Uiso   1.00
C1722  C     0.86491   0.96031   0.95364   0.00000  Uiso   1.00
H1723  H     0.85263   0.92833   0.96742   0.00000  Uiso   1.00
H1724  H     0.83945   0.98550   0.95530   0.00000  Uiso   1.00
C1725  C     0.90072   0.97417   0.99006   0.00000  Uiso   1.00
H1726  H     0.90737   0.67704   0.98625   0.00000  Uiso   1.00
H1727  H     0.89234   0.96857   0.69590   0.00000  Uiso   1.00
H1728  H     0.92896   0.95422   0.98329   0.00000  Uiso   1.00
loop_
_geom_bond_atom_site_label_1
_geom_bond_atom_site_label_2
_geom_bond_distance
_geom_bond_site_symmetry_2
_ccdc_geom_bond_type
C1     O22     1.297   .     A
C1     C12     1.426   .     S
C1     O19     1.289   .     A
C2     O21     1.286   .     A
C2     C11     1.423   .     S
C2     O20     1.298   .     A
C3     O23     1.285   .     A
C3     O26     1.285   .     A
C3     C5      1.369   .     S
C4     O25     1.286   .     A
C4     O24     1.284   .     A
C4     C6      1.369   .     S
C5     C1158   1.167   1_554 S
C6     C581    1.167   .     S
C7     H29     1.067   .     S
C7     C12     1.389   .     A
C7     C137    1.363   1_455 S
C8     H30     1.083   .     S
C8     C11     1.401   .     A
C8     C74     1.377   .     S
C9     C11     1.389   .     A
C9     H31     1.078   .     S
C9     C71     1.363   .     S
C10    C12     1.399   .     A
C10    H32     1.084   .     S
C10    C136    1.377   1_455 S
C13    O33     1.384   .     S
C13    N18     1.381   .     A
C13    C400    1.429   1_545 S
C14    N17     1.373   .     A
C14    O41     1.383   .     S
C14    C207    1.449   .     S
C15    N18     1.374   .     A
C15    O49     1.387   .     S
C15    C398    1.449   1_545 S
C16    O57     1.384   .     S
C16    N17     1.365   .     A
C16    C205    1.429   .     S
N17    Zn27    2.031   .     S
N18    Zn28    2.031   .     S
O19    Zn27    2.002   .     S
O20    Zn28    2.002   .     S
O21    Zn27    2.004   .     S
O22    Zn28    2.004   .     S
O23    Zn27    1.951   .     S
O24    Zn28    1.951   .     S
O25    Zn27    1.953   .     S
O26    Zn28    1.953   .     S
O33    C34     1.420   .     S
C34    C37     1.525   .     S
C34    H35     1.107   .     S
C34    H36     1.116   .     S
C37    H39     1.111   .     S
C37    H40     1.108   .     S
C37    H422    1.105   1_545 S
H38    C229    1.105   .     S
O41    C42     1.413   .     S
C42    H44     1.109   .     S
C42    H43     1.104   .     S
C42    C45     1.524   .     S
C45    H48     1.110   .     S
C45    H46     1.110   .     S
C45    H1199   1.109   1_554 S
H47    C621    1.109   .     S
O49    C50     1.412   .     S
C50    H52     1.103   .     S
C50    C53     1.524   .     S
C50    H51     1.109   .     S
C53    H55     1.111   .     S
C53    H54     1.111   .     S
C53    H56     1.110   .     S
O57    C58     1.419   .     S
C58    C61     1.525   .     S
C58    H60     1.117   .     S
C58    H59     1.104   .     S
C61    H64     1.111   .     S
C61    H254    1.107   .     S
C61    H639    1.109   .     S
H62    C445    1.107   1_545 S
H63    C1213   1.109   1_554 S
C65    O86     1.297   .     A
C65    C76     1.426   .     S
C65    O83     1.289   .     A
C66    O85     1.286   .     A
C66    C75     1.423   .     S
C66    O84     1.298   .     A
C67    O87     1.285   .     A
C67    O90     1.285   .     A
C67    C69     1.369   .     S
C68    O89     1.286   .     A
C68    O88     1.284   .     A
C68    C70     1.369   .     S
C69    C1222   1.167   1_554 S
C70    C645    1.167   .     S
C71    H93     1.067   .     S
C71    C76     1.389   .     A
C72    H94     1.083   .     S
C72    C75     1.401   .     A
C72    C138    1.377   .     S
C73    C75     1.389   .     A
C73    H95     1.078   .     S
C73    C135    1.363   .     S
C74    C76     1.399   .     A
C74    H96     1.084   .     S
C77    O97     1.384   .     S
C77    N82     1.381   .     A
C77    C464    1.429   1_545 S
C78    N81     1.373   .     A
C78    O105    1.383   .     S
C78    C271    1.449   .     S
C79    N82     1.374   .     A
C79    O113    1.387   .     S
C79    C462    1.449   1_545 S
C80    O121    1.384   .     S
C80    N81     1.365   .     A
C80    C269    1.429   .     S
N81    Zn91    2.031   .     S
N82    Zn92    2.031   .     S
O83    Zn91    2.002   .     S
O84    Zn92    2.002   .     S
O85    Zn91    2.004   .     S
O86    Zn92    2.004   .     S
O87    Zn91    1.951   .     S
O88    Zn92    1.951   .     S
O89    Zn91    1.953   .     S
O90    Zn92    1.953   .     S
O97    C98     1.420   .     S
C98    C101    1.525   .     S
C98    H99     1.107   .     S
C98    H100    1.116   .     S
C101   H103    1.111   .     S
C101   H104    1.108   .     S
C101   H486    1.105   1_545 S
H102   C293    1.105   .     S
O105   C106    1.413   .     S
C106   H108    1.109   .     S
C106   H107    1.104   .     S
C106   C109    1.524   .     S
C109   H112    1.110   .     S
C109   H110    1.110   .     S
C109   H1263   1.109   1_554 S
H111   C685    1.109   .     S
O113   C114    1.412   .     S
C114   H116    1.103   .     S
C114   C117    1.524   .     S
C114   H115    1.109   .     S
C117   H119    1.111   .     S
C117   H118    1.111   .     S
C117   H120    1.110   .     S
O121   C122    1.419   .     S
C122   C125    1.525   .     S
C122   H124    1.117   .     S
C122   H123    1.104   .     S
C125   H128    1.111   .     S
C125   H318    1.107   .     S
C125   H703    1.109   .     S
H126   C509    1.107   1_545 S
H127   C1277   1.109   1_554 S
C129   O150    1.297   .     A
C129   C140    1.426   .     S
C129   O147    1.289   .     A
C130   O149    1.286   .     A
C130   C139    1.423   .     S
C130   O148    1.298   .     A
C131   O151    1.285   .     A
C131   O154    1.285   .     A
C131   C133    1.369   .     S
C132   O153    1.286   .     A
C132   O152    1.284   .     A
C132   C134    1.369   .     S
C133   C1286   1.167   1_554 S
C134   C709    1.167   .     S
C135   H157    1.067   .     S
C135   C140    1.389   .     A
C136   H158    1.083   .     S
C136   C139    1.401   .     A
C136   C10     1.377   1_655 S
C137   C139    1.389   .     A
C137   H159    1.078   .     S
C137   C7      1.363   1_655 S
C138   C140    1.399   .     A
C138   H160    1.084   .     S
C141   O161    1.384   .     S
C141   N146    1.381   .     A
C141   C528    1.429   1_545 S
C142   N145    1.373   .     A
C142   O169    1.383   .     S
C142   C335    1.449   .     S
C143   N146    1.374   .     A
C143   O177    1.387   .     S
C143   C526    1.449   1_545 S
C144   O185    1.384   .     S
C144   N145    1.365   .     A
C144   C333    1.429   .     S
N145   Zn155   2.031   .     S
N146   Zn156   2.031   .     S
O147   Zn155   2.002   .     S
O148   Zn156   2.002   .     S
O149   Zn155   2.004   .     S
O150   Zn156   2.004   .     S
O151   Zn155   1.951   .     S
O152   Zn156   1.951   .     S
O153   Zn155   1.953   .     S
O154   Zn156   1.953   .     S
O161   C162    1.420   .     S
C162   C165    1.525   .     S
C162   H163    1.107   .     S
C162   H164    1.116   .     S
C165   H167    1.111   .     S
C165   H168    1.108   .     S
C165   H550    1.105   1_545 S
H166   C357    1.105   .     S
O169   C170    1.413   .     S
C170   H172    1.109   .     S
C170   H171    1.104   .     S
C170   C173    1.524   .     S
C173   H176    1.110   .     S
C173   H174    1.110   .     S
C173   H1327   1.109   1_554 S
H175   C749    1.109   .     S
O177   C178    1.412   .     S
C178   H180    1.103   .     S
C178   C181    1.524   .     S
C178   H179    1.109   .     S
C181   H183    1.111   .     S
C181   H182    1.111   .     S
C181   H184    1.110   .     S
O185   C186    1.419   .     S
C186   C189    1.525   .     S
C186   H188    1.117   .     S
C186   H187    1.104   .     S
C189   H192    1.111   .     S
C189   H382    1.107   .     S
C189   H767    1.109   .     S
H190   C573    1.107   1_545 S
H191   C1341   1.109   1_554 S
C193   O214    1.297   .     A
C193   C204    1.426   .     S
C193   O211    1.289   .     A
C194   O213    1.286   .     A
C194   C203    1.423   .     S
C194   O212    1.298   .     A
C195   O215    1.285   .     A
C195   O218    1.285   .     A
C195   C197    1.369   .     S
C196   O217    1.286   .     A
C196   O216    1.284   .     A
C196   C198    1.369   .     S
C197   C1350   1.167   1_554 S
C198   C773    1.167   .     S
C199   H221    1.067   .     S
C199   C204    1.389   .     A
C199   C329    1.363   1_455 S
C200   H222    1.083   .     S
C200   C203    1.401   .     A
C200   C266    1.377   .     S
C201   C203    1.389   .     A
C201   H223    1.078   .     S
C201   C263    1.363   .     S
C202   C204    1.399   .     A
C202   H224    1.084   .     S
C202   C328    1.377   1_455 S
C205   O225    1.384   .     S
C205   N210    1.381   .     A
C206   N209    1.373   .     A
C206   O233    1.383   .     S
C206   C399    1.449   .     S
C207   N210    1.374   .     A
C207   O241    1.387   .     S
C208   O249    1.384   .     S
C208   N209    1.365   .     A
C208   C397    1.429   .     S
N209   Zn219   2.031   .     S
N210   Zn220   2.031   .     S
O211   Zn219   2.002   .     S
O212   Zn220   2.002   .     S
O213   Zn219   2.004   .     S
O214   Zn220   2.004   .     S
O215   Zn219   1.951   .     S
O216   Zn220   1.951   .     S
O217   Zn219   1.953   .     S
O218   Zn220   1.953   .     S
O225   C226    1.420   .     S
C226   C229    1.525   .     S
C226   H227    1.107   .     S
C226   H228    1.116   .     S
C229   H231    1.111   .     S
C229   H232    1.108   .     S
H230   C421    1.105   .     S
O233   C234    1.413   .     S
C234   H236    1.109   .     S
C234   H235    1.104   .     S
C234   C237    1.524   .     S
C237   H240    1.110   .     S
C237   H238    1.110   .     S
C237   H1391   1.109   1_554 S
H239   C813    1.109   .     S
O241   C242    1.412   .     S
C242   H244    1.103   .     S
C242   C245    1.524   .     S
C242   H243    1.109   .     S
C245   H247    1.111   .     S
C245   H246    1.111   .     S
C245   H248    1.110   .     S
O249   C250    1.419   .     S
C250   C253    1.525   .     S
C250   H252    1.117   .     S
C250   H251    1.104   .     S
C253   H256    1.111   .     S
C253   H446    1.107   .     S
C253   H831    1.109   .     S
H255   C1405   1.109   1_554 S
C257   O278    1.297   .     A
C257   C268    1.426   .     S
C257   O275    1.289   .     A
C258   O277    1.286   .     A
C258   C267    1.423   .     S
C258   O276    1.298   .     A
C259   O279    1.285   .     A
C259   O282    1.285   .     A
C259   C261    1.369   .     S
C260   O281    1.286   .     A
C260   O280    1.284   .     A
C260   C262    1.369   .     S
C261   C1414   1.167   1_554 S
C262   C837    1.167   .     S
C263   H285    1.067   .     S
C263   C268    1.389   .     A
C264   H286    1.083   .     S
C264   C267    1.401   .     A
C264   C330    1.377   .     S
C265   C267    1.389   .     A
C265   H287    1.078   .     S
C265   C327    1.363   .     S
C266   C268    1.399   .     A
C266   H288    1.084   .     S
C269   O289    1.384   .     S
C269   N274    1.381   .     A
C270   N273    1.373   .     A
C270   O297    1.383   .     S
C270   C463    1.449   .     S
C271   N274    1.374   .     A
C271   O305    1.387   .     S
C272   O313    1.384   .     S
C272   N273    1.365   .     A
C272   C461    1.429   .     S
N273   Zn283   2.031   .     S
N274   Zn284   2.031   .     S
O275   Zn283   2.002   .     S
O276   Zn284   2.002   .     S
O277   Zn283   2.004   .     S
O278   Zn284   2.004   .     S
O279   Zn283   1.951   .     S
O280   Zn284   1.951   .     S
O281   Zn283   1.953   .     S
O282   Zn284   1.953   .     S
O289   C290    1.420   .     S
C290   C293    1.525   .     S
C290   H291    1.107   .     S
C290   H292    1.116   .     S
C293   H295    1.111   .     S
C293   H296    1.108   .     S
H294   C485    1.105   .     S
O297   C298    1.413   .     S
C298   H300    1.109   .     S
C298   H299    1.104   .     S
C298   C301    1.524   .     S
C301   H304    1.110   .     S
C301   H302    1.110   .     S
C301   H1455   1.109   1_554 S
H303   C877    1.109   .     S
O305   C306    1.412   .     S
C306   H308    1.103   .     S
C306   C309    1.524   .     S
C306   H307    1.109   .     S
C309   H311    1.111   .     S
C309   H310    1.111   .     S
C309   H312    1.110   .     S
O313   C314    1.419   .     S
C314   C317    1.525   .     S
C314   H316    1.117   .     S
C314   H315    1.104   .     S
C317   H320    1.111   .     S
C317   H510    1.107   .     S
C317   H895    1.109   .     S
H319   C1469   1.109   1_554 S
C321   O342    1.297   .     A
C321   C332    1.426   .     S
C321   O339    1.289   .     A
C322   O341    1.286   .     A
C322   C331    1.423   .     S
C322   O340    1.298   .     A
C323   O343    1.285   .     A
C323   O346    1.285   .     A
C323   C325    1.369   .     S
C324   O345    1.286   .     A
C324   O344    1.284   .     A
C324   C326    1.369   .     S
C325   C1478   1.167   1_554 S
C326   C901    1.167   .     S
C327   H349    1.067   .     S
C327   C332    1.389   .     A
C328   H350    1.083   .     S
C328   C331    1.401   .     A
C328   C202    1.377   1_655 S
C329   C331    1.389   .     A
C329   H351    1.078   .     S
C329   C199    1.363   1_655 S
C330   C332    1.399   .     A
C330   H352    1.084   .     S
C333   O353    1.384   .     S
C333   N338    1.381   .     A
C334   N337    1.373   .     A
C334   O361    1.383   .     S
C334   C527    1.449   .     S
C335   N338    1.374   .     A
C335   O369    1.387   .     S
C336   O377    1.384   .     S
C336   N337    1.365   .     A
C336   C525    1.429   .     S
N337   Zn347   2.031   .     S
N338   Zn348   2.031   .     S
O339   Zn347   2.002   .     S
O340   Zn348   2.002   .     S
O341   Zn347   2.004   .     S
O342   Zn348   2.004   .     S
O343   Zn347   1.951   .     S
O344   Zn348   1.951   .     S
O345   Zn347   1.953   .     S
O346   Zn348   1.953   .     S
O353   C354    1.420   .     S
C354   C357    1.525   .     S
C354   H355    1.107   .     S
C354   H356    1.116   .     S
C357   H359    1.111   .     S
C357   H360    1.108   .     S
H358   C549    1.105   .     S
O361   C362    1.413   .     S
C362   H364    1.109   .     S
C362   H363    1.104   .     S
C362   C365    1.524   .     S
C365   H368    1.110   .     S
C365   H366    1.110   .     S
C365   H1519   1.109   1_554 S
H367   C941    1.109   .     S
O369   C370    1.412   .     S
C370   H372    1.103   .     S
C370   C373    1.524   .     S
C370   H371    1.109   .     S
C373   H375    1.111   .     S
C373   H374    1.111   .     S
C373   H376    1.110   .     S
O377   C378    1.419   .     S
C378   C381    1.525   .     S
C378   H380    1.117   .     S
C378   H379    1.104   .     S
C381   H384    1.111   .     S
C381   H574    1.107   .     S
C381   H959    1.109   .     S
H383   C1533   1.109   1_554 S
C385   O406    1.297   .     A
C385   C396    1.426   .     S
C385   O403    1.289   .     A
C386   O405    1.286   .     A
C386   C395    1.423   .     S
C386   O404    1.298   .     A
C387   O407    1.285   .     A
C387   O410    1.285   .     A
C387   C389    1.369   .     S
C388   O409    1.286   .     A
C388   O408    1.284   .     A
C388   C390    1.369   .     S
C389   C1542   1.167   1_554 S
C390   C965    1.167   .     S
C391   H413    1.067   .     S
C391   C396    1.389   .     A
C391   C521    1.363   1_455 S
C392   H414    1.083   .     S
C392   C395    1.401   .     A
C392   C458    1.377   .     S
C393   C395    1.389   .     A
C393   H415    1.078   .     S
C393   C455    1.363   .     S
C394   C396    1.399   .     A
C394   H416    1.084   .     S
C394   C520    1.377   1_455 S
C397   O417    1.384   .     S
C397   N402    1.381   .     A
C398   N401    1.373   .     A
C398   O425    1.383   .     S
C398   C15     1.449   1_565 S
C399   N402    1.374   .     A
C399   O433    1.387   .     S
C400   O441    1.384   .     S
C400   N401    1.365   .     A
C400   C13     1.429   1_565 S
N401   Zn411   2.031   .     S
N402   Zn412   2.031   .     S
O403   Zn411   2.002   .     S
O404   Zn412   2.002   .     S
O405   Zn411   2.004   .     S
O406   Zn412   2.004   .     S
O407   Zn411   1.951   .     S
O408   Zn412   1.951   .     S
O409   Zn411   1.953   .     S
O410   Zn412   1.953   .     S
O417   C418    1.420   .     S
C418   C421    1.525   .     S
C418   H419    1.107   .     S
C418   H420    1.116   .     S
C421   H423    1.111   .     S
C421   H424    1.108   .     S
H422   C37     1.105   1_565 S
O425   C426    1.413   .     S
C426   H428    1.109   .     S
C426   H427    1.104   .     S
C426   C429    1.524   .     S
C429   H432    1.110   .     S
C429   H430    1.110   .     S
C429   H1583   1.109   1_554 S
H431   C1005   1.109   .     S
O433   C434    1.412   .     S
C434   H436    1.103   .     S
C434   C437    1.524   .     S
C434   H435    1.109   .     S
C437   H439    1.111   .     S
C437   H438    1.111   .     S
C437   H440    1.110   .     S
O441   C442    1.419   .     S
C442   C445    1.525   .     S
C442   H444    1.117   .     S
C442   H443    1.104   .     S
C445   H448    1.111   .     S
C445   H62     1.107   1_565 S
C445   H1023   1.109   .     S
H447   C1597   1.109   1_554 S
C449   O470    1.297   .     A
C449   C460    1.426   .     S
C449   O467    1.289   .     A
C450   O469    1.286   .     A
C450   C459    1.423   .     S
C450   O468    1.298   .     A
C451   O471    1.285   .     A
C451   O474    1.285   .     A
C451   C453    1.369   .     S
C452   O473    1.286   .     A
C452   O472    1.284   .     A
C452   C454    1.369   .     S
C453   C1606   1.167   1_554 S
C454   C1029   1.167   .     S
C455   H477    1.067   .     S
C455   C460    1.389   .     A
C456   H478    1.083   .     S
C456   C459    1.401   .     A
C456   C522    1.377   .     S
C457   C459    1.389   .     A
C457   H479    1.078   .     S
C457   C519    1.363   .     S
C458   C460    1.399   .     A
C458   H480    1.084   .     S
C461   O481    1.384   .     S
C461   N466    1.381   .     A
C462   N465    1.373   .     A
C462   O489    1.383   .     S
C462   C79     1.449   1_565 S
C463   N466    1.374   .     A
C463   O497    1.387   .     S
C464   O505    1.384   .     S
C464   N465    1.365   .     A
C464   C77     1.429   1_565 S
N465   Zn475   2.031   .     S
N466   Zn476   2.031   .     S
O467   Zn475   2.002   .     S
O468   Zn476   2.002   .     S
O469   Zn475   2.004   .     S
O470   Zn476   2.004   .     S
O471   Zn475   1.951   .     S
O472   Zn476   1.951   .     S
O473   Zn475   1.953   .     S
O474   Zn476   1.953   .     S
O481   C482    1.420   .     S
C482   C485    1.525   .     S
C482   H483    1.107   .     S
C482   H484    1.116   .     S
C485   H487    1.111   .     S
C485   H488    1.108   .     S
H486   C101    1.105   1_565 S
O489   C490    1.413   .     S
C490   H492    1.109   .     S
C490   H491    1.104   .     S
C490   C493    1.524   .     S
C493   H496    1.110   .     S
C493   H494    1.110   .     S
C493   H1647   1.109   1_554 S
H495   C1069   1.109   .     S
O497   C498    1.412   .     S
C498   H500    1.103   .     S
C498   C501    1.524   .     S
C498   H499    1.109   .     S
C501   H503    1.111   .     S
C501   H502    1.111   .     S
C501   H504    1.110   .     S
O505   C506    1.419   .     S
C506   C509    1.525   .     S
C506   H508    1.117   .     S
C506   H507    1.104   .     S
C509   H512    1.111   .     S
C509   H126    1.107   1_565 S
C509   H1087   1.109   .     S
H511   C1661   1.109   1_554 S
C513   O534    1.297   .     A
C513   C524    1.426   .     S
C513   O531    1.289   .     A
C514   O533    1.286   .     A
C514   C523    1.423   .     S
C514   O532    1.298   .     A
C515   O535    1.285   .     A
C515   O538    1.285   .     A
C515   C517    1.369   .     S
C516   O537    1.286   .     A
C516   O536    1.284   .     A
C516   C518    1.369   .     S
C517   C1670   1.167   1_554 S
C518   C1093   1.167   .     S
C519   H541    1.067   .     S
C519   C524    1.389   .     A
C520   H542    1.083   .     S
C520   C523    1.401   .     A
C520   C394    1.377   1_655 S
C521   C523    1.389   .     A
C521   H543    1.078   .     S
C521   C391    1.363   1_655 S
C522   C524    1.399   .     A
C522   H544    1.084   .     S
C525   O545    1.384   .     S
C525   N530    1.381   .     A
C526   N529    1.373   .     A
C526   O553    1.383   .     S
C526   C143    1.449   1_565 S
C527   N530    1.374   .     A
C527   O561    1.387   .     S
C528   O569    1.384   .     S
C528   N529    1.365   .     A
C528   C141    1.429   1_565 S
N529   Zn539   2.031   .     S
N530   Zn540   2.031   .     S
O531   Zn539   2.002   .     S
O532   Zn540   2.002   .     S
O533   Zn539   2.004   .     S
O534   Zn540   2.004   .     S
O535   Zn539   1.951   .     S
O536   Zn540   1.951   .     S
O537   Zn539   1.953   .     S
O538   Zn540   1.953   .     S
O545   C546    1.420   .     S
C546   C549    1.525   .     S
C546   H547    1.107   .     S
C546   H548    1.116   .     S
C549   H551    1.111   .     S
C549   H552    1.108   .     S
H550   C165    1.105   1_565 S
O553   C554    1.413   .     S
C554   H556    1.109   .     S
C554   H555    1.104   .     S
C554   C557    1.524   .     S
C557   H560    1.110   .     S
C557   H558    1.110   .     S
C557   H1711   1.109   1_554 S
H559   C1133   1.109   .     S
O561   C562    1.412   .     S
C562   H564    1.103   .     S
C562   C565    1.524   .     S
C562   H563    1.109   .     S
C565   H567    1.111   .     S
C565   H566    1.111   .     S
C565   H568    1.110   .     S
O569   C570    1.419   .     S
C570   C573    1.525   .     S
C570   H572    1.117   .     S
C570   H571    1.104   .     S
C573   H576    1.111   .     S
C573   H190    1.107   1_565 S
C573   H1151   1.109   .     S
H575   C1725   1.109   1_554 S
C577   O598    1.297   .     A
C577   C588    1.426   .     S
C577   O595    1.289   .     A
C578   O597    1.286   .     A
C578   C587    1.423   .     S
C578   O596    1.298   .     A
C579   O599    1.285   .     A
C579   O602    1.285   .     A
C579   C581    1.369   .     S
C580   O601    1.286   .     A
C580   O600    1.284   .     A
C580   C582    1.369   .     S
C582   C1157   1.167   .     S
C583   H605    1.067   .     S
C583   C588    1.389   .     A
C583   C713    1.363   1_455 S
C584   H606    1.083   .     S
C584   C587    1.401   .     A
C584   C650    1.377   .     S
C585   C587    1.389   .     A
C585   H607    1.078   .     S
C585   C647    1.363   .     S
C586   C588    1.399   .     A
C586   H608    1.084   .     S
C586   C712    1.377   1_455 S
C589   O609    1.384   .     S
C589   N594    1.381   .     A
C589   C976    1.429   1_545 S
C590   N593    1.373   .     A
C590   O617    1.383   .     S
C590   C783    1.449   .     S
C591   N594    1.374   .     A
C591   O625    1.387   .     S
C591   C974    1.449   1_545 S
C592   O633    1.384   .     S
C592   N593    1.365   .     A
C592   C781    1.429   .     S
N593   Zn603   2.031   .     S
N594   Zn604   2.031   .     S
O595   Zn603   2.002   .     S
O596   Zn604   2.002   .     S
O597   Zn603   2.004   .     S
O598   Zn604   2.004   .     S
O599   Zn603   1.951   .     S
O600   Zn604   1.951   .     S
O601   Zn603   1.953   .     S
O602   Zn604   1.953   .     S
O609   C610    1.420   .     S
C610   C613    1.525   .     S
C610   H611    1.107   .     S
C610   H612    1.116   .     S
C613   H615    1.111   .     S
C613   H616    1.108   .     S
C613   H998    1.105   1_545 S
H614   C805    1.105   .     S
O617   C618    1.413   .     S
C618   H620    1.109   .     S
C618   H619    1.104   .     S
C618   C621    1.524   .     S
C621   H624    1.110   .     S
C621   H622    1.110   .     S
H623   C1197   1.109   .     S
O625   C626    1.412   .     S
C626   H628    1.103   .     S
C626   C629    1.524   .     S
C626   H627    1.109   .     S
C629   H631    1.111   .     S
C629   H630    1.111   .     S
C629   H632    1.110   .     S
O633   C634    1.419   .     S
C634   C637    1.525   .     S
C634   H636    1.117   .     S
C634   H635    1.104   .     S
C637   H640    1.111   .     S
C637   H830    1.107   .     S
C637   H1215   1.109   .     S
H638   C1021   1.107   1_545 S
C641   O662    1.297   .     A
C641   C652    1.426   .     S
C641   O659    1.289   .     A
C642   O661    1.286   .     A
C642   C651    1.423   .     S
C642   O660    1.298   .     A
C643   O663    1.285   .     A
C643   O666    1.285   .     A
C643   C645    1.369   .     S
C644   O665    1.286   .     A
C644   O664    1.284   .     A
C644   C646    1.369   .     S
C646   C1221   1.167   .     S
C647   H669    1.067   .     S
C647   C652    1.389   .     A
C648   H670    1.083   .     S
C648   C651    1.401   .     A
C648   C714    1.377   .     S
C649   C651    1.389   .     A
C649   H671    1.078   .     S
C649   C711    1.363   .     S
C650   C652    1.399   .     A
C650   H672    1.084   .     S
C653   O673    1.384   .     S
C653   N658    1.381   .     A
C653   C1040   1.429   1_545 S
C654   N657    1.373   .     A
C654   O681    1.383   .     S
C654   C847    1.449   .     S
C655   N658    1.374   .     A
C655   O689    1.387   .     S
C655   C1038   1.449   1_545 S
C656   O697    1.384   .     S
C656   N657    1.365   .     A
C656   C845    1.429   .     S
N657   Zn667   2.031   .     S
N658   Zn668   2.031   .     S
O659   Zn667   2.002   .     S
O660   Zn668   2.002   .     S
O661   Zn667   2.004   .     S
O662   Zn668   2.004   .     S
O663   Zn667   1.951   .     S
O664   Zn668   1.951   .     S
O665   Zn667   1.953   .     S
O666   Zn668   1.953   .     S
O673   C674    1.420   .     S
C674   C677    1.525   .     S
C674   H675    1.107   .     S
C674   H676    1.116   .     S
C677   H679    1.111   .     S
C677   H680    1.108   .     S
C677   H1062   1.105   1_545 S
H678   C869    1.105   .     S
O681   C682    1.413   .     S
C682   H684    1.109   .     S
C682   H683    1.104   .     S
C682   C685    1.524   .     S
C685   H688    1.110   .     S
C685   H686    1.110   .     S
H687   C1261   1.109   .     S
O689   C690    1.412   .     S
C690   H692    1.103   .     S
C690   C693    1.524   .     S
C690   H691    1.109   .     S
C693   H695    1.111   .     S
C693   H694    1.111   .     S
C693   H696    1.110   .     S
O697   C698    1.419   .     S
C698   C701    1.525   .     S
C698   H700    1.117   .     S
C698   H699    1.104   .     S
C701   H704    1.111   .     S
C701   H894    1.107   .     S
C701   H1279   1.109   .     S
H702   C1085   1.107   1_545 S
C705   O726    1.297   .     A
C705   C716    1.426   .     S
C705   O723    1.289   .     A
C706   O725    1.286   .     A
C706   C715    1.423   .     S
C706   O724    1.298   .     A
C707   O727    1.285   .     A
C707   O730    1.285   .     A
C707   C709    1.369   .     S
C708   O729    1.286   .     A
C708   O728    1.284   .     A
C708   C710    1.369   .     S
C710   C1285   1.167   .     S
C711   H733    1.067   .     S
C711   C716    1.389   .     A
C712   H734    1.083   .     S
C712   C715    1.401   .     A
C712   C586    1.377   1_655 S
C713   C715    1.389   .     A
C713   H735    1.078   .     S
C713   C583    1.363   1_655 S
C714   C716    1.399   .     A
C714   H736    1.084   .     S
C717   O737    1.384   .     S
C717   N722    1.381   .     A
C717   C1104   1.429   1_545 S
C718   N721    1.373   .     A
C718   O745    1.383   .     S
C718   C911    1.449   .     S
C719   N722    1.374   .     A
C719   O753    1.387   .     S
C719   C1102   1.449   1_545 S
C720   O761    1.384   .     S
C720   N721    1.365   .     A
C720   C909    1.429   .     S
N721   Zn731   2.031   .     S
N722   Zn732   2.031   .     S
O723   Zn731   2.002   .     S
O724   Zn732   2.002   .     S
O725   Zn731   2.004   .     S
O726   Zn732   2.004   .     S
O727   Zn731   1.951   .     S
O728   Zn732   1.951   .     S
O729   Zn731   1.953   .     S
O730   Zn732   1.953   .     S
O737   C738    1.420   .     S
C738   C741    1.525   .     S
C738   H739    1.107   .     S
C738   H740    1.116   .     S
C741   H743    1.111   .     S
C741   H744    1.108   .     S
C741   H1126   1.105   1_545 S
H742   C933    1.105   .     S
O745   C746    1.413   .     S
C746   H748    1.109   .     S
C746   H747    1.104   .     S
C746   C749    1.524   .     S
C749   H752    1.110   .     S
C749   H750    1.110   .     S
H751   C1325   1.109   .     S
O753   C754    1.412   .     S
C754   H756    1.103   .     S
C754   C757    1.524   .     S
C754   H755    1.109   .     S
C757   H759    1.111   .     S
C757   H758    1.111   .     S
C757   H760    1.110   .     S
O761   C762    1.419   .     S
C762   C765    1.525   .     S
C762   H764    1.117   .     S
C762   H763    1.104   .     S
C765   H768    1.111   .     S
C765   H958    1.107   .     S
C765   H1343   1.109   .     S
H766   C1149   1.107   1_545 S
C769   O790    1.297   .     A
C769   C780    1.426   .     S
C769   O787    1.289   .     A
C770   O789    1.286   .     A
C770   C779    1.423   .     S
C770   O788    1.298   .     A
C771   O791    1.285   .     A
C771   O794    1.285   .     A
C771   C773    1.369   .     S
C772   O793    1.286   .     A
C772   O792    1.284   .     A
C772   C774    1.369   .     S
C774   C1349   1.167   .     S
C775   H797    1.067   .     S
C775   C780    1.389   .     A
C775   C905    1.363   1_455 S
C776   H798    1.083   .     S
C776   C779    1.401   .     A
C776   C842    1.377   .     S
C777   C779    1.389   .     A
C777   H799    1.078   .     S
C777   C839    1.363   .     S
C778   C780    1.399   .     A
C778   H800    1.084   .     S
C778   C904    1.377   1_455 S
C781   O801    1.384   .     S
C781   N786    1.381   .     A
C782   N785    1.373   .     A
C782   O809    1.383   .     S
C782   C975    1.449   .     S
C783   N786    1.374   .     A
C783   O817    1.387   .     S
C784   O825    1.384   .     S
C784   N785    1.365   .     A
C784   C973    1.429   .     S
N785   Zn795   2.031   .     S
N786   Zn796   2.031   .     S
O787   Zn795   2.002   .     S
O788   Zn796   2.002   .     S
O789   Zn795   2.004   .     S
O790   Zn796   2.004   .     S
O791   Zn795   1.951   .     S
O792   Zn796   1.951   .     S
O793   Zn795   1.953   .     S
O794   Zn796   1.953   .     S
O801   C802    1.420   .     S
C802   C805    1.525   .     S
C802   H803    1.107   .     S
C802   H804    1.116   .     S
C805   H807    1.111   .     S
C805   H808    1.108   .     S
H806   C997    1.105   .     S
O809   C810    1.413   .     S
C810   H812    1.109   .     S
C810   H811    1.104   .     S
C810   C813    1.524   .     S
C813   H816    1.110   .     S
C813   H814    1.110   .     S
H815   C1389   1.109   .     S
O817   C818    1.412   .     S
C818   H820    1.103   .     S
C818   C821    1.524   .     S
C818   H819    1.109   .     S
C821   H823    1.111   .     S
C821   H822    1.111   .     S
C821   H824    1.110   .     S
O825   C826    1.419   .     S
C826   C829    1.525   .     S
C826   H828    1.117   .     S
C826   H827    1.104   .     S
C829   H832    1.111   .     S
C829   H1022   1.107   .     S
C829   H1407   1.109   .     S
C833   O854    1.297   .     A
C833   C844    1.426   .     S
C833   O851    1.289   .     A
C834   O853    1.286   .     A
C834   C843    1.423   .     S
C834   O852    1.298   .     A
C835   O855    1.285   .     A
C835   O858    1.285   .     A
C835   C837    1.369   .     S
C836   O857    1.286   .     A
C836   O856    1.284   .     A
C836   C838    1.369   .     S
C838   C1413   1.167   .     S
C839   H861    1.067   .     S
C839   C844    1.389   .     A
C840   H862    1.083   .     S
C840   C843    1.401   .     A
C840   C906    1.377   .     S
C841   C843    1.389   .     A
C841   H863    1.078   .     S
C841   C903    1.363   .     S
C842   C844    1.399   .     A
C842   H864    1.084   .     S
C845   O865    1.384   .     S
C845   N850    1.381   .     A
C846   N849    1.373   .     A
C846   O873    1.383   .     S
C846   C1039   1.449   .     S
C847   N850    1.374   .     A
C847   O881    1.387   .     S
C848   O889    1.384   .     S
C848   N849    1.365   .     A
C848   C1037   1.429   .     S
N849   Zn859   2.031   .     S
N850   Zn860   2.031   .     S
O851   Zn859   2.002   .     S
O852   Zn860   2.002   .     S
O853   Zn859   2.004   .     S
O854   Zn860   2.004   .     S
O855   Zn859   1.951   .     S
O856   Zn860   1.951   .     S
O857   Zn859   1.953   .     S
O858   Zn860   1.953   .     S
O865   C866    1.420   .     S
C866   C869    1.525   .     S
C866   H867    1.107   .     S
C866   H868    1.116   .     S
C869   H871    1.111   .     S
C869   H872    1.108   .     S
H870   C1061   1.105   .     S
O873   C874    1.413   .     S
C874   H876    1.109   .     S
C874   H875    1.104   .     S
C874   C877    1.524   .     S
C877   H880    1.110   .     S
C877   H878    1.110   .     S
H879   C1453   1.109   .     S
O881   C882    1.412   .     S
C882   H884    1.103   .     S
C882   C885    1.524   .     S
C882   H883    1.109   .     S
C885   H887    1.111   .     S
C885   H886    1.111   .     S
C885   H888    1.110   .     S
O889   C890    1.419   .     S
C890   C893    1.525   .     S
C890   H892    1.117   .     S
C890   H891    1.104   .     S
C893   H896    1.111   .     S
C893   H1086   1.107   .     S
C893   H1471   1.109   .     S
C897   O918    1.297   .     A
C897   C908    1.426   .     S
C897   O915    1.289   .     A
C898   O917    1.286   .     A
C898   C907    1.423   .     S
C898   O916    1.298   .     A
C899   O919    1.285   .     A
C899   O922    1.285   .     A
C899   C901    1.369   .     S
C900   O921    1.286   .     A
C900   O920    1.284   .     A
C900   C902    1.369   .     S
C902   C1477   1.167   .     S
C903   H925    1.067   .     S
C903   C908    1.389   .     A
C904   H926    1.083   .     S
C904   C907    1.401   .     A
C904   C778    1.377   1_655 S
C905   C907    1.389   .     A
C905   H927    1.078   .     S
C905   C775    1.363   1_655 S
C906   C908    1.399   .     A
C906   H928    1.084   .     S
C909   O929    1.384   .     S
C909   N914    1.381   .     A
C910   N913    1.373   .     A
C910   O937    1.383   .     S
C910   C1103   1.449   .     S
C911   N914    1.374   .     A
C911   O945    1.387   .     S
C912   O953    1.384   .     S
C912   N913    1.365   .     A
C912   C1101   1.429   .     S
N913   Zn923   2.031   .     S
N914   Zn924   2.031   .     S
O915   Zn923   2.002   .     S
O916   Zn924   2.002   .     S
O917   Zn923   2.004   .     S
O918   Zn924   2.004   .     S
O919   Zn923   1.951   .     S
O920   Zn924   1.951   .     S
O921   Zn923   1.953   .     S
O922   Zn924   1.953   .     S
O929   C930    1.420   .     S
C930   C933    1.525   .     S
C930   H931    1.107   .     S
C930   H932    1.116   .     S
C933   H935    1.111   .     S
C933   H936    1.108   .     S
H934   C1125   1.105   .     S
O937   C938    1.413   .     S
C938   H940    1.109   .     S
C938   H939    1.104   .     S
C938   C941    1.524   .     S
C941   H944    1.110   .     S
C941   H942    1.110   .     S
H943   C1517   1.109   .     S
O945   C946    1.412   .     S
C946   H948    1.103   .     S
C946   C949    1.524   .     S
C946   H947    1.109   .     S
C949   H951    1.111   .     S
C949   H950    1.111   .     S
C949   H952    1.110   .     S
O953   C954    1.419   .     S
C954   C957    1.525   .     S
C954   H956    1.117   .     S
C954   H955    1.104   .     S
C957   H960    1.111   .     S
C957   H1150   1.107   .     S
C957   H1535   1.109   .     S
C961   O982    1.297   .     A
C961   C972    1.426   .     S
C961   O979    1.289   .     A
C962   O981    1.286   .     A
C962   C971    1.423   .     S
C962   O980    1.298   .     A
C963   O983    1.285   .     A
C963   O986    1.285   .     A
C963   C965    1.369   .     S
C964   O985    1.286   .     A
C964   O984    1.284   .     A
C964   C966    1.369   .     S
C966   C1541   1.167   .     S
C967   H989    1.067   .     S
C967   C972    1.389   .     A
C967   C1097   1.363   1_455 S
C968   H990    1.083   .     S
C968   C971    1.401   .     A
C968   C1034   1.377   .     S
C969   C971    1.389   .     A
C969   H991    1.078   .     S
C969   C1031   1.363   .     S
C970   C972    1.399   .     A
C970   H992    1.084   .     S
C970   C1096   1.377   1_455 S
C973   O993    1.384   .     S
C973   N978    1.381   .     A
C974   N977    1.373   .     A
C974   O1001   1.383   .     S
C974   C591    1.449   1_565 S
C975   N978    1.374   .     A
C975   O1009   1.387   .     S
C976   O1017   1.384   .     S
C976   N977    1.365   .     A
C976   C589    1.429   1_565 S
N977   Zn987   2.031   .     S
N978   Zn988   2.031   .     S
O979   Zn987   2.002   .     S
O980   Zn988   2.002   .     S
O981   Zn987   2.004   .     S
O982   Zn988   2.004   .     S
O983   Zn987   1.951   .     S
O984   Zn988   1.951   .     S
O985   Zn987   1.953   .     S
O986   Zn988   1.953   .     S
O993   C994    1.420   .     S
C994   C997    1.525   .     S
C994   H995    1.107   .     S
C994   H996    1.116   .     S
C997   H999    1.111   .     S
C997   H1000   1.108   .     S
H998   C613    1.105   1_565 S
O1001  C1002   1.413   .     S
C1002  H1004   1.109   .     S
C1002  H1003   1.104   .     S
C1002  C1005   1.524   .     S
C1005  H1008   1.110   .     S
C1005  H1006   1.110   .     S
H1007  C1581   1.109   .     S
O1009  C1010   1.412   .     S
C1010  H1012   1.103   .     S
C1010  C1013   1.524   .     S
C1010  H1011   1.109   .     S
C1013  H1015   1.111   .     S
C1013  H1014   1.111   .     S
C1013  H1016   1.110   .     S
O1017  C1018   1.419   .     S
C1018  C1021   1.525   .     S
C1018  H1020   1.117   .     S
C1018  H1019   1.104   .     S
C1021  H1024   1.111   .     S
C1021  H638    1.107   1_565 S
C1021  H1599   1.109   .     S
C1025  O1046   1.297   .     A
C1025  C1036   1.426   .     S
C1025  O1043   1.289   .     A
C1026  O1045   1.286   .     A
C1026  C1035   1.423   .     S
C1026  O1044   1.298   .     A
C1027  O1047   1.285   .     A
C1027  O1050   1.285   .     A
C1027  C1029   1.369   .     S
C1028  O1049   1.286   .     A
C1028  O1048   1.284   .     A
C1028  C1030   1.369   .     S
C1030  C1605   1.167   .     S
C1031  H1053   1.067   .     S
C1031  C1036   1.389   .     A
C1032  H1054   1.083   .     S
C1032  C1035   1.401   .     A
C1032  C1098   1.377   .     S
C1033  C1035   1.389   .     A
C1033  H1055   1.078   .     S
C1033  C1095   1.363   .     S
C1034  C1036   1.399   .     A
C1034  H1056   1.084   .     S
C1037  O1057   1.384   .     S
C1037  N1042   1.381   .     A
C1038  N1041   1.373   .     A
C1038  O1065   1.383   .     S
C1038  C655    1.449   1_565 S
C1039  N1042   1.374   .     A
C1039  O1073   1.387   .     S
C1040  O1081   1.384   .     S
C1040  N1041   1.365   .     A
C1040  C653    1.429   1_565 S
N1041  Zn1051  2.031   .     S
N1042  Zn1052  2.031   .     S
O1043  Zn1051  2.002   .     S
O1044  Zn1052  2.002   .     S
O1045  Zn1051  2.004   .     S
O1046  Zn1052  2.004   .     S
O1047  Zn1051  1.951   .     S
O1048  Zn1052  1.951   .     S
O1049  Zn1051  1.953   .     S
O1050  Zn1052  1.953   .     S
O1057  C1058   1.420   .     S
C1058  C1061   1.525   .     S
C1058  H1059   1.107   .     S
C1058  H1060   1.116   .     S
C1061  H1063   1.111   .     S
C1061  H1064   1.108   .     S
H1062  C677    1.105   1_565 S
O1065  C1066   1.413   .     S
C1066  H1068   1.109   .     S
C1066  H1067   1.104   .     S
C1066  C1069   1.524   .     S
C1069  H1072   1.110   .     S
C1069  H1070   1.110   .     S
H1071  C1645   1.109   .     S
O1073  C1074   1.412   .     S
C1074  H1076   1.103   .     S
C1074  C1077   1.524   .     S
C1074  H1075   1.109   .     S
C1077  H1079   1.111   .     S
C1077  H1078   1.111   .     S
C1077  H1080   1.110   .     S
O1081  C1082   1.419   .     S
C1082  C1085   1.525   .     S
C1082  H1084   1.117   .     S
C1082  H1083   1.104   .     S
C1085  H1088   1.111   .     S
C1085  H702    1.107   1_565 S
C1085  H1663   1.109   .     S
C1089  O1110   1.297   .     A
C1089  C1100   1.426   .     S
C1089  O1107   1.289   .     A
C1090  O1109   1.286   .     A
C1090  C1099   1.423   .     S
C1090  O1108   1.298   .     A
C1091  O1111   1.285   .     A
C1091  O1114   1.285   .     A
C1091  C1093   1.369   .     S
C1092  O1113   1.286   .     A
C1092  O1112   1.284   .     A
C1092  C1094   1.369   .     S
C1094  C1669   1.167   .     S
C1095  H1117   1.067   .     S
C1095  C1100   1.389   .     A
C1096  H1118   1.083   .     S
C1096  C1099   1.401   .     A
C1096  C970    1.377   1_655 S
C1097  C1099   1.389   .     A
C1097  H1119   1.078   .     S
C1097  C967    1.363   1_655 S
C1098  C1100   1.399   .     A
C1098  H1120   1.084   .     S
C1101  O1121   1.384   .     S
C1101  N1106   1.381   .     A
C1102  N1105   1.373   .     A
C1102  O1129   1.383   .     S
C1102  C719    1.449   1_565 S
C1103  N1106   1.374   .     A
C1103  O1137   1.387   .     S
C1104  O1145   1.384   .     S
C1104  N1105   1.365   .     A
C1104  C717    1.429   1_565 S
N1105  Zn1115  2.031   .     S
N1106  Zn1116  2.031   .     S
O1107  Zn1115  2.002   .     S
O1108  Zn1116  2.002   .     S
O1109  Zn1115  2.004   .     S
O1110  Zn1116  2.004   .     S
O1111  Zn1115  1.951   .     S
O1112  Zn1116  1.951   .     S
O1113  Zn1115  1.953   .     S
O1114  Zn1116  1.953   .     S
O1121  C1122   1.420   .     S
C1122  C1125   1.525   .     S
C1122  H1123   1.107   .     S
C1122  H1124   1.116   .     S
C1125  H1127   1.111   .     S
C1125  H1128   1.108   .     S
H1126  C741    1.105   1_565 S
O1129  C1130   1.413   .     S
C1130  H1132   1.109   .     S
C1130  H1131   1.104   .     S
C1130  C1133   1.524   .     S
C1133  H1136   1.110   .     S
C1133  H1134   1.110   .     S
H1135  C1709   1.109   .     S
O1137  C1138   1.412   .     S
C1138  H1140   1.103   .     S
C1138  C1141   1.524   .     S
C1138  H1139   1.109   .     S
C1141  H1143   1.111   .     S
C1141  H1142   1.111   .     S
C1141  H1144   1.110   .     S
O1145  C1146   1.419   .     S
C1146  C1149   1.525   .     S
C1146  H1148   1.117   .     S
C1146  H1147   1.104   .     S
C1149  H1152   1.111   .     S
C1149  H766    1.107   1_565 S
C1149  H1727   1.109   .     S
C1153  O1174   1.297   .     A
C1153  C1164   1.426   .     S
C1153  O1171   1.289   .     A
C1154  O1173   1.286   .     A
C1154  C1163   1.423   .     S
C1154  O1172   1.298   .     A
C1155  O1175   1.285   .     A
C1155  O1178   1.285   .     A
C1155  C1157   1.369   .     S
C1156  O1177   1.286   .     A
C1156  O1176   1.284   .     A
C1156  C1158   1.369   .     S
C1158  C5      1.167   1_556 S
C1159  H1181   1.067   .     S
C1159  C1164   1.389   .     A
C1159  C1289   1.363   1_455 S
C1160  H1182   1.083   .     S
C1160  C1163   1.401   .     A
C1160  C1226   1.377   .     S
C1161  C1163   1.389   .     A
C1161  H1183   1.078   .     S
C1161  C1223   1.363   .     S
C1162  C1164   1.399   .     A
C1162  H1184   1.084   .     S
C1162  C1288   1.377   1_455 S
C1165  O1185   1.384   .     S
C1165  N1170   1.381   .     A
C1165  C1552   1.429   1_545 S
C1166  N1169   1.373   .     A
C1166  O1193   1.383   .     S
C1166  C1359   1.449   .     S
C1167  N1170   1.374   .     A
C1167  O1201   1.387   .     S
C1167  C1550   1.449   1_545 S
C1168  O1209   1.384   .     S
C1168  N1169   1.365   .     A
C1168  C1357   1.429   .     S
N1169  Zn1179  2.031   .     S
N1170  Zn1180  2.031   .     S
O1171  Zn1179  2.002   .     S
O1172  Zn1180  2.002   .     S
O1173  Zn1179  2.004   .     S
O1174  Zn1180  2.004   .     S
O1175  Zn1179  1.951   .     S
O1176  Zn1180  1.951   .     S
O1177  Zn1179  1.953   .     S
O1178  Zn1180  1.953   .     S
O1185  C1186   1.420   .     S
C1186  C1189   1.525   .     S
C1186  H1187   1.107   .     S
C1186  H1188   1.116   .     S
C1189  H1191   1.111   .     S
C1189  H1192   1.108   .     S
C1189  H1574   1.105   1_545 S
H1190  C1381   1.105   .     S
O1193  C1194   1.413   .     S
C1194  H1196   1.109   .     S
C1194  H1195   1.104   .     S
C1194  C1197   1.524   .     S
C1197  H1200   1.110   .     S
C1197  H1198   1.110   .     S
H1199  C45     1.109   1_556 S
O1201  C1202   1.412   .     S
C1202  H1204   1.103   .     S
C1202  C1205   1.524   .     S
C1202  H1203   1.109   .     S
C1205  H1207   1.111   .     S
C1205  H1206   1.111   .     S
C1205  H1208   1.110   .     S
O1209  C1210   1.419   .     S
C1210  C1213   1.525   .     S
C1210  H1212   1.117   .     S
C1210  H1211   1.104   .     S
C1213  H1216   1.111   .     S
C1213  H1406   1.107   .     S
C1213  H63     1.109   1_556 S
H1214  C1597   1.107   1_545 S
C1217  O1238   1.297   .     A
C1217  C1228   1.426   .     S
C1217  O1235   1.289   .     A
C1218  O1237   1.286   .     A
C1218  C1227   1.423   .     S
C1218  O1236   1.298   .     A
C1219  O1239   1.285   .     A
C1219  O1242   1.285   .     A
C1219  C1221   1.369   .     S
C1220  O1241   1.286   .     A
C1220  O1240   1.284   .     A
C1220  C1222   1.369   .     S
C1222  C69     1.167   1_556 S
C1223  H1245   1.067   .     S
C1223  C1228   1.389   .     A
C1224  H1246   1.083   .     S
C1224  C1227   1.401   .     A
C1224  C1290   1.377   .     S
C1225  C1227   1.389   .     A
C1225  H1247   1.078   .     S
C1225  C1287   1.363   .     S
C1226  C1228   1.399   .     A
C1226  H1248   1.084   .     S
C1229  O1249   1.384   .     S
C1229  N1234   1.381   .     A
C1229  C1616   1.429   1_545 S
C1230  N1233   1.373   .     A
C1230  O1257   1.383   .     S
C1230  C1423   1.449   .     S
C1231  N1234   1.374   .     A
C1231  O1265   1.387   .     S
C1231  C1614   1.449   1_545 S
C1232  O1273   1.384   .     S
C1232  N1233   1.365   .     A
C1232  C1421   1.429   .     S
N1233  Zn1243  2.031   .     S
N1234  Zn1244  2.031   .     S
O1235  Zn1243  2.002   .     S
O1236  Zn1244  2.002   .     S
O1237  Zn1243  2.004   .     S
O1238  Zn1244  2.004   .     S
O1239  Zn1243  1.951   .     S
O1240  Zn1244  1.951   .     S
O1241  Zn1243  1.953   .     S
O1242  Zn1244  1.953   .     S
O1249  C1250   1.420   .     S
C1250  C1253   1.525   .     S
C1250  H1251   1.107   .     S
C1250  H1252   1.116   .     S
C1253  H1255   1.111   .     S
C1253  H1256   1.108   .     S
C1253  H1638   1.105   1_545 S
H1254  C1445   1.105   .     S
O1257  C1258   1.413   .     S
C1258  H1260   1.109   .     S
C1258  H1259   1.104   .     S
C1258  C1261   1.524   .     S
C1261  H1264   1.110   .     S
C1261  H1262   1.110   .     S
H1263  C109    1.109   1_556 S
O1265  C1266   1.412   .     S
C1266  H1268   1.103   .     S
C1266  C1269   1.524   .     S
C1266  H1267   1.109   .     S
C1269  H1271   1.111   .     S
C1269  H1270   1.111   .     S
C1269  H1272   1.110   .     S
O1273  C1274   1.419   .     S
C1274  C1277   1.525   .     S
C1274  H1276   1.117   .     S
C1274  H1275   1.104   .     S
C1277  H1280   1.111   .     S
C1277  H1470   1.107   .     S
C1277  H127    1.109   1_556 S
H1278  C1661   1.107   1_545 S
C1281  O1302   1.297   .     A
C1281  C1292   1.426   .     S
C1281  O1299   1.289   .     A
C1282  O1301   1.286   .     A
C1282  C1291   1.423   .     S
C1282  O1300   1.298   .     A
C1283  O1303   1.285   .     A
C1283  O1306   1.285   .     A
C1283  C1285   1.369   .     S
C1284  O1305   1.286   .     A
C1284  O1304   1.284   .     A
C1284  C1286   1.369   .     S
C1286  C133    1.167   1_556 S
C1287  H1309   1.067   .     S
C1287  C1292   1.389   .     A
C1288  H1310   1.083   .     S
C1288  C1291   1.401   .     A
C1288  C1162   1.377   1_655 S
C1289  C1291   1.389   .     A
C1289  H1311   1.078   .     S
C1289  C1159   1.363   1_655 S
C1290  C1292   1.399   .     A
C1290  H1312   1.084   .     S
C1293  O1313   1.384   .     S
C1293  N1298   1.381   .     A
C1293  C1680   1.429   1_545 S
C1294  N1297   1.373   .     A
C1294  O1321   1.383   .     S
C1294  C1487   1.449   .     S
C1295  N1298   1.374   .     A
C1295  O1329   1.387   .     S
C1295  C1678   1.449   1_545 S
C1296  O1337   1.384   .     S
C1296  N1297   1.365   .     A
C1296  C1485   1.429   .     S
N1297  Zn1307  2.031   .     S
N1298  Zn1308  2.031   .     S
O1299  Zn1307  2.002   .     S
O1300  Zn1308  2.002   .     S
O1301  Zn1307  2.004   .     S
O1302  Zn1308  2.004   .     S
O1303  Zn1307  1.951   .     S
O1304  Zn1308  1.951   .     S
O1305  Zn1307  1.953   .     S
O1306  Zn1308  1.953   .     S
O1313  C1314   1.420   .     S
C1314  C1317   1.525   .     S
C1314  H1315   1.107   .     S
C1314  H1316   1.116   .     S
C1317  H1319   1.111   .     S
C1317  H1320   1.108   .     S
C1317  H1702   1.105   1_545 S
H1318  C1509   1.105   .     S
O1321  C1322   1.413   .     S
C1322  H1324   1.109   .     S
C1322  H1323   1.104   .     S
C1322  C1325   1.524   .     S
C1325  H1328   1.110   .     S
C1325  H1326   1.110   .     S
H1327  C173    1.109   1_556 S
O1329  C1330   1.412   .     S
C1330  H1332   1.103   .     S
C1330  C1333   1.524   .     S
C1330  H1331   1.109   .     S
C1333  H1335   1.111   .     S
C1333  H1334   1.111   .     S
C1333  H1336   1.110   .     S
O1337  C1338   1.419   .     S
C1338  C1341   1.525   .     S
C1338  H1340   1.117   .     S
C1338  H1339   1.104   .     S
C1341  H1344   1.111   .     S
C1341  H1534   1.107   .     S
C1341  H191    1.109   1_556 S
H1342  C1725   1.107   1_545 S
C1345  O1366   1.297   .     A
C1345  C1356   1.426   .     S
C1345  O1363   1.289   .     A
C1346  O1365   1.286   .     A
C1346  C1355   1.423   .     S
C1346  O1364   1.298   .     A
C1347  O1367   1.285   .     A
C1347  O1370   1.285   .     A
C1347  C1349   1.369   .     S
C1348  O1369   1.286   .     A
C1348  O1368   1.284   .     A
C1348  C1350   1.369   .     S
C1350  C197    1.167   1_556 S
C1351  H1373   1.067   .     S
C1351  C1356   1.389   .     A
C1351  C1481   1.363   1_455 S
C1352  H1374   1.083   .     S
C1352  C1355   1.401   .     A
C1352  C1418   1.377   .     S
C1353  C1355   1.389   .     A
C1353  H1375   1.078   .     S
C1353  C1415   1.363   .     S
C1354  C1356   1.399   .     A
C1354  H1376   1.084   .     S
C1354  C1480   1.377   1_455 S
C1357  O1377   1.384   .     S
C1357  N1362   1.381   .     A
C1358  N1361   1.373   .     A
C1358  O1385   1.383   .     S
C1358  C1551   1.449   .     S
C1359  N1362   1.374   .     A
C1359  O1393   1.387   .     S
C1360  O1401   1.384   .     S
C1360  N1361   1.365   .     A
C1360  C1549   1.429   .     S
N1361  Zn1371  2.031   .     S
N1362  Zn1372  2.031   .     S
O1363  Zn1371  2.002   .     S
O1364  Zn1372  2.002   .     S
O1365  Zn1371  2.004   .     S
O1366  Zn1372  2.004   .     S
O1367  Zn1371  1.951   .     S
O1368  Zn1372  1.951   .     S
O1369  Zn1371  1.953   .     S
O1370  Zn1372  1.953   .     S
O1377  C1378   1.420   .     S
C1378  C1381   1.525   .     S
C1378  H1379   1.107   .     S
C1378  H1380   1.116   .     S
C1381  H1383   1.111   .     S
C1381  H1384   1.108   .     S
H1382  C1573   1.105   .     S
O1385  C1386   1.413   .     S
C1386  H1388   1.109   .     S
C1386  H1387   1.104   .     S
C1386  C1389   1.524   .     S
C1389  H1392   1.110   .     S
C1389  H1390   1.110   .     S
H1391  C237    1.109   1_556 S
O1393  C1394   1.412   .     S
C1394  H1396   1.103   .     S
C1394  C1397   1.524   .     S
C1394  H1395   1.109   .     S
C1397  H1399   1.111   .     S
C1397  H1398   1.111   .     S
C1397  H1400   1.110   .     S
O1401  C1402   1.419   .     S
C1402  C1405   1.525   .     S
C1402  H1404   1.117   .     S
C1402  H1403   1.104   .     S
C1405  H1408   1.111   .     S
C1405  H1598   1.107   .     S
C1405  H255    1.109   1_556 S
C1409  O1430   1.297   .     A
C1409  C1420   1.426   .     S
C1409  O1427   1.289   .     A
C1410  O1429   1.286   .     A
C1410  C1419   1.423   .     S
C1410  O1428   1.298   .     A
C1411  O1431   1.285   .     A
C1411  O1434   1.285   .     A
C1411  C1413   1.369   .     S
C1412  O1433   1.286   .     A
C1412  O1432   1.284   .     A
C1412  C1414   1.369   .     S
C1414  C261    1.167   1_556 S
C1415  H1437   1.067   .     S
C1415  C1420   1.389   .     A
C1416  H1438   1.083   .     S
C1416  C1419   1.401   .     A
C1416  C1482   1.377   .     S
C1417  C1419   1.389   .     A
C1417  H1439   1.078   .     S
C1417  C1479   1.363   .     S
C1418  C1420   1.399   .     A
C1418  H1440   1.084   .     S
C1421  O1441   1.384   .     S
C1421  N1426   1.381   .     A
C1422  N1425   1.373   .     A
C1422  O1449   1.383   .     S
C1422  C1615   1.449   .     S
C1423  N1426   1.374   .     A
C1423  O1457   1.387   .     S
C1424  O1465   1.384   .     S
C1424  N1425   1.365   .     A
C1424  C1613   1.429   .     S
N1425  Zn1435  2.031   .     S
N1426  Zn1436  2.031   .     S
O1427  Zn1435  2.002   .     S
O1428  Zn1436  2.002   .     S
O1429  Zn1435  2.004   .     S
O1430  Zn1436  2.004   .     S
O1431  Zn1435  1.951   .     S
O1432  Zn1436  1.951   .     S
O1433  Zn1435  1.953   .     S
O1434  Zn1436  1.953   .     S
O1441  C1442   1.420   .     S
C1442  C1445   1.525   .     S
C1442  H1443   1.107   .     S
C1442  H1444   1.116   .     S
C1445  H1447   1.111   .     S
C1445  H1448   1.108   .     S
H1446  C1637   1.105   .     S
O1449  C1450   1.413   .     S
C1450  H1452   1.109   .     S
C1450  H1451   1.104   .     S
C1450  C1453   1.524   .     S
C1453  H1456   1.110   .     S
C1453  H1454   1.110   .     S
H1455  C301    1.109   1_556 S
O1457  C1458   1.412   .     S
C1458  H1460   1.103   .     S
C1458  C1461   1.524   .     S
C1458  H1459   1.109   .     S
C1461  H1463   1.111   .     S
C1461  H1462   1.111   .     S
C1461  H1464   1.110   .     S
O1465  C1466   1.419   .     S
C1466  C1469   1.525   .     S
C1466  H1468   1.117   .     S
C1466  H1467   1.104   .     S
C1469  H1472   1.111   .     S
C1469  H1662   1.107   .     S
C1469  H319    1.109   1_556 S
C1473  O1494   1.297   .     A
C1473  C1484   1.426   .     S
C1473  O1491   1.289   .     A
C1474  O1493   1.286   .     A
C1474  C1483   1.423   .     S
C1474  O1492   1.298   .     A
C1475  O1495   1.285   .     A
C1475  O1498   1.285   .     A
C1475  C1477   1.369   .     S
C1476  O1497   1.286   .     A
C1476  O1496   1.284   .     A
C1476  C1478   1.369   .     S
C1478  C325    1.167   1_556 S
C1479  H1501   1.067   .     S
C1479  C1484   1.389   .     A
C1480  H1502   1.083   .     S
C1480  C1483   1.401   .     A
C1480  C1354   1.377   1_655 S
C1481  C1483   1.389   .     A
C1481  H1503   1.078   .     S
C1481  C1351   1.363   1_655 S
C1482  C1484   1.399   .     A
C1482  H1504   1.084   .     S
C1485  O1505   1.384   .     S
C1485  N1490   1.381   .     A
C1486  N1489   1.373   .     A
C1486  O1513   1.383   .     S
C1486  C1679   1.449   .     S
C1487  N1490   1.374   .     A
C1487  O1521   1.387   .     S
C1488  O1529   1.384   .     S
C1488  N1489   1.365   .     A
C1488  C1677   1.429   .     S
N1489  Zn1499  2.031   .     S
N1490  Zn1500  2.031   .     S
O1491  Zn1499  2.002   .     S
O1492  Zn1500  2.002   .     S
O1493  Zn1499  2.004   .     S
O1494  Zn1500  2.004   .     S
O1495  Zn1499  1.951   .     S
O1496  Zn1500  1.951   .     S
O1497  Zn1499  1.953   .     S
O1498  Zn1500  1.953   .     S
O1505  C1506   1.420   .     S
C1506  C1509   1.525   .     S
C1506  H1507   1.107   .     S
C1506  H1508   1.116   .     S
C1509  H1511   1.111   .     S
C1509  H1512   1.108   .     S
H1510  C1701   1.105   .     S
O1513  C1514   1.413   .     S
C1514  H1516   1.109   .     S
C1514  H1515   1.104   .     S
C1514  C1517   1.524   .     S
C1517  H1520   1.110   .     S
C1517  H1518   1.110   .     S
H1519  C365    1.109   1_556 S
O1521  C1522   1.412   .     S
C1522  H1524   1.103   .     S
C1522  C1525   1.524   .     S
C1522  H1523   1.109   .     S
C1525  H1527   1.111   .     S
C1525  H1526   1.111   .     S
C1525  H1528   1.110   .     S
O1529  C1530   1.419   .     S
C1530  C1533   1.525   .     S
C1530  H1532   1.117   .     S
C1530  H1531   1.104   .     S
C1533  H1536   1.111   .     S
C1533  H1726   1.107   .     S
C1533  H383    1.109   1_556 S
C1537  O1558   1.297   .     A
C1537  C1548   1.426   .     S
C1537  O1555   1.289   .     A
C1538  O1557   1.286   .     A
C1538  C1547   1.423   .     S
C1538  O1556   1.298   .     A
C1539  O1559   1.285   .     A
C1539  O1562   1.285   .     A
C1539  C1541   1.369   .     S
C1540  O1561   1.286   .     A
C1540  O1560   1.284   .     A
C1540  C1542   1.369   .     S
C1542  C389    1.167   1_556 S
C1543  H1565   1.067   .     S
C1543  C1548   1.389   .     A
C1543  C1673   1.363   1_455 S
C1544  H1566   1.083   .     S
C1544  C1547   1.401   .     A
C1544  C1610   1.377   .     S
C1545  C1547   1.389   .     A
C1545  H1567   1.078   .     S
C1545  C1607   1.363   .     S
C1546  C1548   1.399   .     A
C1546  H1568   1.084   .     S
C1546  C1672   1.377   1_455 S
C1549  O1569   1.384   .     S
C1549  N1554   1.381   .     A
C1550  N1553   1.373   .     A
C1550  O1577   1.383   .     S
C1550  C1167   1.449   1_565 S
C1551  N1554   1.374   .     A
C1551  O1585   1.387   .     S
C1552  O1593   1.384   .     S
C1552  N1553   1.365   .     A
C1552  C1165   1.429   1_565 S
N1553  Zn1563  2.031   .     S
N1554  Zn1564  2.031   .     S
O1555  Zn1563  2.002   .     S
O1556  Zn1564  2.002   .     S
O1557  Zn1563  2.004   .     S
O1558  Zn1564  2.004   .     S
O1559  Zn1563  1.951   .     S
O1560  Zn1564  1.951   .     S
O1561  Zn1563  1.953   .     S
O1562  Zn1564  1.953   .     S
O1569  C1570   1.420   .     S
C1570  C1573   1.525   .     S
C1570  H1571   1.107   .     S
C1570  H1572   1.116   .     S
C1573  H1575   1.111   .     S
C1573  H1576   1.108   .     S
H1574  C1189   1.105   1_565 S
O1577  C1578   1.413   .     S
C1578  H1580   1.109   .     S
C1578  H1579   1.104   .     S
C1578  C1581   1.524   .     S
C1581  H1584   1.110   .     S
C1581  H1582   1.110   .     S
H1583  C429    1.109   1_556 S
O1585  C1586   1.412   .     S
C1586  H1588   1.103   .     S
C1586  C1589   1.524   .     S
C1586  H1587   1.109   .     S
C1589  H1591   1.111   .     S
C1589  H1590   1.111   .     S
C1589  H1592   1.110   .     S
O1593  C1594   1.419   .     S
C1594  C1597   1.525   .     S
C1594  H1596   1.117   .     S
C1594  H1595   1.104   .     S
C1597  H1600   1.111   .     S
C1597  H1214   1.107   1_565 S
C1597  H447    1.109   1_556 S
C1601  O1622   1.297   .     A
C1601  C1612   1.426   .     S
C1601  O1619   1.289   .     A
C1602  O1621   1.286   .     A
C1602  C1611   1.423   .     S
C1602  O1620   1.298   .     A
C1603  O1623   1.285   .     A
C1603  O1626   1.285   .     A
C1603  C1605   1.369   .     S
C1604  O1625   1.286   .     A
C1604  O1624   1.284   .     A
C1604  C1606   1.369   .     S
C1606  C453    1.167   1_556 S
C1607  H1629   1.067   .     S
C1607  C1612   1.389   .     A
C1608  H1630   1.083   .     S
C1608  C1611   1.401   .     A
C1608  C1674   1.377   .     S
C1609  C1611   1.389   .     A
C1609  H1631   1.078   .     S
C1609  C1671   1.363   .     S
C1610  C1612   1.399   .     A
C1610  H1632   1.084   .     S
C1613  O1633   1.384   .     S
C1613  N1618   1.381   .     A
C1614  N1617   1.373   .     A
C1614  O1641   1.383   .     S
C1614  C1231   1.449   1_565 S
C1615  N1618   1.374   .     A
C1615  O1649   1.387   .     S
C1616  O1657   1.384   .     S
C1616  N1617   1.365   .     A
C1616  C1229   1.429   1_565 S
N1617  Zn1627  2.031   .     S
N1618  Zn1628  2.031   .     S
O1619  Zn1627  2.002   .     S
O1620  Zn1628  2.002   .     S
O1621  Zn1627  2.004   .     S
O1622  Zn1628  2.004   .     S
O1623  Zn1627  1.951   .     S
O1624  Zn1628  1.951   .     S
O1625  Zn1627  1.953   .     S
O1626  Zn1628  1.953   .     S
O1633  C1634   1.420   .     S
C1634  C1637   1.525   .     S
C1634  H1635   1.107   .     S
C1634  H1636   1.116   .     S
C1637  H1639   1.111   .     S
C1637  H1640   1.108   .     S
H1638  C1253   1.105   1_565 S
O1641  C1642   1.413   .     S
C1642  H1644   1.109   .     S
C1642  H1643   1.104   .     S
C1642  C1645   1.524   .     S
C1645  H1648   1.110   .     S
C1645  H1646   1.110   .     S
H1647  C493    1.109   1_556 S
O1649  C1650   1.412   .     S
C1650  H1652   1.103   .     S
C1650  C1653   1.524   .     S
C1650  H1651   1.109   .     S
C1653  H1655   1.111   .     S
C1653  H1654   1.111   .     S
C1653  H1656   1.110   .     S
O1657  C1658   1.419   .     S
C1658  C1661   1.525   .     S
C1658  H1660   1.117   .     S
C1658  H1659   1.104   .     S
C1661  H1664   1.111   .     S
C1661  H1278   1.107   1_565 S
C1661  H511    1.109   1_556 S
C1665  O1686   1.297   .     A
C1665  C1676   1.426   .     S
C1665  O1683   1.289   .     A
C1666  O1685   1.286   .     A
C1666  C1675   1.423   .     S
C1666  O1684   1.298   .     A
C1667  O1687   1.285   .     A
C1667  O1690   1.285   .     A
C1667  C1669   1.369   .     S
C1668  O1689   1.286   .     A
C1668  O1688   1.284   .     A
C1668  C1670   1.369   .     S
C1670  C517    1.167   1_556 S
C1671  H1693   1.067   .     S
C1671  C1676   1.389   .     A
C1672  H1694   1.083   .     S
C1672  C1675   1.401   .     A
C1672  C1546   1.377   1_655 S
C1673  C1675   1.389   .     A
C1673  H1695   1.078   .     S
C1673  C1543   1.363   1_655 S
C1674  C1676   1.399   .     A
C1674  H1696   1.084   .     S
C1677  O1697   1.384   .     S
C1677  N1682   1.381   .     A
C1678  N1681   1.373   .     A
C1678  O1705   1.383   .     S
C1678  C1295   1.449   1_565 S
C1679  N1682   1.374   .     A
C1679  O1713   1.387   .     S
C1680  O1721   1.384   .     S
C1680  N1681   1.365   .     A
C1680  C1293   1.429   1_565 S
N1681  Zn1691  2.031   .     S
N1682  Zn1692  2.031   .     S
O1683  Zn1691  2.002   .     S
O1684  Zn1692  2.002   .     S
O1685  Zn1691  2.004   .     S
O1686  Zn1692  2.004   .     S
O1687  Zn1691  1.951   .     S
O1688  Zn1692  1.951   .     S
O1689  Zn1691  1.953   .     S
O1690  Zn1692  1.953   .     S
O1697  C1698   1.420   .     S
C1698  C1701   1.525   .     S
C1698  H1699   1.107   .     S
C1698  H1700   1.116   .     S
C1701  H1703   1.111   .     S
C1701  H1704   1.108   .     S
H1702  C1317   1.105   1_565 S
O1705  C1706   1.413   .     S
C1706  H1708   1.109   .     S
C1706  H1707   1.104   .     S
C1706  C1709   1.524   .     S
C1709  H1712   1.110   .     S
C1709  H1710   1.110   .     S
H1711  C557    1.109   1_556 S
O1713  C1714   1.412   .     S
C1714  H1716   1.103   .     S
C1714  C1717   1.524   .     S
C1714  H1715   1.109   .     S
C1717  H1719   1.111   .     S
C1717  H1718   1.111   .     S
C1717  H1720   1.110   .     S
O1721  C1722   1.419   .     S
C1722  C1725   1.525   .     S
C1722  H1724   1.117   .     S
C1722  H1723   1.104   .     S
C1725  H1728   1.111   .     S
C1725  H1342   1.107   1_565 S
C1725  H575    1.109   1_556 S
