data_str_m3_o1_o16_pcu_sym.41
_audit_creation_date              2020-01-03
_audit_creation_method            'Materials Studio'
_symmetry_space_group_name_H-M    'P1'
_symmetry_Int_Tables_number       1
_symmetry_cell_setting            triclinic
loop_
_symmetry_equiv_pos_as_xyz
  x,y,z
_cell_length_a                    29.9389
_cell_length_b                    31.8018
_cell_length_c                    25.7316
_cell_angle_alpha                 88.6406
_cell_angle_beta                  73.1319
_cell_angle_gamma                 88.7041
loop_
_atom_site_label
_atom_site_type_symbol
_atom_site_fract_x
_atom_site_fract_y
_atom_site_fract_z
_atom_site_U_iso_or_equiv
_atom_site_adp_type
_atom_site_occupancy
C1     C     0.16641   0.24641   0.24937   0.00000  Uiso   1.00
C2     C     0.12955   0.15064   0.41026   0.00000  Uiso   1.00
C3     C     0.15490   0.31136   0.29800   0.00000  Uiso   1.00
C4     C     0.14192   0.16304   0.35205   0.00000  Uiso   1.00
C5     C     0.15440   0.02115   0.29737   0.00000  Uiso   1.00
C6     C     0.16765   0.04278   0.24785   0.00000  Uiso   1.00
C7     C     0.17811   0.02232   0.19797   0.00000  Uiso   1.00
C8     C     0.17647   0.31220   0.19847   0.00000  Uiso   1.00
C9     C     0.16569   0.29060   0.24857   0.00000  Uiso   1.00
C10    C     0.31850   0.14019   0.21747   0.00000  Uiso   1.00
C11    C     0.03271   0.14031   0.21756   0.00000  Uiso   1.00
C12    C     0.14934   0.12137   0.48927   0.00000  Uiso   1.00
C13    C     0.01508   0.19300   0.28263   0.00000  Uiso   1.00
C14    C     0.30060   0.19318   0.28260   0.00000  Uiso   1.00
C15    C     0.16716   0.08693   0.24912   0.00000  Uiso   1.00
C16    C     0.19186   0.16648   0.14789   0.00000  Uiso   1.00
C17    C     0.26065   0.16207   0.49990   0.00000  Uiso   1.00
C18    C     0.20540   0.15957   0.08948   0.00000  Uiso   1.00
C19    C     0.08824   0.16666   0.44645   0.00000  Uiso   1.00
C20    C     0.07223   0.14904   0.49910   0.00000  Uiso   1.00
C21    C     0.10183   0.12230   0.01830   0.00000  Uiso   1.00
C22    C     0.16083   0.12655   0.43257   0.00000  Uiso   1.00
C23    C     0.18503   0.12930   0.01379   0.00000  Uiso   1.00
C24    C     0.23101   0.13673   0.48013   0.00000  Uiso   1.00
C25    C     0.24290   0.12223   0.42633   0.00000  Uiso   1.00
C26    C     0.20684   0.11519   0.40343   0.00000  Uiso   1.00
C27    C     0.17453   0.13795   0.06892   0.00000  Uiso   1.00
C28    C     0.24670   0.17491   0.05411   0.00000  Uiso   1.00
Cl29   Cl    0.27711   0.21495   0.07539   0.00000  Uiso   1.00
Cl30   Cl    0.18756   0.28527   0.13662   0.00000  Uiso   1.00
Cl31   Cl    0.30250   0.10530   0.17453   0.00000  Uiso   1.00
Cl32   Cl    0.30071   0.10828   0.38903   0.00000  Uiso   1.00
Cl33   Cl    0.06209   0.21313   0.42915   0.00000  Uiso   1.00
Cl34   Cl    0.07883   0.08826   0.07459   0.00000  Uiso   1.00
Cl35   Cl    0.21756   0.08064   0.34933   0.00000  Uiso   1.00
Cl36   Cl    0.14261   0.28438   0.36100   0.00000  Uiso   1.00
H37    H     0.14390   0.03776   0.33538   0.00000  Uiso   1.00
H38    H     0.29326   0.19382   0.43051   0.00000  Uiso   1.00
H39    H     0.03231   0.17261   0.06962   0.00000  Uiso   1.00
H40    H     0.00777   0.13325   0.04482   0.00000  Uiso   1.00
H41    H     0.05771   0.11913   0.19153   0.00000  Uiso   1.00
H42    H     0.02597   0.21414   0.30883   0.00000  Uiso   1.00
H43    H     0.14106   0.13044   0.09627   0.00000  Uiso   1.00
H44    H     0.16118   0.06513   0.14709   0.00000  Uiso   1.00
H45    H     0.21840   0.06378   0.14453   0.00000  Uiso   1.00
H46    H     0.26676   0.21480   0.35687   0.00000  Uiso   1.00
H47    H     0.27988   0.25204   0.30708   0.00000  Uiso   1.00
H48    H     0.32635   0.15651   0.45175   0.00000  Uiso   1.00
N49    N     0.04760   0.16668   0.25002   0.00000  Uiso   1.00
N50    N     0.28573   0.16665   0.25001   0.00000  Uiso   1.00
N51    N     0.18941   0.04522   0.14722   0.00000  Uiso   1.00
N52    N     0.26773   0.22143   0.31664   0.00000  Uiso   1.00
N53    N     0.30134   0.18031   0.46412   0.00000  Uiso   1.00
N54    N     0.02756   0.16047   0.03420   0.00000  Uiso   1.00
O55    O     0.12846   0.22775   0.25001   0.00000  Uiso   1.00
O56    O     0.20490   0.22774   0.25001   0.00000  Uiso   1.00
O57    O     0.10947   0.16666   0.32681   0.00000  Uiso   1.00
O58    O     0.18591   0.16665   0.32681   0.00000  Uiso   1.00
O59    O     0.12843   0.10559   0.25000   0.00000  Uiso   1.00
O60    O     0.20488   0.10558   0.25000   0.00000  Uiso   1.00
O61    O     0.14742   0.16668   0.17319   0.00000  Uiso   1.00
O62    O     0.22387   0.16667   0.17319   0.00000  Uiso   1.00
Zn63   Zn    0.11562   0.16667   0.25000   0.00000  Uiso   1.00
Zn64   Zn    0.21771   0.16666   0.25000   0.00000  Uiso   1.00
C65    C     0.49974   0.24641   0.24937   0.00000  Uiso   1.00
C66    C     0.46289   0.15064   0.41026   0.00000  Uiso   1.00
C67    C     0.48823   0.31136   0.29800   0.00000  Uiso   1.00
C68    C     0.47525   0.16304   0.35205   0.00000  Uiso   1.00
C69    C     0.48773   0.02115   0.29737   0.00000  Uiso   1.00
C70    C     0.50098   0.04278   0.24785   0.00000  Uiso   1.00
C71    C     0.51144   0.02232   0.19797   0.00000  Uiso   1.00
C72    C     0.50981   0.31220   0.19847   0.00000  Uiso   1.00
C73    C     0.49903   0.29060   0.24857   0.00000  Uiso   1.00
C74    C     0.65184   0.14019   0.21747   0.00000  Uiso   1.00
C75    C     0.36605   0.14031   0.21756   0.00000  Uiso   1.00
C76    C     0.48268   0.12137   0.48927   0.00000  Uiso   1.00
C77    C     0.34842   0.19300   0.28263   0.00000  Uiso   1.00
C78    C     0.63393   0.19318   0.28260   0.00000  Uiso   1.00
C79    C     0.50049   0.08693   0.24912   0.00000  Uiso   1.00
C80    C     0.52519   0.16648   0.14789   0.00000  Uiso   1.00
C81    C     0.59399   0.16207   0.49990   0.00000  Uiso   1.00
C82    C     0.53873   0.15957   0.08948   0.00000  Uiso   1.00
C83    C     0.42158   0.16666   0.44645   0.00000  Uiso   1.00
C84    C     0.40556   0.14904   0.49910   0.00000  Uiso   1.00
C85    C     0.43516   0.12230   0.01830   0.00000  Uiso   1.00
C86    C     0.49416   0.12655   0.43257   0.00000  Uiso   1.00
C87    C     0.51836   0.12930   0.01379   0.00000  Uiso   1.00
C88    C     0.56435   0.13673   0.48013   0.00000  Uiso   1.00
C89    C     0.57623   0.12223   0.42633   0.00000  Uiso   1.00
C90    C     0.54017   0.11519   0.40343   0.00000  Uiso   1.00
C91    C     0.50786   0.13795   0.06892   0.00000  Uiso   1.00
C92    C     0.58003   0.17491   0.05411   0.00000  Uiso   1.00
Cl93   Cl    0.61044   0.21495   0.07539   0.00000  Uiso   1.00
Cl94   Cl    0.52089   0.28527   0.13662   0.00000  Uiso   1.00
Cl95   Cl    0.63584   0.10530   0.17453   0.00000  Uiso   1.00
Cl96   Cl    0.63404   0.10828   0.38903   0.00000  Uiso   1.00
Cl97   Cl    0.39542   0.21313   0.42915   0.00000  Uiso   1.00
Cl98   Cl    0.41216   0.08826   0.07459   0.00000  Uiso   1.00
Cl99   Cl    0.55089   0.08064   0.34933   0.00000  Uiso   1.00
Cl100  Cl    0.47595   0.28438   0.36100   0.00000  Uiso   1.00
H101   H     0.47723   0.03776   0.33538   0.00000  Uiso   1.00
H102   H     0.62659   0.19382   0.43051   0.00000  Uiso   1.00
H103   H     0.36564   0.17261   0.06962   0.00000  Uiso   1.00
H104   H     0.34110   0.13325   0.04482   0.00000  Uiso   1.00
H105   H     0.39104   0.11913   0.19153   0.00000  Uiso   1.00
H106   H     0.35930   0.21414   0.30883   0.00000  Uiso   1.00
H107   H     0.47439   0.13044   0.09627   0.00000  Uiso   1.00
H108   H     0.49451   0.06513   0.14709   0.00000  Uiso   1.00
H109   H     0.55173   0.06378   0.14453   0.00000  Uiso   1.00
H110   H     0.60009   0.21480   0.35687   0.00000  Uiso   1.00
H111   H     0.61321   0.25204   0.30708   0.00000  Uiso   1.00
H112   H     0.65969   0.15651   0.45175   0.00000  Uiso   1.00
N113   N     0.38093   0.16668   0.25002   0.00000  Uiso   1.00
N114   N     0.61906   0.16665   0.25001   0.00000  Uiso   1.00
N115   N     0.52274   0.04522   0.14722   0.00000  Uiso   1.00
N116   N     0.60106   0.22143   0.31664   0.00000  Uiso   1.00
N117   N     0.63467   0.18031   0.46412   0.00000  Uiso   1.00
N118   N     0.36089   0.16047   0.03420   0.00000  Uiso   1.00
O119   O     0.46179   0.22775   0.25001   0.00000  Uiso   1.00
O120   O     0.53823   0.22774   0.25001   0.00000  Uiso   1.00
O121   O     0.44280   0.16666   0.32681   0.00000  Uiso   1.00
O122   O     0.51924   0.16665   0.32681   0.00000  Uiso   1.00
O123   O     0.46177   0.10559   0.25000   0.00000  Uiso   1.00
O124   O     0.53821   0.10558   0.25000   0.00000  Uiso   1.00
O125   O     0.48076   0.16668   0.17319   0.00000  Uiso   1.00
O126   O     0.55720   0.16667   0.17319   0.00000  Uiso   1.00
Zn127  Zn    0.44896   0.16667   0.25000   0.00000  Uiso   1.00
Zn128  Zn    0.55104   0.16666   0.25000   0.00000  Uiso   1.00
C129   C     0.83308   0.24641   0.24937   0.00000  Uiso   1.00
C130   C     0.79622   0.15064   0.41026   0.00000  Uiso   1.00
C131   C     0.82157   0.31136   0.29800   0.00000  Uiso   1.00
C132   C     0.80858   0.16304   0.35205   0.00000  Uiso   1.00
C133   C     0.82107   0.02115   0.29737   0.00000  Uiso   1.00
C134   C     0.83431   0.04278   0.24785   0.00000  Uiso   1.00
C135   C     0.84478   0.02232   0.19797   0.00000  Uiso   1.00
C136   C     0.84314   0.31220   0.19847   0.00000  Uiso   1.00
C137   C     0.83236   0.29060   0.24857   0.00000  Uiso   1.00
C138   C     0.98517   0.14019   0.21747   0.00000  Uiso   1.00
C139   C     0.69938   0.14031   0.21756   0.00000  Uiso   1.00
C140   C     0.81601   0.12137   0.48927   0.00000  Uiso   1.00
C141   C     0.68175   0.19300   0.28263   0.00000  Uiso   1.00
C142   C     0.96727   0.19318   0.28260   0.00000  Uiso   1.00
C143   C     0.83382   0.08693   0.24912   0.00000  Uiso   1.00
C144   C     0.85852   0.16648   0.14789   0.00000  Uiso   1.00
C145   C     0.92732   0.16207   0.49990   0.00000  Uiso   1.00
C146   C     0.87207   0.15957   0.08948   0.00000  Uiso   1.00
C147   C     0.75491   0.16666   0.44645   0.00000  Uiso   1.00
C148   C     0.73890   0.14904   0.49910   0.00000  Uiso   1.00
C149   C     0.76849   0.12230   0.01830   0.00000  Uiso   1.00
C150   C     0.82750   0.12655   0.43257   0.00000  Uiso   1.00
C151   C     0.85169   0.12930   0.01379   0.00000  Uiso   1.00
C152   C     0.89768   0.13673   0.48013   0.00000  Uiso   1.00
C153   C     0.90957   0.12223   0.42633   0.00000  Uiso   1.00
C154   C     0.87350   0.11519   0.40343   0.00000  Uiso   1.00
C155   C     0.84119   0.13795   0.06892   0.00000  Uiso   1.00
C156   C     0.91337   0.17491   0.05411   0.00000  Uiso   1.00
Cl157  Cl    0.94377   0.21495   0.07539   0.00000  Uiso   1.00
Cl158  Cl    0.85423   0.28527   0.13662   0.00000  Uiso   1.00
Cl159  Cl    0.96917   0.10530   0.17453   0.00000  Uiso   1.00
Cl160  Cl    0.96737   0.10828   0.38903   0.00000  Uiso   1.00
Cl161  Cl    0.72876   0.21313   0.42915   0.00000  Uiso   1.00
Cl162  Cl    0.74549   0.08826   0.07459   0.00000  Uiso   1.00
Cl163  Cl    0.88423   0.08064   0.34933   0.00000  Uiso   1.00
Cl164  Cl    0.80928   0.28438   0.36100   0.00000  Uiso   1.00
H165   H     0.81057   0.03776   0.33538   0.00000  Uiso   1.00
H166   H     0.95993   0.19382   0.43051   0.00000  Uiso   1.00
H167   H     0.69897   0.17261   0.06962   0.00000  Uiso   1.00
H168   H     0.67443   0.13325   0.04482   0.00000  Uiso   1.00
H169   H     0.72438   0.11913   0.19153   0.00000  Uiso   1.00
H170   H     0.69263   0.21414   0.30883   0.00000  Uiso   1.00
H171   H     0.80773   0.13044   0.09627   0.00000  Uiso   1.00
H172   H     0.82784   0.06513   0.14709   0.00000  Uiso   1.00
H173   H     0.88506   0.06378   0.14453   0.00000  Uiso   1.00
H174   H     0.93342   0.21480   0.35687   0.00000  Uiso   1.00
H175   H     0.94655   0.25204   0.30708   0.00000  Uiso   1.00
H176   H     0.99302   0.15651   0.45175   0.00000  Uiso   1.00
N177   N     0.71426   0.16668   0.25002   0.00000  Uiso   1.00
N178   N     0.95239   0.16665   0.25001   0.00000  Uiso   1.00
N179   N     0.85607   0.04522   0.14722   0.00000  Uiso   1.00
N180   N     0.93439   0.22143   0.31664   0.00000  Uiso   1.00
N181   N     0.96800   0.18031   0.46412   0.00000  Uiso   1.00
N182   N     0.69422   0.16047   0.03420   0.00000  Uiso   1.00
O183   O     0.79512   0.22775   0.25001   0.00000  Uiso   1.00
O184   O     0.87157   0.22774   0.25001   0.00000  Uiso   1.00
O185   O     0.77613   0.16666   0.32681   0.00000  Uiso   1.00
O186   O     0.85258   0.16665   0.32681   0.00000  Uiso   1.00
O187   O     0.79510   0.10559   0.25000   0.00000  Uiso   1.00
O188   O     0.87154   0.10558   0.25000   0.00000  Uiso   1.00
O189   O     0.81409   0.16668   0.17319   0.00000  Uiso   1.00
O190   O     0.89053   0.16667   0.17319   0.00000  Uiso   1.00
Zn191  Zn    0.78229   0.16667   0.25000   0.00000  Uiso   1.00
Zn192  Zn    0.88438   0.16666   0.25000   0.00000  Uiso   1.00
C193   C     0.16641   0.57974   0.24937   0.00000  Uiso   1.00
C194   C     0.12955   0.48398   0.41026   0.00000  Uiso   1.00
C195   C     0.15490   0.64470   0.29800   0.00000  Uiso   1.00
C196   C     0.14192   0.49638   0.35205   0.00000  Uiso   1.00
C197   C     0.15440   0.35448   0.29737   0.00000  Uiso   1.00
C198   C     0.16765   0.37611   0.24785   0.00000  Uiso   1.00
C199   C     0.17811   0.35566   0.19797   0.00000  Uiso   1.00
C200   C     0.17647   0.64553   0.19847   0.00000  Uiso   1.00
C201   C     0.16569   0.62394   0.24857   0.00000  Uiso   1.00
C202   C     0.31850   0.47352   0.21747   0.00000  Uiso   1.00
C203   C     0.03271   0.47364   0.21756   0.00000  Uiso   1.00
C204   C     0.14934   0.45470   0.48927   0.00000  Uiso   1.00
C205   C     0.01508   0.52634   0.28263   0.00000  Uiso   1.00
C206   C     0.30060   0.52651   0.28260   0.00000  Uiso   1.00
C207   C     0.16716   0.42026   0.24912   0.00000  Uiso   1.00
C208   C     0.19186   0.49981   0.14789   0.00000  Uiso   1.00
C209   C     0.26065   0.49541   0.49990   0.00000  Uiso   1.00
C210   C     0.20540   0.49290   0.08948   0.00000  Uiso   1.00
C211   C     0.08824   0.49999   0.44645   0.00000  Uiso   1.00
C212   C     0.07223   0.48237   0.49910   0.00000  Uiso   1.00
C213   C     0.10183   0.45564   0.01830   0.00000  Uiso   1.00
C214   C     0.16083   0.45988   0.43257   0.00000  Uiso   1.00
C215   C     0.18503   0.46264   0.01379   0.00000  Uiso   1.00
C216   C     0.23101   0.47006   0.48013   0.00000  Uiso   1.00
C217   C     0.24290   0.45556   0.42633   0.00000  Uiso   1.00
C218   C     0.20684   0.44853   0.40343   0.00000  Uiso   1.00
C219   C     0.17453   0.47128   0.06892   0.00000  Uiso   1.00
C220   C     0.24670   0.50825   0.05411   0.00000  Uiso   1.00
Cl221  Cl    0.27711   0.54829   0.07539   0.00000  Uiso   1.00
Cl222  Cl    0.18756   0.61861   0.13662   0.00000  Uiso   1.00
Cl223  Cl    0.30250   0.43863   0.17453   0.00000  Uiso   1.00
Cl224  Cl    0.30071   0.44161   0.38903   0.00000  Uiso   1.00
Cl225  Cl    0.06209   0.54646   0.42915   0.00000  Uiso   1.00
Cl226  Cl    0.07883   0.42160   0.07459   0.00000  Uiso   1.00
Cl227  Cl    0.21756   0.41397   0.34933   0.00000  Uiso   1.00
Cl228  Cl    0.14261   0.61772   0.36100   0.00000  Uiso   1.00
H229   H     0.14390   0.37109   0.33538   0.00000  Uiso   1.00
H230   H     0.29326   0.52716   0.43051   0.00000  Uiso   1.00
H231   H     0.03231   0.50595   0.06962   0.00000  Uiso   1.00
H232   H     0.00777   0.46659   0.04482   0.00000  Uiso   1.00
H233   H     0.05771   0.45246   0.19153   0.00000  Uiso   1.00
H234   H     0.02597   0.54747   0.30883   0.00000  Uiso   1.00
H235   H     0.14106   0.46377   0.09627   0.00000  Uiso   1.00
H236   H     0.16118   0.39846   0.14709   0.00000  Uiso   1.00
H237   H     0.21840   0.39711   0.14453   0.00000  Uiso   1.00
H238   H     0.26676   0.54813   0.35687   0.00000  Uiso   1.00
H239   H     0.27988   0.58537   0.30708   0.00000  Uiso   1.00
H240   H     0.32635   0.48984   0.45175   0.00000  Uiso   1.00
N241   N     0.04760   0.50001   0.25002   0.00000  Uiso   1.00
N242   N     0.28573   0.49998   0.25001   0.00000  Uiso   1.00
N243   N     0.18941   0.37856   0.14722   0.00000  Uiso   1.00
N244   N     0.26773   0.55477   0.31664   0.00000  Uiso   1.00
N245   N     0.30134   0.51364   0.46412   0.00000  Uiso   1.00
N246   N     0.02756   0.49380   0.03420   0.00000  Uiso   1.00
O247   O     0.12846   0.56108   0.25001   0.00000  Uiso   1.00
O248   O     0.20490   0.56107   0.25001   0.00000  Uiso   1.00
O249   O     0.10947   0.50000   0.32681   0.00000  Uiso   1.00
O250   O     0.18591   0.49999   0.32681   0.00000  Uiso   1.00
O251   O     0.12843   0.43893   0.25000   0.00000  Uiso   1.00
O252   O     0.20488   0.43892   0.25000   0.00000  Uiso   1.00
O253   O     0.14742   0.50001   0.17319   0.00000  Uiso   1.00
O254   O     0.22387   0.50000   0.17319   0.00000  Uiso   1.00
Zn255  Zn    0.11562   0.50001   0.25000   0.00000  Uiso   1.00
Zn256  Zn    0.21771   0.49999   0.25000   0.00000  Uiso   1.00
C257   C     0.49974   0.57974   0.24937   0.00000  Uiso   1.00
C258   C     0.46289   0.48398   0.41026   0.00000  Uiso   1.00
C259   C     0.48823   0.64470   0.29800   0.00000  Uiso   1.00
C260   C     0.47525   0.49638   0.35205   0.00000  Uiso   1.00
C261   C     0.48773   0.35448   0.29737   0.00000  Uiso   1.00
C262   C     0.50098   0.37611   0.24785   0.00000  Uiso   1.00
C263   C     0.51144   0.35566   0.19797   0.00000  Uiso   1.00
C264   C     0.50981   0.64553   0.19847   0.00000  Uiso   1.00
C265   C     0.49903   0.62394   0.24857   0.00000  Uiso   1.00
C266   C     0.65184   0.47352   0.21747   0.00000  Uiso   1.00
C267   C     0.36605   0.47364   0.21756   0.00000  Uiso   1.00
C268   C     0.48268   0.45470   0.48927   0.00000  Uiso   1.00
C269   C     0.34842   0.52634   0.28263   0.00000  Uiso   1.00
C270   C     0.63393   0.52651   0.28260   0.00000  Uiso   1.00
C271   C     0.50049   0.42026   0.24912   0.00000  Uiso   1.00
C272   C     0.52519   0.49981   0.14789   0.00000  Uiso   1.00
C273   C     0.59399   0.49541   0.49990   0.00000  Uiso   1.00
C274   C     0.53873   0.49290   0.08948   0.00000  Uiso   1.00
C275   C     0.42158   0.49999   0.44645   0.00000  Uiso   1.00
C276   C     0.40556   0.48237   0.49910   0.00000  Uiso   1.00
C277   C     0.43516   0.45564   0.01830   0.00000  Uiso   1.00
C278   C     0.49416   0.45988   0.43257   0.00000  Uiso   1.00
C279   C     0.51836   0.46264   0.01379   0.00000  Uiso   1.00
C280   C     0.56435   0.47006   0.48013   0.00000  Uiso   1.00
C281   C     0.57623   0.45556   0.42633   0.00000  Uiso   1.00
C282   C     0.54017   0.44853   0.40343   0.00000  Uiso   1.00
C283   C     0.50786   0.47128   0.06892   0.00000  Uiso   1.00
C284   C     0.58003   0.50825   0.05411   0.00000  Uiso   1.00
Cl285  Cl    0.61044   0.54829   0.07539   0.00000  Uiso   1.00
Cl286  Cl    0.52089   0.61861   0.13662   0.00000  Uiso   1.00
Cl287  Cl    0.63584   0.43863   0.17453   0.00000  Uiso   1.00
Cl288  Cl    0.63404   0.44161   0.38903   0.00000  Uiso   1.00
Cl289  Cl    0.39542   0.54646   0.42915   0.00000  Uiso   1.00
Cl290  Cl    0.41216   0.42160   0.07459   0.00000  Uiso   1.00
Cl291  Cl    0.55089   0.41397   0.34933   0.00000  Uiso   1.00
Cl292  Cl    0.47595   0.61772   0.36100   0.00000  Uiso   1.00
H293   H     0.47723   0.37109   0.33538   0.00000  Uiso   1.00
H294   H     0.62659   0.52716   0.43051   0.00000  Uiso   1.00
H295   H     0.36564   0.50595   0.06962   0.00000  Uiso   1.00
H296   H     0.34110   0.46659   0.04482   0.00000  Uiso   1.00
H297   H     0.39104   0.45246   0.19153   0.00000  Uiso   1.00
H298   H     0.35930   0.54747   0.30883   0.00000  Uiso   1.00
H299   H     0.47439   0.46377   0.09627   0.00000  Uiso   1.00
H300   H     0.49451   0.39846   0.14709   0.00000  Uiso   1.00
H301   H     0.55173   0.39711   0.14453   0.00000  Uiso   1.00
H302   H     0.60009   0.54813   0.35687   0.00000  Uiso   1.00
H303   H     0.61321   0.58537   0.30708   0.00000  Uiso   1.00
H304   H     0.65969   0.48984   0.45175   0.00000  Uiso   1.00
N305   N     0.38093   0.50001   0.25002   0.00000  Uiso   1.00
N306   N     0.61906   0.49998   0.25001   0.00000  Uiso   1.00
N307   N     0.52274   0.37856   0.14722   0.00000  Uiso   1.00
N308   N     0.60106   0.55477   0.31664   0.00000  Uiso   1.00
N309   N     0.63467   0.51364   0.46412   0.00000  Uiso   1.00
N310   N     0.36089   0.49380   0.03420   0.00000  Uiso   1.00
O311   O     0.46179   0.56108   0.25001   0.00000  Uiso   1.00
O312   O     0.53823   0.56107   0.25001   0.00000  Uiso   1.00
O313   O     0.44280   0.50000   0.32681   0.00000  Uiso   1.00
O314   O     0.51924   0.49999   0.32681   0.00000  Uiso   1.00
O315   O     0.46177   0.43893   0.25000   0.00000  Uiso   1.00
O316   O     0.53821   0.43892   0.25000   0.00000  Uiso   1.00
O317   O     0.48076   0.50001   0.17319   0.00000  Uiso   1.00
O318   O     0.55720   0.50000   0.17319   0.00000  Uiso   1.00
Zn319  Zn    0.44896   0.50001   0.25000   0.00000  Uiso   1.00
Zn320  Zn    0.55104   0.49999   0.25000   0.00000  Uiso   1.00
C321   C     0.83308   0.57974   0.24937   0.00000  Uiso   1.00
C322   C     0.79622   0.48398   0.41026   0.00000  Uiso   1.00
C323   C     0.82157   0.64470   0.29800   0.00000  Uiso   1.00
C324   C     0.80858   0.49638   0.35205   0.00000  Uiso   1.00
C325   C     0.82107   0.35448   0.29737   0.00000  Uiso   1.00
C326   C     0.83431   0.37611   0.24785   0.00000  Uiso   1.00
C327   C     0.84478   0.35566   0.19797   0.00000  Uiso   1.00
C328   C     0.84314   0.64553   0.19847   0.00000  Uiso   1.00
C329   C     0.83236   0.62394   0.24857   0.00000  Uiso   1.00
C330   C     0.98517   0.47352   0.21747   0.00000  Uiso   1.00
C331   C     0.69938   0.47364   0.21756   0.00000  Uiso   1.00
C332   C     0.81601   0.45470   0.48927   0.00000  Uiso   1.00
C333   C     0.68175   0.52634   0.28263   0.00000  Uiso   1.00
C334   C     0.96727   0.52651   0.28260   0.00000  Uiso   1.00
C335   C     0.83382   0.42026   0.24912   0.00000  Uiso   1.00
C336   C     0.85852   0.49981   0.14789   0.00000  Uiso   1.00
C337   C     0.92732   0.49541   0.49990   0.00000  Uiso   1.00
C338   C     0.87207   0.49290   0.08948   0.00000  Uiso   1.00
C339   C     0.75491   0.49999   0.44645   0.00000  Uiso   1.00
C340   C     0.73890   0.48237   0.49910   0.00000  Uiso   1.00
C341   C     0.76849   0.45564   0.01830   0.00000  Uiso   1.00
C342   C     0.82750   0.45988   0.43257   0.00000  Uiso   1.00
C343   C     0.85169   0.46264   0.01379   0.00000  Uiso   1.00
C344   C     0.89768   0.47006   0.48013   0.00000  Uiso   1.00
C345   C     0.90957   0.45556   0.42633   0.00000  Uiso   1.00
C346   C     0.87350   0.44853   0.40343   0.00000  Uiso   1.00
C347   C     0.84119   0.47128   0.06892   0.00000  Uiso   1.00
C348   C     0.91337   0.50825   0.05411   0.00000  Uiso   1.00
Cl349  Cl    0.94377   0.54829   0.07539   0.00000  Uiso   1.00
Cl350  Cl    0.85423   0.61861   0.13662   0.00000  Uiso   1.00
Cl351  Cl    0.96917   0.43863   0.17453   0.00000  Uiso   1.00
Cl352  Cl    0.96737   0.44161   0.38903   0.00000  Uiso   1.00
Cl353  Cl    0.72876   0.54646   0.42915   0.00000  Uiso   1.00
Cl354  Cl    0.74549   0.42160   0.07459   0.00000  Uiso   1.00
Cl355  Cl    0.88423   0.41397   0.34933   0.00000  Uiso   1.00
Cl356  Cl    0.80928   0.61772   0.36100   0.00000  Uiso   1.00
H357   H     0.81057   0.37109   0.33538   0.00000  Uiso   1.00
H358   H     0.95993   0.52716   0.43051   0.00000  Uiso   1.00
H359   H     0.69897   0.50595   0.06962   0.00000  Uiso   1.00
H360   H     0.67443   0.46659   0.04482   0.00000  Uiso   1.00
H361   H     0.72438   0.45246   0.19153   0.00000  Uiso   1.00
H362   H     0.69263   0.54747   0.30883   0.00000  Uiso   1.00
H363   H     0.80773   0.46377   0.09627   0.00000  Uiso   1.00
H364   H     0.82784   0.39846   0.14709   0.00000  Uiso   1.00
H365   H     0.88506   0.39711   0.14453   0.00000  Uiso   1.00
H366   H     0.93342   0.54813   0.35687   0.00000  Uiso   1.00
H367   H     0.94655   0.58537   0.30708   0.00000  Uiso   1.00
H368   H     0.99302   0.48984   0.45175   0.00000  Uiso   1.00
N369   N     0.71426   0.50001   0.25002   0.00000  Uiso   1.00
N370   N     0.95239   0.49998   0.25001   0.00000  Uiso   1.00
N371   N     0.85607   0.37856   0.14722   0.00000  Uiso   1.00
N372   N     0.93439   0.55477   0.31664   0.00000  Uiso   1.00
N373   N     0.96800   0.51364   0.46412   0.00000  Uiso   1.00
N374   N     0.69422   0.49380   0.03420   0.00000  Uiso   1.00
O375   O     0.79512   0.56108   0.25001   0.00000  Uiso   1.00
O376   O     0.87157   0.56107   0.25001   0.00000  Uiso   1.00
O377   O     0.77613   0.50000   0.32681   0.00000  Uiso   1.00
O378   O     0.85258   0.49999   0.32681   0.00000  Uiso   1.00
O379   O     0.79510   0.43893   0.25000   0.00000  Uiso   1.00
O380   O     0.87154   0.43892   0.25000   0.00000  Uiso   1.00
O381   O     0.81409   0.50001   0.17319   0.00000  Uiso   1.00
O382   O     0.89053   0.50000   0.17319   0.00000  Uiso   1.00
Zn383  Zn    0.78229   0.50001   0.25000   0.00000  Uiso   1.00
Zn384  Zn    0.88438   0.49999   0.25000   0.00000  Uiso   1.00
C385   C     0.16641   0.91307   0.24937   0.00000  Uiso   1.00
C386   C     0.12955   0.81731   0.41026   0.00000  Uiso   1.00
C387   C     0.15490   0.97803   0.29800   0.00000  Uiso   1.00
C388   C     0.14192   0.82971   0.35205   0.00000  Uiso   1.00
C389   C     0.15440   0.68782   0.29737   0.00000  Uiso   1.00
C390   C     0.16765   0.70945   0.24785   0.00000  Uiso   1.00
C391   C     0.17811   0.68899   0.19797   0.00000  Uiso   1.00
C392   C     0.17647   0.97886   0.19847   0.00000  Uiso   1.00
C393   C     0.16569   0.95727   0.24857   0.00000  Uiso   1.00
C394   C     0.31850   0.80686   0.21747   0.00000  Uiso   1.00
C395   C     0.03271   0.80698   0.21756   0.00000  Uiso   1.00
C396   C     0.14934   0.78803   0.48927   0.00000  Uiso   1.00
C397   C     0.01508   0.85967   0.28263   0.00000  Uiso   1.00
C398   C     0.30060   0.85985   0.28260   0.00000  Uiso   1.00
C399   C     0.16716   0.75360   0.24912   0.00000  Uiso   1.00
C400   C     0.19186   0.83314   0.14789   0.00000  Uiso   1.00
C401   C     0.26065   0.82874   0.49990   0.00000  Uiso   1.00
C402   C     0.20540   0.82623   0.08948   0.00000  Uiso   1.00
C403   C     0.08824   0.83333   0.44645   0.00000  Uiso   1.00
C404   C     0.07223   0.81571   0.49910   0.00000  Uiso   1.00
C405   C     0.10183   0.78897   0.01830   0.00000  Uiso   1.00
C406   C     0.16083   0.79322   0.43257   0.00000  Uiso   1.00
C407   C     0.18503   0.79597   0.01379   0.00000  Uiso   1.00
C408   C     0.23101   0.80340   0.48013   0.00000  Uiso   1.00
C409   C     0.24290   0.78890   0.42633   0.00000  Uiso   1.00
C410   C     0.20684   0.78186   0.40343   0.00000  Uiso   1.00
C411   C     0.17453   0.80461   0.06892   0.00000  Uiso   1.00
C412   C     0.24670   0.84158   0.05411   0.00000  Uiso   1.00
Cl413  Cl    0.27711   0.88162   0.07539   0.00000  Uiso   1.00
Cl414  Cl    0.18756   0.95194   0.13662   0.00000  Uiso   1.00
Cl415  Cl    0.30250   0.77196   0.17453   0.00000  Uiso   1.00
Cl416  Cl    0.30071   0.77494   0.38903   0.00000  Uiso   1.00
Cl417  Cl    0.06209   0.87979   0.42915   0.00000  Uiso   1.00
Cl418  Cl    0.07883   0.75493   0.07459   0.00000  Uiso   1.00
Cl419  Cl    0.21756   0.74731   0.34933   0.00000  Uiso   1.00
Cl420  Cl    0.14261   0.95105   0.36100   0.00000  Uiso   1.00
H421   H     0.14390   0.70442   0.33538   0.00000  Uiso   1.00
H422   H     0.29326   0.86049   0.43051   0.00000  Uiso   1.00
H423   H     0.03231   0.83928   0.06962   0.00000  Uiso   1.00
H424   H     0.00777   0.79992   0.04482   0.00000  Uiso   1.00
H425   H     0.05771   0.78579   0.19153   0.00000  Uiso   1.00
H426   H     0.02597   0.88081   0.30883   0.00000  Uiso   1.00
H427   H     0.14106   0.79710   0.09627   0.00000  Uiso   1.00
H428   H     0.16118   0.73179   0.14709   0.00000  Uiso   1.00
H429   H     0.21840   0.73045   0.14453   0.00000  Uiso   1.00
H430   H     0.26676   0.88147   0.35687   0.00000  Uiso   1.00
H431   H     0.27988   0.91870   0.30708   0.00000  Uiso   1.00
H432   H     0.32635   0.82317   0.45175   0.00000  Uiso   1.00
N433   N     0.04760   0.83334   0.25002   0.00000  Uiso   1.00
N434   N     0.28573   0.83331   0.25001   0.00000  Uiso   1.00
N435   N     0.18941   0.71189   0.14722   0.00000  Uiso   1.00
N436   N     0.26773   0.88810   0.31664   0.00000  Uiso   1.00
N437   N     0.30134   0.84698   0.46412   0.00000  Uiso   1.00
N438   N     0.02756   0.82714   0.03420   0.00000  Uiso   1.00
O439   O     0.12846   0.89442   0.25001   0.00000  Uiso   1.00
O440   O     0.20490   0.89441   0.25001   0.00000  Uiso   1.00
O441   O     0.10947   0.83333   0.32681   0.00000  Uiso   1.00
O442   O     0.18591   0.83332   0.32681   0.00000  Uiso   1.00
O443   O     0.12843   0.77226   0.25000   0.00000  Uiso   1.00
O444   O     0.20488   0.77225   0.25000   0.00000  Uiso   1.00
O445   O     0.14742   0.83335   0.17319   0.00000  Uiso   1.00
O446   O     0.22387   0.83334   0.17319   0.00000  Uiso   1.00
Zn447  Zn    0.11562   0.83334   0.25000   0.00000  Uiso   1.00
Zn448  Zn    0.21771   0.83333   0.25000   0.00000  Uiso   1.00
C449   C     0.49974   0.91307   0.24937   0.00000  Uiso   1.00
C450   C     0.46289   0.81731   0.41026   0.00000  Uiso   1.00
C451   C     0.48823   0.97803   0.29800   0.00000  Uiso   1.00
C452   C     0.47525   0.82971   0.35205   0.00000  Uiso   1.00
C453   C     0.48773   0.68782   0.29737   0.00000  Uiso   1.00
C454   C     0.50098   0.70945   0.24785   0.00000  Uiso   1.00
C455   C     0.51144   0.68899   0.19797   0.00000  Uiso   1.00
C456   C     0.50981   0.97886   0.19847   0.00000  Uiso   1.00
C457   C     0.49903   0.95727   0.24857   0.00000  Uiso   1.00
C458   C     0.65184   0.80686   0.21747   0.00000  Uiso   1.00
C459   C     0.36605   0.80698   0.21756   0.00000  Uiso   1.00
C460   C     0.48268   0.78803   0.48927   0.00000  Uiso   1.00
C461   C     0.34842   0.85967   0.28263   0.00000  Uiso   1.00
C462   C     0.63393   0.85985   0.28260   0.00000  Uiso   1.00
C463   C     0.50049   0.75360   0.24912   0.00000  Uiso   1.00
C464   C     0.52519   0.83314   0.14789   0.00000  Uiso   1.00
C465   C     0.59399   0.82874   0.49990   0.00000  Uiso   1.00
C466   C     0.53873   0.82623   0.08948   0.00000  Uiso   1.00
C467   C     0.42158   0.83333   0.44645   0.00000  Uiso   1.00
C468   C     0.40556   0.81571   0.49910   0.00000  Uiso   1.00
C469   C     0.43516   0.78897   0.01830   0.00000  Uiso   1.00
C470   C     0.49416   0.79322   0.43257   0.00000  Uiso   1.00
C471   C     0.51836   0.79597   0.01379   0.00000  Uiso   1.00
C472   C     0.56435   0.80340   0.48013   0.00000  Uiso   1.00
C473   C     0.57623   0.78890   0.42633   0.00000  Uiso   1.00
C474   C     0.54017   0.78186   0.40343   0.00000  Uiso   1.00
C475   C     0.50786   0.80461   0.06892   0.00000  Uiso   1.00
C476   C     0.58003   0.84158   0.05411   0.00000  Uiso   1.00
Cl477  Cl    0.61044   0.88162   0.07539   0.00000  Uiso   1.00
Cl478  Cl    0.52089   0.95194   0.13662   0.00000  Uiso   1.00
Cl479  Cl    0.63584   0.77196   0.17453   0.00000  Uiso   1.00
Cl480  Cl    0.63404   0.77494   0.38903   0.00000  Uiso   1.00
Cl481  Cl    0.39542   0.87979   0.42915   0.00000  Uiso   1.00
Cl482  Cl    0.41216   0.75493   0.07459   0.00000  Uiso   1.00
Cl483  Cl    0.55089   0.74731   0.34933   0.00000  Uiso   1.00
Cl484  Cl    0.47595   0.95105   0.36100   0.00000  Uiso   1.00
H485   H     0.47723   0.70442   0.33538   0.00000  Uiso   1.00
H486   H     0.62659   0.86049   0.43051   0.00000  Uiso   1.00
H487   H     0.36564   0.83928   0.06962   0.00000  Uiso   1.00
H488   H     0.34110   0.79992   0.04482   0.00000  Uiso   1.00
H489   H     0.39104   0.78579   0.19153   0.00000  Uiso   1.00
H490   H     0.35930   0.88081   0.30883   0.00000  Uiso   1.00
H491   H     0.47439   0.79710   0.09627   0.00000  Uiso   1.00
H492   H     0.49451   0.73179   0.14709   0.00000  Uiso   1.00
H493   H     0.55173   0.73045   0.14453   0.00000  Uiso   1.00
H494   H     0.60009   0.88147   0.35687   0.00000  Uiso   1.00
H495   H     0.61321   0.91870   0.30708   0.00000  Uiso   1.00
H496   H     0.65969   0.82317   0.45175   0.00000  Uiso   1.00
N497   N     0.38093   0.83334   0.25002   0.00000  Uiso   1.00
N498   N     0.61906   0.83331   0.25001   0.00000  Uiso   1.00
N499   N     0.52274   0.71189   0.14722   0.00000  Uiso   1.00
N500   N     0.60106   0.88810   0.31664   0.00000  Uiso   1.00
N501   N     0.63467   0.84698   0.46412   0.00000  Uiso   1.00
N502   N     0.36089   0.82714   0.03420   0.00000  Uiso   1.00
O503   O     0.46179   0.89442   0.25001   0.00000  Uiso   1.00
O504   O     0.53823   0.89441   0.25001   0.00000  Uiso   1.00
O505   O     0.44280   0.83333   0.32681   0.00000  Uiso   1.00
O506   O     0.51924   0.83332   0.32681   0.00000  Uiso   1.00
O507   O     0.46177   0.77226   0.25000   0.00000  Uiso   1.00
O508   O     0.53821   0.77225   0.25000   0.00000  Uiso   1.00
O509   O     0.48076   0.83335   0.17319   0.00000  Uiso   1.00
O510   O     0.55720   0.83334   0.17319   0.00000  Uiso   1.00
Zn511  Zn    0.44896   0.83334   0.25000   0.00000  Uiso   1.00
Zn512  Zn    0.55104   0.83333   0.25000   0.00000  Uiso   1.00
C513   C     0.83308   0.91307   0.24937   0.00000  Uiso   1.00
C514   C     0.79622   0.81731   0.41026   0.00000  Uiso   1.00
C515   C     0.82157   0.97803   0.29800   0.00000  Uiso   1.00
C516   C     0.80858   0.82971   0.35205   0.00000  Uiso   1.00
C517   C     0.82107   0.68782   0.29737   0.00000  Uiso   1.00
C518   C     0.83431   0.70945   0.24785   0.00000  Uiso   1.00
C519   C     0.84478   0.68899   0.19797   0.00000  Uiso   1.00
C520   C     0.84314   0.97886   0.19847   0.00000  Uiso   1.00
C521   C     0.83236   0.95727   0.24857   0.00000  Uiso   1.00
C522   C     0.98517   0.80686   0.21747   0.00000  Uiso   1.00
C523   C     0.69938   0.80698   0.21756   0.00000  Uiso   1.00
C524   C     0.81601   0.78803   0.48927   0.00000  Uiso   1.00
C525   C     0.68175   0.85967   0.28263   0.00000  Uiso   1.00
C526   C     0.96727   0.85985   0.28260   0.00000  Uiso   1.00
C527   C     0.83382   0.75360   0.24912   0.00000  Uiso   1.00
C528   C     0.85852   0.83314   0.14789   0.00000  Uiso   1.00
C529   C     0.92732   0.82874   0.49990   0.00000  Uiso   1.00
C530   C     0.87207   0.82623   0.08948   0.00000  Uiso   1.00
C531   C     0.75491   0.83333   0.44645   0.00000  Uiso   1.00
C532   C     0.73890   0.81571   0.49910   0.00000  Uiso   1.00
C533   C     0.76849   0.78897   0.01830   0.00000  Uiso   1.00
C534   C     0.82750   0.79322   0.43257   0.00000  Uiso   1.00
C535   C     0.85169   0.79597   0.01379   0.00000  Uiso   1.00
C536   C     0.89768   0.80340   0.48013   0.00000  Uiso   1.00
C537   C     0.90957   0.78890   0.42633   0.00000  Uiso   1.00
C538   C     0.87350   0.78186   0.40343   0.00000  Uiso   1.00
C539   C     0.84119   0.80461   0.06892   0.00000  Uiso   1.00
C540   C     0.91337   0.84158   0.05411   0.00000  Uiso   1.00
Cl541  Cl    0.94377   0.88162   0.07539   0.00000  Uiso   1.00
Cl542  Cl    0.85423   0.95194   0.13662   0.00000  Uiso   1.00
Cl543  Cl    0.96917   0.77196   0.17453   0.00000  Uiso   1.00
Cl544  Cl    0.96737   0.77494   0.38903   0.00000  Uiso   1.00
Cl545  Cl    0.72876   0.87979   0.42915   0.00000  Uiso   1.00
Cl546  Cl    0.74549   0.75493   0.07459   0.00000  Uiso   1.00
Cl547  Cl    0.88423   0.74731   0.34933   0.00000  Uiso   1.00
Cl548  Cl    0.80928   0.95105   0.36100   0.00000  Uiso   1.00
H549   H     0.81057   0.70442   0.33538   0.00000  Uiso   1.00
H550   H     0.95993   0.86049   0.43051   0.00000  Uiso   1.00
H551   H     0.69897   0.83928   0.06962   0.00000  Uiso   1.00
H552   H     0.67443   0.79992   0.04482   0.00000  Uiso   1.00
H553   H     0.72438   0.78579   0.19153   0.00000  Uiso   1.00
H554   H     0.69263   0.88081   0.30883   0.00000  Uiso   1.00
H555   H     0.80773   0.79710   0.09627   0.00000  Uiso   1.00
H556   H     0.82784   0.73179   0.14709   0.00000  Uiso   1.00
H557   H     0.88506   0.73045   0.14453   0.00000  Uiso   1.00
H558   H     0.93342   0.88147   0.35687   0.00000  Uiso   1.00
H559   H     0.94655   0.91870   0.30708   0.00000  Uiso   1.00
H560   H     0.99302   0.82317   0.45175   0.00000  Uiso   1.00
N561   N     0.71426   0.83334   0.25002   0.00000  Uiso   1.00
N562   N     0.95239   0.83331   0.25001   0.00000  Uiso   1.00
N563   N     0.85607   0.71189   0.14722   0.00000  Uiso   1.00
N564   N     0.93439   0.88810   0.31664   0.00000  Uiso   1.00
N565   N     0.96800   0.84698   0.46412   0.00000  Uiso   1.00
N566   N     0.69422   0.82714   0.03420   0.00000  Uiso   1.00
O567   O     0.79512   0.89442   0.25001   0.00000  Uiso   1.00
O568   O     0.87157   0.89441   0.25001   0.00000  Uiso   1.00
O569   O     0.77613   0.83333   0.32681   0.00000  Uiso   1.00
O570   O     0.85258   0.83332   0.32681   0.00000  Uiso   1.00
O571   O     0.79510   0.77226   0.25000   0.00000  Uiso   1.00
O572   O     0.87154   0.77225   0.25000   0.00000  Uiso   1.00
O573   O     0.81409   0.83335   0.17319   0.00000  Uiso   1.00
O574   O     0.89053   0.83334   0.17319   0.00000  Uiso   1.00
Zn575  Zn    0.78229   0.83334   0.25000   0.00000  Uiso   1.00
Zn576  Zn    0.88438   0.83333   0.25000   0.00000  Uiso   1.00
C577   C     0.16641   0.24641   0.74937   0.00000  Uiso   1.00
C578   C     0.12955   0.15064   0.91026   0.00000  Uiso   1.00
C579   C     0.15490   0.31136   0.79800   0.00000  Uiso   1.00
C580   C     0.14192   0.16304   0.85205   0.00000  Uiso   1.00
C581   C     0.15440   0.02115   0.79737   0.00000  Uiso   1.00
C582   C     0.16765   0.04278   0.74785   0.00000  Uiso   1.00
C583   C     0.17811   0.02232   0.69797   0.00000  Uiso   1.00
C584   C     0.17647   0.31220   0.69847   0.00000  Uiso   1.00
C585   C     0.16569   0.29060   0.74857   0.00000  Uiso   1.00
C586   C     0.31850   0.14019   0.71747   0.00000  Uiso   1.00
C587   C     0.03271   0.14031   0.71756   0.00000  Uiso   1.00
C588   C     0.14934   0.12137   0.98927   0.00000  Uiso   1.00
C589   C     0.01508   0.19300   0.78263   0.00000  Uiso   1.00
C590   C     0.30060   0.19318   0.78260   0.00000  Uiso   1.00
C591   C     0.16716   0.08693   0.74912   0.00000  Uiso   1.00
C592   C     0.19186   0.16648   0.64789   0.00000  Uiso   1.00
C593   C     0.26065   0.16207   0.99990   0.00000  Uiso   1.00
C594   C     0.20540   0.15957   0.58948   0.00000  Uiso   1.00
C595   C     0.08824   0.16666   0.94645   0.00000  Uiso   1.00
C596   C     0.07223   0.14904   0.99910   0.00000  Uiso   1.00
C597   C     0.10183   0.12230   0.51830   0.00000  Uiso   1.00
C598   C     0.16083   0.12655   0.93257   0.00000  Uiso   1.00
C599   C     0.18503   0.12930   0.51379   0.00000  Uiso   1.00
C600   C     0.23101   0.13673   0.98013   0.00000  Uiso   1.00
C601   C     0.24290   0.12223   0.92633   0.00000  Uiso   1.00
C602   C     0.20684   0.11519   0.90343   0.00000  Uiso   1.00
C603   C     0.17453   0.13795   0.56892   0.00000  Uiso   1.00
C604   C     0.24670   0.17491   0.55411   0.00000  Uiso   1.00
Cl605  Cl    0.27711   0.21495   0.57539   0.00000  Uiso   1.00
Cl606  Cl    0.18756   0.28527   0.63662   0.00000  Uiso   1.00
Cl607  Cl    0.30250   0.10530   0.67453   0.00000  Uiso   1.00
Cl608  Cl    0.30071   0.10828   0.88903   0.00000  Uiso   1.00
Cl609  Cl    0.06209   0.21313   0.92915   0.00000  Uiso   1.00
Cl610  Cl    0.07883   0.08826   0.57459   0.00000  Uiso   1.00
Cl611  Cl    0.21756   0.08064   0.84933   0.00000  Uiso   1.00
Cl612  Cl    0.14261   0.28438   0.86100   0.00000  Uiso   1.00
H613   H     0.14390   0.03776   0.83538   0.00000  Uiso   1.00
H614   H     0.29326   0.19382   0.93051   0.00000  Uiso   1.00
H615   H     0.03231   0.17261   0.56962   0.00000  Uiso   1.00
H616   H     0.00777   0.13325   0.54482   0.00000  Uiso   1.00
H617   H     0.05771   0.11913   0.69153   0.00000  Uiso   1.00
H618   H     0.02597   0.21414   0.80883   0.00000  Uiso   1.00
H619   H     0.14106   0.13044   0.59627   0.00000  Uiso   1.00
H620   H     0.16118   0.06513   0.64709   0.00000  Uiso   1.00
H621   H     0.21840   0.06378   0.64453   0.00000  Uiso   1.00
H622   H     0.26676   0.21480   0.85687   0.00000  Uiso   1.00
H623   H     0.27988   0.25204   0.80708   0.00000  Uiso   1.00
H624   H     0.32635   0.15651   0.95175   0.00000  Uiso   1.00
N625   N     0.04760   0.16668   0.75002   0.00000  Uiso   1.00
N626   N     0.28573   0.16665   0.75001   0.00000  Uiso   1.00
N627   N     0.18941   0.04522   0.64722   0.00000  Uiso   1.00
N628   N     0.26773   0.22143   0.81664   0.00000  Uiso   1.00
N629   N     0.30134   0.18031   0.96412   0.00000  Uiso   1.00
N630   N     0.02756   0.16047   0.53420   0.00000  Uiso   1.00
O631   O     0.12846   0.22775   0.75001   0.00000  Uiso   1.00
O632   O     0.20490   0.22774   0.75001   0.00000  Uiso   1.00
O633   O     0.10947   0.16666   0.82681   0.00000  Uiso   1.00
O634   O     0.18591   0.16665   0.82681   0.00000  Uiso   1.00
O635   O     0.12843   0.10559   0.75000   0.00000  Uiso   1.00
O636   O     0.20488   0.10558   0.75000   0.00000  Uiso   1.00
O637   O     0.14742   0.16668   0.67319   0.00000  Uiso   1.00
O638   O     0.22387   0.16667   0.67319   0.00000  Uiso   1.00
Zn639  Zn    0.11562   0.16667   0.75000   0.00000  Uiso   1.00
Zn640  Zn    0.21771   0.16666   0.75000   0.00000  Uiso   1.00
C641   C     0.49974   0.24641   0.74937   0.00000  Uiso   1.00
C642   C     0.46289   0.15064   0.91026   0.00000  Uiso   1.00
C643   C     0.48823   0.31136   0.79800   0.00000  Uiso   1.00
C644   C     0.47525   0.16304   0.85205   0.00000  Uiso   1.00
C645   C     0.48773   0.02115   0.79737   0.00000  Uiso   1.00
C646   C     0.50098   0.04278   0.74785   0.00000  Uiso   1.00
C647   C     0.51144   0.02232   0.69797   0.00000  Uiso   1.00
C648   C     0.50981   0.31220   0.69847   0.00000  Uiso   1.00
C649   C     0.49903   0.29060   0.74857   0.00000  Uiso   1.00
C650   C     0.65184   0.14019   0.71747   0.00000  Uiso   1.00
C651   C     0.36605   0.14031   0.71756   0.00000  Uiso   1.00
C652   C     0.48268   0.12137   0.98927   0.00000  Uiso   1.00
C653   C     0.34842   0.19300   0.78263   0.00000  Uiso   1.00
C654   C     0.63393   0.19318   0.78260   0.00000  Uiso   1.00
C655   C     0.50049   0.08693   0.74912   0.00000  Uiso   1.00
C656   C     0.52519   0.16648   0.64789   0.00000  Uiso   1.00
C657   C     0.59399   0.16207   0.99990   0.00000  Uiso   1.00
C658   C     0.53873   0.15957   0.58948   0.00000  Uiso   1.00
C659   C     0.42158   0.16666   0.94645   0.00000  Uiso   1.00
C660   C     0.40556   0.14904   0.99910   0.00000  Uiso   1.00
C661   C     0.43516   0.12230   0.51830   0.00000  Uiso   1.00
C662   C     0.49416   0.12655   0.93257   0.00000  Uiso   1.00
C663   C     0.51836   0.12930   0.51379   0.00000  Uiso   1.00
C664   C     0.56435   0.13673   0.98013   0.00000  Uiso   1.00
C665   C     0.57623   0.12223   0.92633   0.00000  Uiso   1.00
C666   C     0.54017   0.11519   0.90343   0.00000  Uiso   1.00
C667   C     0.50786   0.13795   0.56892   0.00000  Uiso   1.00
C668   C     0.58003   0.17491   0.55411   0.00000  Uiso   1.00
Cl669  Cl    0.61044   0.21495   0.57539   0.00000  Uiso   1.00
Cl670  Cl    0.52089   0.28527   0.63662   0.00000  Uiso   1.00
Cl671  Cl    0.63584   0.10530   0.67453   0.00000  Uiso   1.00
Cl672  Cl    0.63404   0.10828   0.88903   0.00000  Uiso   1.00
Cl673  Cl    0.39542   0.21313   0.92915   0.00000  Uiso   1.00
Cl674  Cl    0.41216   0.08826   0.57459   0.00000  Uiso   1.00
Cl675  Cl    0.55089   0.08064   0.84933   0.00000  Uiso   1.00
Cl676  Cl    0.47595   0.28438   0.86100   0.00000  Uiso   1.00
H677   H     0.47723   0.03776   0.83538   0.00000  Uiso   1.00
H678   H     0.62659   0.19382   0.93051   0.00000  Uiso   1.00
H679   H     0.36564   0.17261   0.56962   0.00000  Uiso   1.00
H680   H     0.34110   0.13325   0.54482   0.00000  Uiso   1.00
H681   H     0.39104   0.11913   0.69153   0.00000  Uiso   1.00
H682   H     0.35930   0.21414   0.80883   0.00000  Uiso   1.00
H683   H     0.47439   0.13044   0.59627   0.00000  Uiso   1.00
H684   H     0.49451   0.06513   0.64709   0.00000  Uiso   1.00
H685   H     0.55173   0.06378   0.64453   0.00000  Uiso   1.00
H686   H     0.60009   0.21480   0.85687   0.00000  Uiso   1.00
H687   H     0.61321   0.25204   0.80708   0.00000  Uiso   1.00
H688   H     0.65969   0.15651   0.95175   0.00000  Uiso   1.00
N689   N     0.38093   0.16668   0.75002   0.00000  Uiso   1.00
N690   N     0.61906   0.16665   0.75001   0.00000  Uiso   1.00
N691   N     0.52274   0.04522   0.64722   0.00000  Uiso   1.00
N692   N     0.60106   0.22143   0.81664   0.00000  Uiso   1.00
N693   N     0.63467   0.18031   0.96412   0.00000  Uiso   1.00
N694   N     0.36089   0.16047   0.53420   0.00000  Uiso   1.00
O695   O     0.46179   0.22775   0.75001   0.00000  Uiso   1.00
O696   O     0.53823   0.22774   0.75001   0.00000  Uiso   1.00
O697   O     0.44280   0.16666   0.82681   0.00000  Uiso   1.00
O698   O     0.51924   0.16665   0.82681   0.00000  Uiso   1.00
O699   O     0.46177   0.10559   0.75000   0.00000  Uiso   1.00
O700   O     0.53821   0.10558   0.75000   0.00000  Uiso   1.00
O701   O     0.48076   0.16668   0.67319   0.00000  Uiso   1.00
O702   O     0.55720   0.16667   0.67319   0.00000  Uiso   1.00
Zn703  Zn    0.44896   0.16667   0.75000   0.00000  Uiso   1.00
Zn704  Zn    0.55104   0.16666   0.75000   0.00000  Uiso   1.00
C705   C     0.83308   0.24641   0.74937   0.00000  Uiso   1.00
C706   C     0.79622   0.15064   0.91026   0.00000  Uiso   1.00
C707   C     0.82157   0.31136   0.79800   0.00000  Uiso   1.00
C708   C     0.80858   0.16304   0.85205   0.00000  Uiso   1.00
C709   C     0.82107   0.02115   0.79737   0.00000  Uiso   1.00
C710   C     0.83431   0.04278   0.74785   0.00000  Uiso   1.00
C711   C     0.84478   0.02232   0.69797   0.00000  Uiso   1.00
C712   C     0.84314   0.31220   0.69847   0.00000  Uiso   1.00
C713   C     0.83236   0.29060   0.74857   0.00000  Uiso   1.00
C714   C     0.98517   0.14019   0.71747   0.00000  Uiso   1.00
C715   C     0.69938   0.14031   0.71756   0.00000  Uiso   1.00
C716   C     0.81601   0.12137   0.98927   0.00000  Uiso   1.00
C717   C     0.68175   0.19300   0.78263   0.00000  Uiso   1.00
C718   C     0.96727   0.19318   0.78260   0.00000  Uiso   1.00
C719   C     0.83382   0.08693   0.74912   0.00000  Uiso   1.00
C720   C     0.85852   0.16648   0.64789   0.00000  Uiso   1.00
C721   C     0.92732   0.16207   0.99990   0.00000  Uiso   1.00
C722   C     0.87207   0.15957   0.58948   0.00000  Uiso   1.00
C723   C     0.75491   0.16666   0.94645   0.00000  Uiso   1.00
C724   C     0.73890   0.14904   0.99910   0.00000  Uiso   1.00
C725   C     0.76849   0.12230   0.51830   0.00000  Uiso   1.00
C726   C     0.82750   0.12655   0.93257   0.00000  Uiso   1.00
C727   C     0.85169   0.12930   0.51379   0.00000  Uiso   1.00
C728   C     0.89768   0.13673   0.98013   0.00000  Uiso   1.00
C729   C     0.90957   0.12223   0.92633   0.00000  Uiso   1.00
C730   C     0.87350   0.11519   0.90343   0.00000  Uiso   1.00
C731   C     0.84119   0.13795   0.56892   0.00000  Uiso   1.00
C732   C     0.91337   0.17491   0.55411   0.00000  Uiso   1.00
Cl733  Cl    0.94377   0.21495   0.57539   0.00000  Uiso   1.00
Cl734  Cl    0.85423   0.28527   0.63662   0.00000  Uiso   1.00
Cl735  Cl    0.96917   0.10530   0.67453   0.00000  Uiso   1.00
Cl736  Cl    0.96737   0.10828   0.88903   0.00000  Uiso   1.00
Cl737  Cl    0.72876   0.21313   0.92915   0.00000  Uiso   1.00
Cl738  Cl    0.74549   0.08826   0.57459   0.00000  Uiso   1.00
Cl739  Cl    0.88423   0.08064   0.84933   0.00000  Uiso   1.00
Cl740  Cl    0.80928   0.28438   0.86100   0.00000  Uiso   1.00
H741   H     0.81057   0.03776   0.83538   0.00000  Uiso   1.00
H742   H     0.95993   0.19382   0.93051   0.00000  Uiso   1.00
H743   H     0.69897   0.17261   0.56962   0.00000  Uiso   1.00
H744   H     0.67443   0.13325   0.54482   0.00000  Uiso   1.00
H745   H     0.72438   0.11913   0.69153   0.00000  Uiso   1.00
H746   H     0.69263   0.21414   0.80883   0.00000  Uiso   1.00
H747   H     0.80773   0.13044   0.59627   0.00000  Uiso   1.00
H748   H     0.82784   0.06513   0.64709   0.00000  Uiso   1.00
H749   H     0.88506   0.06378   0.64453   0.00000  Uiso   1.00
H750   H     0.93342   0.21480   0.85687   0.00000  Uiso   1.00
H751   H     0.94655   0.25204   0.80708   0.00000  Uiso   1.00
H752   H     0.99302   0.15651   0.95175   0.00000  Uiso   1.00
N753   N     0.71426   0.16668   0.75002   0.00000  Uiso   1.00
N754   N     0.95239   0.16665   0.75001   0.00000  Uiso   1.00
N755   N     0.85607   0.04522   0.64722   0.00000  Uiso   1.00
N756   N     0.93439   0.22143   0.81664   0.00000  Uiso   1.00
N757   N     0.96800   0.18031   0.96412   0.00000  Uiso   1.00
N758   N     0.69422   0.16047   0.53420   0.00000  Uiso   1.00
O759   O     0.79512   0.22775   0.75001   0.00000  Uiso   1.00
O760   O     0.87157   0.22774   0.75001   0.00000  Uiso   1.00
O761   O     0.77613   0.16666   0.82681   0.00000  Uiso   1.00
O762   O     0.85258   0.16665   0.82681   0.00000  Uiso   1.00
O763   O     0.79510   0.10559   0.75000   0.00000  Uiso   1.00
O764   O     0.87154   0.10558   0.75000   0.00000  Uiso   1.00
O765   O     0.81409   0.16668   0.67319   0.00000  Uiso   1.00
O766   O     0.89053   0.16667   0.67319   0.00000  Uiso   1.00
Zn767  Zn    0.78229   0.16667   0.75000   0.00000  Uiso   1.00
Zn768  Zn    0.88438   0.16666   0.75000   0.00000  Uiso   1.00
C769   C     0.16641   0.57974   0.74937   0.00000  Uiso   1.00
C770   C     0.12955   0.48398   0.91026   0.00000  Uiso   1.00
C771   C     0.15490   0.64470   0.79800   0.00000  Uiso   1.00
C772   C     0.14192   0.49638   0.85205   0.00000  Uiso   1.00
C773   C     0.15440   0.35448   0.79737   0.00000  Uiso   1.00
C774   C     0.16765   0.37611   0.74785   0.00000  Uiso   1.00
C775   C     0.17811   0.35566   0.69797   0.00000  Uiso   1.00
C776   C     0.17647   0.64553   0.69847   0.00000  Uiso   1.00
C777   C     0.16569   0.62394   0.74857   0.00000  Uiso   1.00
C778   C     0.31850   0.47352   0.71747   0.00000  Uiso   1.00
C779   C     0.03271   0.47364   0.71756   0.00000  Uiso   1.00
C780   C     0.14934   0.45470   0.98927   0.00000  Uiso   1.00
C781   C     0.01508   0.52634   0.78263   0.00000  Uiso   1.00
C782   C     0.30060   0.52651   0.78260   0.00000  Uiso   1.00
C783   C     0.16716   0.42026   0.74912   0.00000  Uiso   1.00
C784   C     0.19186   0.49981   0.64789   0.00000  Uiso   1.00
C785   C     0.26065   0.49541   0.99990   0.00000  Uiso   1.00
C786   C     0.20540   0.49290   0.58948   0.00000  Uiso   1.00
C787   C     0.08824   0.49999   0.94645   0.00000  Uiso   1.00
C788   C     0.07223   0.48237   0.99910   0.00000  Uiso   1.00
C789   C     0.10183   0.45564   0.51830   0.00000  Uiso   1.00
C790   C     0.16083   0.45988   0.93257   0.00000  Uiso   1.00
C791   C     0.18503   0.46264   0.51379   0.00000  Uiso   1.00
C792   C     0.23101   0.47006   0.98013   0.00000  Uiso   1.00
C793   C     0.24290   0.45556   0.92633   0.00000  Uiso   1.00
C794   C     0.20684   0.44853   0.90343   0.00000  Uiso   1.00
C795   C     0.17453   0.47128   0.56892   0.00000  Uiso   1.00
C796   C     0.24670   0.50825   0.55411   0.00000  Uiso   1.00
Cl797  Cl    0.27711   0.54829   0.57539   0.00000  Uiso   1.00
Cl798  Cl    0.18756   0.61861   0.63662   0.00000  Uiso   1.00
Cl799  Cl    0.30250   0.43863   0.67453   0.00000  Uiso   1.00
Cl800  Cl    0.30071   0.44161   0.88903   0.00000  Uiso   1.00
Cl801  Cl    0.06209   0.54646   0.92915   0.00000  Uiso   1.00
Cl802  Cl    0.07883   0.42160   0.57459   0.00000  Uiso   1.00
Cl803  Cl    0.21756   0.41397   0.84933   0.00000  Uiso   1.00
Cl804  Cl    0.14261   0.61772   0.86100   0.00000  Uiso   1.00
H805   H     0.14390   0.37109   0.83538   0.00000  Uiso   1.00
H806   H     0.29326   0.52716   0.93051   0.00000  Uiso   1.00
H807   H     0.03231   0.50595   0.56962   0.00000  Uiso   1.00
H808   H     0.00777   0.46659   0.54482   0.00000  Uiso   1.00
H809   H     0.05771   0.45246   0.69153   0.00000  Uiso   1.00
H810   H     0.02597   0.54747   0.80883   0.00000  Uiso   1.00
H811   H     0.14106   0.46377   0.59627   0.00000  Uiso   1.00
H812   H     0.16118   0.39846   0.64709   0.00000  Uiso   1.00
H813   H     0.21840   0.39711   0.64453   0.00000  Uiso   1.00
H814   H     0.26676   0.54813   0.85687   0.00000  Uiso   1.00
H815   H     0.27988   0.58537   0.80708   0.00000  Uiso   1.00
H816   H     0.32635   0.48984   0.95175   0.00000  Uiso   1.00
N817   N     0.04760   0.50001   0.75002   0.00000  Uiso   1.00
N818   N     0.28573   0.49998   0.75001   0.00000  Uiso   1.00
N819   N     0.18941   0.37856   0.64722   0.00000  Uiso   1.00
N820   N     0.26773   0.55477   0.81664   0.00000  Uiso   1.00
N821   N     0.30134   0.51364   0.96412   0.00000  Uiso   1.00
N822   N     0.02756   0.49380   0.53420   0.00000  Uiso   1.00
O823   O     0.12846   0.56108   0.75001   0.00000  Uiso   1.00
O824   O     0.20490   0.56107   0.75001   0.00000  Uiso   1.00
O825   O     0.10947   0.50000   0.82681   0.00000  Uiso   1.00
O826   O     0.18591   0.49999   0.82681   0.00000  Uiso   1.00
O827   O     0.12843   0.43893   0.75000   0.00000  Uiso   1.00
O828   O     0.20488   0.43892   0.75000   0.00000  Uiso   1.00
O829   O     0.14742   0.50001   0.67319   0.00000  Uiso   1.00
O830   O     0.22387   0.50000   0.67319   0.00000  Uiso   1.00
Zn831  Zn    0.11562   0.50001   0.75000   0.00000  Uiso   1.00
Zn832  Zn    0.21771   0.49999   0.75000   0.00000  Uiso   1.00
C833   C     0.49974   0.57974   0.74937   0.00000  Uiso   1.00
C834   C     0.46289   0.48398   0.91026   0.00000  Uiso   1.00
C835   C     0.48823   0.64470   0.79800   0.00000  Uiso   1.00
C836   C     0.47525   0.49638   0.85205   0.00000  Uiso   1.00
C837   C     0.48773   0.35448   0.79737   0.00000  Uiso   1.00
C838   C     0.50098   0.37611   0.74785   0.00000  Uiso   1.00
C839   C     0.51144   0.35566   0.69797   0.00000  Uiso   1.00
C840   C     0.50981   0.64553   0.69847   0.00000  Uiso   1.00
C841   C     0.49903   0.62394   0.74857   0.00000  Uiso   1.00
C842   C     0.65184   0.47352   0.71747   0.00000  Uiso   1.00
C843   C     0.36605   0.47364   0.71756   0.00000  Uiso   1.00
C844   C     0.48268   0.45470   0.98927   0.00000  Uiso   1.00
C845   C     0.34842   0.52634   0.78263   0.00000  Uiso   1.00
C846   C     0.63393   0.52651   0.78260   0.00000  Uiso   1.00
C847   C     0.50049   0.42026   0.74912   0.00000  Uiso   1.00
C848   C     0.52519   0.49981   0.64789   0.00000  Uiso   1.00
C849   C     0.59399   0.49541   0.99990   0.00000  Uiso   1.00
C850   C     0.53873   0.49290   0.58948   0.00000  Uiso   1.00
C851   C     0.42158   0.49999   0.94645   0.00000  Uiso   1.00
C852   C     0.40556   0.48237   0.99910   0.00000  Uiso   1.00
C853   C     0.43516   0.45564   0.51830   0.00000  Uiso   1.00
C854   C     0.49416   0.45988   0.93257   0.00000  Uiso   1.00
C855   C     0.51836   0.46264   0.51379   0.00000  Uiso   1.00
C856   C     0.56435   0.47006   0.98013   0.00000  Uiso   1.00
C857   C     0.57623   0.45556   0.92633   0.00000  Uiso   1.00
C858   C     0.54017   0.44853   0.90343   0.00000  Uiso   1.00
C859   C     0.50786   0.47128   0.56892   0.00000  Uiso   1.00
C860   C     0.58003   0.50825   0.55411   0.00000  Uiso   1.00
Cl861  Cl    0.61044   0.54829   0.57539   0.00000  Uiso   1.00
Cl862  Cl    0.52089   0.61861   0.63662   0.00000  Uiso   1.00
Cl863  Cl    0.63584   0.43863   0.67453   0.00000  Uiso   1.00
Cl864  Cl    0.63404   0.44161   0.88903   0.00000  Uiso   1.00
Cl865  Cl    0.39542   0.54646   0.92915   0.00000  Uiso   1.00
Cl866  Cl    0.41216   0.42160   0.57459   0.00000  Uiso   1.00
Cl867  Cl    0.55089   0.41397   0.84933   0.00000  Uiso   1.00
Cl868  Cl    0.47595   0.61772   0.86100   0.00000  Uiso   1.00
H869   H     0.47723   0.37109   0.83538   0.00000  Uiso   1.00
H870   H     0.62659   0.52716   0.93051   0.00000  Uiso   1.00
H871   H     0.36564   0.50595   0.56962   0.00000  Uiso   1.00
H872   H     0.34110   0.46659   0.54482   0.00000  Uiso   1.00
H873   H     0.39104   0.45246   0.69153   0.00000  Uiso   1.00
H874   H     0.35930   0.54747   0.80883   0.00000  Uiso   1.00
H875   H     0.47439   0.46377   0.59627   0.00000  Uiso   1.00
H876   H     0.49451   0.39846   0.64709   0.00000  Uiso   1.00
H877   H     0.55173   0.39711   0.64453   0.00000  Uiso   1.00
H878   H     0.60009   0.54813   0.85687   0.00000  Uiso   1.00
H879   H     0.61321   0.58537   0.80708   0.00000  Uiso   1.00
H880   H     0.65969   0.48984   0.95175   0.00000  Uiso   1.00
N881   N     0.38093   0.50001   0.75002   0.00000  Uiso   1.00
N882   N     0.61906   0.49998   0.75001   0.00000  Uiso   1.00
N883   N     0.52274   0.37856   0.64722   0.00000  Uiso   1.00
N884   N     0.60106   0.55477   0.81664   0.00000  Uiso   1.00
N885   N     0.63467   0.51364   0.96412   0.00000  Uiso   1.00
N886   N     0.36089   0.49380   0.53420   0.00000  Uiso   1.00
O887   O     0.46179   0.56108   0.75001   0.00000  Uiso   1.00
O888   O     0.53823   0.56107   0.75001   0.00000  Uiso   1.00
O889   O     0.44280   0.50000   0.82681   0.00000  Uiso   1.00
O890   O     0.51924   0.49999   0.82681   0.00000  Uiso   1.00
O891   O     0.46177   0.43893   0.75000   0.00000  Uiso   1.00
O892   O     0.53821   0.43892   0.75000   0.00000  Uiso   1.00
O893   O     0.48076   0.50001   0.67319   0.00000  Uiso   1.00
O894   O     0.55720   0.50000   0.67319   0.00000  Uiso   1.00
Zn895  Zn    0.44896   0.50001   0.75000   0.00000  Uiso   1.00
Zn896  Zn    0.55104   0.49999   0.75000   0.00000  Uiso   1.00
C897   C     0.83308   0.57974   0.74937   0.00000  Uiso   1.00
C898   C     0.79622   0.48398   0.91026   0.00000  Uiso   1.00
C899   C     0.82157   0.64470   0.79800   0.00000  Uiso   1.00
C900   C     0.80858   0.49638   0.85205   0.00000  Uiso   1.00
C901   C     0.82107   0.35448   0.79737   0.00000  Uiso   1.00
C902   C     0.83431   0.37611   0.74785   0.00000  Uiso   1.00
C903   C     0.84478   0.35566   0.69797   0.00000  Uiso   1.00
C904   C     0.84314   0.64553   0.69847   0.00000  Uiso   1.00
C905   C     0.83236   0.62394   0.74857   0.00000  Uiso   1.00
C906   C     0.98517   0.47352   0.71747   0.00000  Uiso   1.00
C907   C     0.69938   0.47364   0.71756   0.00000  Uiso   1.00
C908   C     0.81601   0.45470   0.98927   0.00000  Uiso   1.00
C909   C     0.68175   0.52634   0.78263   0.00000  Uiso   1.00
C910   C     0.96727   0.52651   0.78260   0.00000  Uiso   1.00
C911   C     0.83382   0.42026   0.74912   0.00000  Uiso   1.00
C912   C     0.85852   0.49981   0.64789   0.00000  Uiso   1.00
C913   C     0.92732   0.49541   0.99990   0.00000  Uiso   1.00
C914   C     0.87207   0.49290   0.58948   0.00000  Uiso   1.00
C915   C     0.75491   0.49999   0.94645   0.00000  Uiso   1.00
C916   C     0.73890   0.48237   0.99910   0.00000  Uiso   1.00
C917   C     0.76849   0.45564   0.51830   0.00000  Uiso   1.00
C918   C     0.82750   0.45988   0.93257   0.00000  Uiso   1.00
C919   C     0.85169   0.46264   0.51379   0.00000  Uiso   1.00
C920   C     0.89768   0.47006   0.98013   0.00000  Uiso   1.00
C921   C     0.90957   0.45556   0.92633   0.00000  Uiso   1.00
C922   C     0.87350   0.44853   0.90343   0.00000  Uiso   1.00
C923   C     0.84119   0.47128   0.56892   0.00000  Uiso   1.00
C924   C     0.91337   0.50825   0.55411   0.00000  Uiso   1.00
Cl925  Cl    0.94377   0.54829   0.57539   0.00000  Uiso   1.00
Cl926  Cl    0.85423   0.61861   0.63662   0.00000  Uiso   1.00
Cl927  Cl    0.96917   0.43863   0.67453   0.00000  Uiso   1.00
Cl928  Cl    0.96737   0.44161   0.88903   0.00000  Uiso   1.00
Cl929  Cl    0.72876   0.54646   0.92915   0.00000  Uiso   1.00
Cl930  Cl    0.74549   0.42160   0.57459   0.00000  Uiso   1.00
Cl931  Cl    0.88423   0.41397   0.84933   0.00000  Uiso   1.00
Cl932  Cl    0.80928   0.61772   0.86100   0.00000  Uiso   1.00
H933   H     0.81057   0.37109   0.83538   0.00000  Uiso   1.00
H934   H     0.95993   0.52716   0.93051   0.00000  Uiso   1.00
H935   H     0.69897   0.50595   0.56962   0.00000  Uiso   1.00
H936   H     0.67443   0.46659   0.54482   0.00000  Uiso   1.00
H937   H     0.72438   0.45246   0.69153   0.00000  Uiso   1.00
H938   H     0.69263   0.54747   0.80883   0.00000  Uiso   1.00
H939   H     0.80773   0.46377   0.59627   0.00000  Uiso   1.00
H940   H     0.82784   0.39846   0.64709   0.00000  Uiso   1.00
H941   H     0.88506   0.39711   0.64453   0.00000  Uiso   1.00
H942   H     0.93342   0.54813   0.85687   0.00000  Uiso   1.00
H943   H     0.94655   0.58537   0.80708   0.00000  Uiso   1.00
H944   H     0.99302   0.48984   0.95175   0.00000  Uiso   1.00
N945   N     0.71426   0.50001   0.75002   0.00000  Uiso   1.00
N946   N     0.95239   0.49998   0.75001   0.00000  Uiso   1.00
N947   N     0.85607   0.37856   0.64722   0.00000  Uiso   1.00
N948   N     0.93439   0.55477   0.81664   0.00000  Uiso   1.00
N949   N     0.96800   0.51364   0.96412   0.00000  Uiso   1.00
N950   N     0.69422   0.49380   0.53420   0.00000  Uiso   1.00
O951   O     0.79512   0.56108   0.75001   0.00000  Uiso   1.00
O952   O     0.87157   0.56107   0.75001   0.00000  Uiso   1.00
O953   O     0.77613   0.50000   0.82681   0.00000  Uiso   1.00
O954   O     0.85258   0.49999   0.82681   0.00000  Uiso   1.00
O955   O     0.79510   0.43893   0.75000   0.00000  Uiso   1.00
O956   O     0.87154   0.43892   0.75000   0.00000  Uiso   1.00
O957   O     0.81409   0.50001   0.67319   0.00000  Uiso   1.00
O958   O     0.89053   0.50000   0.67319   0.00000  Uiso   1.00
Zn959  Zn    0.78229   0.50001   0.75000   0.00000  Uiso   1.00
Zn960  Zn    0.88438   0.49999   0.75000   0.00000  Uiso   1.00
C961   C     0.16641   0.91307   0.74937   0.00000  Uiso   1.00
C962   C     0.12955   0.81731   0.91026   0.00000  Uiso   1.00
C963   C     0.15490   0.97803   0.79800   0.00000  Uiso   1.00
C964   C     0.14192   0.82971   0.85205   0.00000  Uiso   1.00
C965   C     0.15440   0.68782   0.79737   0.00000  Uiso   1.00
C966   C     0.16765   0.70945   0.74785   0.00000  Uiso   1.00
C967   C     0.17811   0.68899   0.69797   0.00000  Uiso   1.00
C968   C     0.17647   0.97886   0.69847   0.00000  Uiso   1.00
C969   C     0.16569   0.95727   0.74857   0.00000  Uiso   1.00
C970   C     0.31850   0.80686   0.71747   0.00000  Uiso   1.00
C971   C     0.03271   0.80698   0.71756   0.00000  Uiso   1.00
C972   C     0.14934   0.78803   0.98927   0.00000  Uiso   1.00
C973   C     0.01508   0.85967   0.78263   0.00000  Uiso   1.00
C974   C     0.30060   0.85985   0.78260   0.00000  Uiso   1.00
C975   C     0.16716   0.75360   0.74912   0.00000  Uiso   1.00
C976   C     0.19186   0.83314   0.64789   0.00000  Uiso   1.00
C977   C     0.26065   0.82874   0.99990   0.00000  Uiso   1.00
C978   C     0.20540   0.82623   0.58948   0.00000  Uiso   1.00
C979   C     0.08824   0.83333   0.94645   0.00000  Uiso   1.00
C980   C     0.07223   0.81571   0.99910   0.00000  Uiso   1.00
C981   C     0.10183   0.78897   0.51830   0.00000  Uiso   1.00
C982   C     0.16083   0.79322   0.93257   0.00000  Uiso   1.00
C983   C     0.18503   0.79597   0.51379   0.00000  Uiso   1.00
C984   C     0.23101   0.80340   0.98013   0.00000  Uiso   1.00
C985   C     0.24290   0.78890   0.92633   0.00000  Uiso   1.00
C986   C     0.20684   0.78186   0.90343   0.00000  Uiso   1.00
C987   C     0.17453   0.80461   0.56892   0.00000  Uiso   1.00
C988   C     0.24670   0.84158   0.55411   0.00000  Uiso   1.00
Cl989  Cl    0.27711   0.88162   0.57539   0.00000  Uiso   1.00
Cl990  Cl    0.18756   0.95194   0.63662   0.00000  Uiso   1.00
Cl991  Cl    0.30250   0.77196   0.67453   0.00000  Uiso   1.00
Cl992  Cl    0.30071   0.77494   0.88903   0.00000  Uiso   1.00
Cl993  Cl    0.06209   0.87979   0.92915   0.00000  Uiso   1.00
Cl994  Cl    0.07883   0.75493   0.57459   0.00000  Uiso   1.00
Cl995  Cl    0.21756   0.74731   0.84933   0.00000  Uiso   1.00
Cl996  Cl    0.14261   0.95105   0.86100   0.00000  Uiso   1.00
H997   H     0.14390   0.70442   0.83538   0.00000  Uiso   1.00
H998   H     0.29326   0.86049   0.93051   0.00000  Uiso   1.00
H999   H     0.03231   0.83928   0.56962   0.00000  Uiso   1.00
H1000  H     0.00777   0.79992   0.54482   0.00000  Uiso   1.00
H1001  H     0.05771   0.78579   0.69153   0.00000  Uiso   1.00
H1002  H     0.02597   0.88081   0.80883   0.00000  Uiso   1.00
H1003  H     0.14106   0.79710   0.59627   0.00000  Uiso   1.00
H1004  H     0.16118   0.73179   0.64709   0.00000  Uiso   1.00
H1005  H     0.21840   0.73045   0.64453   0.00000  Uiso   1.00
H1006  H     0.26676   0.88147   0.85687   0.00000  Uiso   1.00
H1007  H     0.27988   0.91870   0.80708   0.00000  Uiso   1.00
H1008  H     0.32635   0.82317   0.95175   0.00000  Uiso   1.00
N1009  N     0.04760   0.83334   0.75002   0.00000  Uiso   1.00
N1010  N     0.28573   0.83331   0.75001   0.00000  Uiso   1.00
N1011  N     0.18941   0.71189   0.64722   0.00000  Uiso   1.00
N1012  N     0.26773   0.88810   0.81664   0.00000  Uiso   1.00
N1013  N     0.30134   0.84698   0.96412   0.00000  Uiso   1.00
N1014  N     0.02756   0.82714   0.53420   0.00000  Uiso   1.00
O1015  O     0.12846   0.89442   0.75001   0.00000  Uiso   1.00
O1016  O     0.20490   0.89441   0.75001   0.00000  Uiso   1.00
O1017  O     0.10947   0.83333   0.82681   0.00000  Uiso   1.00
O1018  O     0.18591   0.83332   0.82681   0.00000  Uiso   1.00
O1019  O     0.12843   0.77226   0.75000   0.00000  Uiso   1.00
O1020  O     0.20488   0.77225   0.75000   0.00000  Uiso   1.00
O1021  O     0.14742   0.83335   0.67319   0.00000  Uiso   1.00
O1022  O     0.22387   0.83334   0.67319   0.00000  Uiso   1.00
Zn1023 Zn    0.11562   0.83334   0.75000   0.00000  Uiso   1.00
Zn1024 Zn    0.21771   0.83333   0.75000   0.00000  Uiso   1.00
C1025  C     0.49974   0.91307   0.74937   0.00000  Uiso   1.00
C1026  C     0.46289   0.81731   0.91026   0.00000  Uiso   1.00
C1027  C     0.48823   0.97803   0.79800   0.00000  Uiso   1.00
C1028  C     0.47525   0.82971   0.85205   0.00000  Uiso   1.00
C1029  C     0.48773   0.68782   0.79737   0.00000  Uiso   1.00
C1030  C     0.50098   0.70945   0.74785   0.00000  Uiso   1.00
C1031  C     0.51144   0.68899   0.69797   0.00000  Uiso   1.00
C1032  C     0.50981   0.97886   0.69847   0.00000  Uiso   1.00
C1033  C     0.49903   0.95727   0.74857   0.00000  Uiso   1.00
C1034  C     0.65184   0.80686   0.71747   0.00000  Uiso   1.00
C1035  C     0.36605   0.80698   0.71756   0.00000  Uiso   1.00
C1036  C     0.48268   0.78803   0.98927   0.00000  Uiso   1.00
C1037  C     0.34842   0.85967   0.78263   0.00000  Uiso   1.00
C1038  C     0.63393   0.85985   0.78260   0.00000  Uiso   1.00
C1039  C     0.50049   0.75360   0.74912   0.00000  Uiso   1.00
C1040  C     0.52519   0.83314   0.64789   0.00000  Uiso   1.00
C1041  C     0.59399   0.82874   0.99990   0.00000  Uiso   1.00
C1042  C     0.53873   0.82623   0.58948   0.00000  Uiso   1.00
C1043  C     0.42158   0.83333   0.94645   0.00000  Uiso   1.00
C1044  C     0.40556   0.81571   0.99910   0.00000  Uiso   1.00
C1045  C     0.43516   0.78897   0.51830   0.00000  Uiso   1.00
C1046  C     0.49416   0.79322   0.93257   0.00000  Uiso   1.00
C1047  C     0.51836   0.79597   0.51379   0.00000  Uiso   1.00
C1048  C     0.56435   0.80340   0.98013   0.00000  Uiso   1.00
C1049  C     0.57623   0.78890   0.92633   0.00000  Uiso   1.00
C1050  C     0.54017   0.78186   0.90343   0.00000  Uiso   1.00
C1051  C     0.50786   0.80461   0.56892   0.00000  Uiso   1.00
C1052  C     0.58003   0.84158   0.55411   0.00000  Uiso   1.00
Cl1053 Cl    0.61044   0.88162   0.57539   0.00000  Uiso   1.00
Cl1054 Cl    0.52089   0.95194   0.63662   0.00000  Uiso   1.00
Cl1055 Cl    0.63584   0.77196   0.67453   0.00000  Uiso   1.00
Cl1056 Cl    0.63404   0.77494   0.88903   0.00000  Uiso   1.00
Cl1057 Cl    0.39542   0.87979   0.92915   0.00000  Uiso   1.00
Cl1058 Cl    0.41216   0.75493   0.57459   0.00000  Uiso   1.00
Cl1059 Cl    0.55089   0.74731   0.84933   0.00000  Uiso   1.00
Cl1060 Cl    0.47595   0.95105   0.86100   0.00000  Uiso   1.00
H1061  H     0.47723   0.70442   0.83538   0.00000  Uiso   1.00
H1062  H     0.62659   0.86049   0.93051   0.00000  Uiso   1.00
H1063  H     0.36564   0.83928   0.56962   0.00000  Uiso   1.00
H1064  H     0.34110   0.79992   0.54482   0.00000  Uiso   1.00
H1065  H     0.39104   0.78579   0.69153   0.00000  Uiso   1.00
H1066  H     0.35930   0.88081   0.80883   0.00000  Uiso   1.00
H1067  H     0.47439   0.79710   0.59627   0.00000  Uiso   1.00
H1068  H     0.49451   0.73179   0.64709   0.00000  Uiso   1.00
H1069  H     0.55173   0.73045   0.64453   0.00000  Uiso   1.00
H1070  H     0.60009   0.88147   0.85687   0.00000  Uiso   1.00
H1071  H     0.61321   0.91870   0.80708   0.00000  Uiso   1.00
H1072  H     0.65969   0.82317   0.95175   0.00000  Uiso   1.00
N1073  N     0.38093   0.83334   0.75002   0.00000  Uiso   1.00
N1074  N     0.61906   0.83331   0.75001   0.00000  Uiso   1.00
N1075  N     0.52274   0.71189   0.64722   0.00000  Uiso   1.00
N1076  N     0.60106   0.88810   0.81664   0.00000  Uiso   1.00
N1077  N     0.63467   0.84698   0.96412   0.00000  Uiso   1.00
N1078  N     0.36089   0.82714   0.53420   0.00000  Uiso   1.00
O1079  O     0.46179   0.89442   0.75001   0.00000  Uiso   1.00
O1080  O     0.53823   0.89441   0.75001   0.00000  Uiso   1.00
O1081  O     0.44280   0.83333   0.82681   0.00000  Uiso   1.00
O1082  O     0.51924   0.83332   0.82681   0.00000  Uiso   1.00
O1083  O     0.46177   0.77226   0.75000   0.00000  Uiso   1.00
O1084  O     0.53821   0.77225   0.75000   0.00000  Uiso   1.00
O1085  O     0.48076   0.83335   0.67319   0.00000  Uiso   1.00
O1086  O     0.55720   0.83334   0.67319   0.00000  Uiso   1.00
Zn1087 Zn    0.44896   0.83334   0.75000   0.00000  Uiso   1.00
Zn1088 Zn    0.55104   0.83333   0.75000   0.00000  Uiso   1.00
C1089  C     0.83308   0.91307   0.74937   0.00000  Uiso   1.00
C1090  C     0.79622   0.81731   0.91026   0.00000  Uiso   1.00
C1091  C     0.82157   0.97803   0.79800   0.00000  Uiso   1.00
C1092  C     0.80858   0.82971   0.85205   0.00000  Uiso   1.00
C1093  C     0.82107   0.68782   0.79737   0.00000  Uiso   1.00
C1094  C     0.83431   0.70945   0.74785   0.00000  Uiso   1.00
C1095  C     0.84478   0.68899   0.69797   0.00000  Uiso   1.00
C1096  C     0.84314   0.97886   0.69847   0.00000  Uiso   1.00
C1097  C     0.83236   0.95727   0.74857   0.00000  Uiso   1.00
C1098  C     0.98517   0.80686   0.71747   0.00000  Uiso   1.00
C1099  C     0.69938   0.80698   0.71756   0.00000  Uiso   1.00
C1100  C     0.81601   0.78803   0.98927   0.00000  Uiso   1.00
C1101  C     0.68175   0.85967   0.78263   0.00000  Uiso   1.00
C1102  C     0.96727   0.85985   0.78260   0.00000  Uiso   1.00
C1103  C     0.83382   0.75360   0.74912   0.00000  Uiso   1.00
C1104  C     0.85852   0.83314   0.64789   0.00000  Uiso   1.00
C1105  C     0.92732   0.82874   0.99990   0.00000  Uiso   1.00
C1106  C     0.87207   0.82623   0.58948   0.00000  Uiso   1.00
C1107  C     0.75491   0.83333   0.94645   0.00000  Uiso   1.00
C1108  C     0.73890   0.81571   0.99910   0.00000  Uiso   1.00
C1109  C     0.76849   0.78897   0.51830   0.00000  Uiso   1.00
C1110  C     0.82750   0.79322   0.93257   0.00000  Uiso   1.00
C1111  C     0.85169   0.79597   0.51379   0.00000  Uiso   1.00
C1112  C     0.89768   0.80340   0.98013   0.00000  Uiso   1.00
C1113  C     0.90957   0.78890   0.92633   0.00000  Uiso   1.00
C1114  C     0.87350   0.78186   0.90343   0.00000  Uiso   1.00
C1115  C     0.84119   0.80461   0.56892   0.00000  Uiso   1.00
C1116  C     0.91337   0.84158   0.55411   0.00000  Uiso   1.00
Cl1117 Cl    0.94377   0.88162   0.57539   0.00000  Uiso   1.00
Cl1118 Cl    0.85423   0.95194   0.63662   0.00000  Uiso   1.00
Cl1119 Cl    0.96917   0.77196   0.67453   0.00000  Uiso   1.00
Cl1120 Cl    0.96737   0.77494   0.88903   0.00000  Uiso   1.00
Cl1121 Cl    0.72876   0.87979   0.92915   0.00000  Uiso   1.00
Cl1122 Cl    0.74549   0.75493   0.57459   0.00000  Uiso   1.00
Cl1123 Cl    0.88423   0.74731   0.84933   0.00000  Uiso   1.00
Cl1124 Cl    0.80928   0.95105   0.86100   0.00000  Uiso   1.00
H1125  H     0.81057   0.70442   0.83538   0.00000  Uiso   1.00
H1126  H     0.95993   0.86049   0.93051   0.00000  Uiso   1.00
H1127  H     0.69897   0.83928   0.56962   0.00000  Uiso   1.00
H1128  H     0.67443   0.79992   0.54482   0.00000  Uiso   1.00
H1129  H     0.72438   0.78579   0.69153   0.00000  Uiso   1.00
H1130  H     0.69263   0.88081   0.80883   0.00000  Uiso   1.00
H1131  H     0.80773   0.79710   0.59627   0.00000  Uiso   1.00
H1132  H     0.82784   0.73179   0.64709   0.00000  Uiso   1.00
H1133  H     0.88506   0.73045   0.64453   0.00000  Uiso   1.00
H1134  H     0.93342   0.88147   0.85687   0.00000  Uiso   1.00
H1135  H     0.94655   0.91870   0.80708   0.00000  Uiso   1.00
H1136  H     0.99302   0.82317   0.95175   0.00000  Uiso   1.00
N1137  N     0.71426   0.83334   0.75002   0.00000  Uiso   1.00
N1138  N     0.95239   0.83331   0.75001   0.00000  Uiso   1.00
N1139  N     0.85607   0.71189   0.64722   0.00000  Uiso   1.00
N1140  N     0.93439   0.88810   0.81664   0.00000  Uiso   1.00
N1141  N     0.96800   0.84698   0.96412   0.00000  Uiso   1.00
N1142  N     0.69422   0.82714   0.53420   0.00000  Uiso   1.00
O1143  O     0.79512   0.89442   0.75001   0.00000  Uiso   1.00
O1144  O     0.87157   0.89441   0.75001   0.00000  Uiso   1.00
O1145  O     0.77613   0.83333   0.82681   0.00000  Uiso   1.00
O1146  O     0.85258   0.83332   0.82681   0.00000  Uiso   1.00
O1147  O     0.79510   0.77226   0.75000   0.00000  Uiso   1.00
O1148  O     0.87154   0.77225   0.75000   0.00000  Uiso   1.00
O1149  O     0.81409   0.83335   0.67319   0.00000  Uiso   1.00
O1150  O     0.89053   0.83334   0.67319   0.00000  Uiso   1.00
Zn1151 Zn    0.78229   0.83334   0.75000   0.00000  Uiso   1.00
Zn1152 Zn    0.88438   0.83333   0.75000   0.00000  Uiso   1.00
loop_
_geom_bond_atom_site_label_1
_geom_bond_atom_site_label_2
_geom_bond_distance
_geom_bond_site_symmetry_2
_ccdc_geom_bond_type
C1     O55     1.289   .     A
C1     O56     1.288   .     A
C1     C9      1.405   .     S
C2     C22     1.433   .     A
C2     C4      1.481   .     S
C2     C19     1.408   .     A
C3     C9      1.396   .     A
C3     Cl36    1.761   .     S
C3     C197    1.371   .     S
C4     O57     1.318   .     A
C4     O58     1.295   .     A
C5     C6      1.390   .     A
C5     H37     1.083   .     S
C5     C387    1.371   1_545 S
C6     C7      1.402   .     A
C6     C15     1.405   .     S
C7     N51     1.435   .     S
C7     C392    1.384   1_545 S
C8     Cl30    1.767   .     S
C8     C9      1.402   .     A
C8     C199    1.384   .     S
C10    Cl31    1.752   .     S
C10    N50     1.375   .     A
C10    C75     1.424   .     S
C11    N49     1.366   .     A
C11    H41     1.082   .     S
C11    C138    1.424   1_455 S
C12    C22     1.405   .     A
C12    C597    1.402   .     S
C12    C599    1.419   .     S
C13    H42     1.082   .     S
C13    N49     1.369   .     A
C13    C142    1.432   1_455 S
C14    N50     1.372   .     A
C14    N52     1.428   .     S
C14    C77     1.432   .     S
C15    O60     1.294   .     A
C15    O59     1.285   .     A
C16    O62     1.306   .     A
C16    O61     1.300   .     A
C16    C18     1.459   .     S
C17    C24     1.418   .     A
C17    N53     1.422   .     S
C17    C604    1.403   .     S
C18    C27     1.392   .     A
C18    C28     1.396   .     A
C19    C20     1.407   .     A
C19    Cl33    1.765   .     S
C20    C597    1.397   .     S
C20    N630    1.424   .     S
C21    Cl34    1.768   .     S
C21    C588    1.402   1_554 S
C21    C596    1.397   1_554 S
C22    C26     1.407   .     A
C23    C27     1.394   .     A
C23    C588    1.419   1_554 S
C23    C600    1.419   1_554 S
C24    C25     1.412   .     A
C24    C599    1.419   .     S
C25    Cl32    1.771   .     S
C25    C26     1.396   .     A
C26    Cl35    1.745   .     S
C27    H43     1.072   .     S
C28    Cl29    1.768   .     S
C28    C593    1.403   1_554 S
H38    N53     1.044   .     S
H39    N54     1.046   .     S
H40    N54     1.045   .     S
H44    N51     1.045   .     S
H45    N51     1.045   .     S
H46    N52     1.044   .     S
H47    N52     1.045   .     S
H48    N53     1.040   .     S
N49    Zn63    2.037   .     S
N50    Zn64    2.036   .     S
N54    C596    1.424   1_554 S
O55    Zn63    1.989   .     S
O56    Zn64    1.971   .     S
O57    Zn63    1.931   .     S
O58    Zn64    1.929   .     S
O59    Zn63    1.971   .     S
O60    Zn64    1.989   .     S
O61    Zn63    1.929   .     S
O62    Zn64    1.931   .     S
C65    O119    1.289   .     A
C65    O120    1.288   .     A
C65    C73     1.405   .     S
C66    C86     1.433   .     A
C66    C68     1.481   .     S
C66    C83     1.408   .     A
C67    C73     1.396   .     A
C67    Cl100   1.761   .     S
C67    C261    1.371   .     S
C68    O121    1.318   .     A
C68    O122    1.295   .     A
C69    C70     1.390   .     A
C69    H101    1.083   .     S
C69    C451    1.371   1_545 S
C70    C71     1.402   .     A
C70    C79     1.405   .     S
C71    N115    1.435   .     S
C71    C456    1.384   1_545 S
C72    Cl94    1.767   .     S
C72    C73     1.402   .     A
C72    C263    1.384   .     S
C74    Cl95    1.752   .     S
C74    N114    1.375   .     A
C74    C139    1.424   .     S
C75    N113    1.366   .     A
C75    H105    1.082   .     S
C76    C86     1.405   .     A
C76    C661    1.402   .     S
C76    C663    1.419   .     S
C77    H106    1.082   .     S
C77    N113    1.369   .     A
C78    N114    1.372   .     A
C78    N116    1.428   .     S
C78    C141    1.432   .     S
C79    O124    1.294   .     A
C79    O123    1.285   .     A
C80    O126    1.306   .     A
C80    O125    1.300   .     A
C80    C82     1.459   .     S
C81    C88     1.418   .     A
C81    N117    1.422   .     S
C81    C668    1.403   .     S
C82    C91     1.392   .     A
C82    C92     1.396   .     A
C83    C84     1.407   .     A
C83    Cl97    1.765   .     S
C84    C661    1.397   .     S
C84    N694    1.424   .     S
C85    Cl98    1.768   .     S
C85    C652    1.402   1_554 S
C85    C660    1.397   1_554 S
C86    C90     1.407   .     A
C87    C91     1.394   .     A
C87    C652    1.419   1_554 S
C87    C664    1.419   1_554 S
C88    C89     1.412   .     A
C88    C663    1.419   .     S
C89    Cl96    1.771   .     S
C89    C90     1.396   .     A
C90    Cl99    1.745   .     S
C91    H107    1.072   .     S
C92    Cl93    1.768   .     S
C92    C657    1.403   1_554 S
H102   N117    1.044   .     S
H103   N118    1.046   .     S
H104   N118    1.045   .     S
H108   N115    1.045   .     S
H109   N115    1.045   .     S
H110   N116    1.044   .     S
H111   N116    1.045   .     S
H112   N117    1.040   .     S
N113   Zn127   2.037   .     S
N114   Zn128   2.036   .     S
N118   C660    1.424   1_554 S
O119   Zn127   1.989   .     S
O120   Zn128   1.971   .     S
O121   Zn127   1.931   .     S
O122   Zn128   1.929   .     S
O123   Zn127   1.971   .     S
O124   Zn128   1.989   .     S
O125   Zn127   1.929   .     S
O126   Zn128   1.931   .     S
C129   O183    1.289   .     A
C129   O184    1.288   .     A
C129   C137    1.405   .     S
C130   C150    1.433   .     A
C130   C132    1.481   .     S
C130   C147    1.408   .     A
C131   C137    1.396   .     A
C131   Cl164   1.761   .     S
C131   C325    1.371   .     S
C132   O185    1.318   .     A
C132   O186    1.295   .     A
C133   C134    1.390   .     A
C133   H165    1.083   .     S
C133   C515    1.371   1_545 S
C134   C135    1.402   .     A
C134   C143    1.405   .     S
C135   N179    1.435   .     S
C135   C520    1.384   1_545 S
C136   Cl158   1.767   .     S
C136   C137    1.402   .     A
C136   C327    1.384   .     S
C138   Cl159   1.752   .     S
C138   N178    1.375   .     A
C138   C11     1.424   1_655 S
C139   N177    1.366   .     A
C139   H169    1.082   .     S
C140   C150    1.405   .     A
C140   C725    1.402   .     S
C140   C727    1.419   .     S
C141   H170    1.082   .     S
C141   N177    1.369   .     A
C142   N178    1.372   .     A
C142   N180    1.428   .     S
C142   C13     1.432   1_655 S
C143   O188    1.294   .     A
C143   O187    1.285   .     A
C144   O190    1.306   .     A
C144   O189    1.300   .     A
C144   C146    1.459   .     S
C145   C152    1.418   .     A
C145   N181    1.422   .     S
C145   C732    1.403   .     S
C146   C155    1.392   .     A
C146   C156    1.396   .     A
C147   C148    1.407   .     A
C147   Cl161   1.765   .     S
C148   C725    1.397   .     S
C148   N758    1.424   .     S
C149   Cl162   1.768   .     S
C149   C716    1.402   1_554 S
C149   C724    1.397   1_554 S
C150   C154    1.407   .     A
C151   C155    1.394   .     A
C151   C716    1.419   1_554 S
C151   C728    1.419   1_554 S
C152   C153    1.412   .     A
C152   C727    1.419   .     S
C153   Cl160   1.771   .     S
C153   C154    1.396   .     A
C154   Cl163   1.745   .     S
C155   H171    1.072   .     S
C156   Cl157   1.768   .     S
C156   C721    1.403   1_554 S
H166   N181    1.044   .     S
H167   N182    1.046   .     S
H168   N182    1.045   .     S
H172   N179    1.045   .     S
H173   N179    1.045   .     S
H174   N180    1.044   .     S
H175   N180    1.045   .     S
H176   N181    1.040   .     S
N177   Zn191   2.037   .     S
N178   Zn192   2.036   .     S
N182   C724    1.424   1_554 S
O183   Zn191   1.989   .     S
O184   Zn192   1.971   .     S
O185   Zn191   1.931   .     S
O186   Zn192   1.929   .     S
O187   Zn191   1.971   .     S
O188   Zn192   1.989   .     S
O189   Zn191   1.929   .     S
O190   Zn192   1.931   .     S
C193   O247    1.289   .     A
C193   O248    1.288   .     A
C193   C201    1.405   .     S
C194   C214    1.433   .     A
C194   C196    1.481   .     S
C194   C211    1.408   .     A
C195   C201    1.396   .     A
C195   Cl228   1.761   .     S
C195   C389    1.371   .     S
C196   O249    1.318   .     A
C196   O250    1.295   .     A
C197   C198    1.390   .     A
C197   H229    1.083   .     S
C198   C199    1.402   .     A
C198   C207    1.405   .     S
C199   N243    1.435   .     S
C200   Cl222   1.767   .     S
C200   C201    1.402   .     A
C200   C391    1.384   .     S
C202   Cl223   1.752   .     S
C202   N242    1.375   .     A
C202   C267    1.424   .     S
C203   N241    1.366   .     A
C203   H233    1.082   .     S
C203   C330    1.424   1_455 S
C204   C214    1.405   .     A
C204   C789    1.402   .     S
C204   C791    1.419   .     S
C205   H234    1.082   .     S
C205   N241    1.369   .     A
C205   C334    1.432   1_455 S
C206   N242    1.372   .     A
C206   N244    1.428   .     S
C206   C269    1.432   .     S
C207   O252    1.294   .     A
C207   O251    1.285   .     A
C208   O254    1.306   .     A
C208   O253    1.300   .     A
C208   C210    1.459   .     S
C209   C216    1.418   .     A
C209   N245    1.422   .     S
C209   C796    1.403   .     S
C210   C219    1.392   .     A
C210   C220    1.396   .     A
C211   C212    1.407   .     A
C211   Cl225   1.765   .     S
C212   C789    1.397   .     S
C212   N822    1.424   .     S
C213   Cl226   1.768   .     S
C213   C780    1.402   1_554 S
C213   C788    1.397   1_554 S
C214   C218    1.407   .     A
C215   C219    1.394   .     A
C215   C780    1.419   1_554 S
C215   C792    1.419   1_554 S
C216   C217    1.412   .     A
C216   C791    1.419   .     S
C217   Cl224   1.771   .     S
C217   C218    1.396   .     A
C218   Cl227   1.745   .     S
C219   H235    1.072   .     S
C220   Cl221   1.768   .     S
C220   C785    1.403   1_554 S
H230   N245    1.044   .     S
H231   N246    1.046   .     S
H232   N246    1.045   .     S
H236   N243    1.045   .     S
H237   N243    1.045   .     S
H238   N244    1.044   .     S
H239   N244    1.045   .     S
H240   N245    1.040   .     S
N241   Zn255   2.037   .     S
N242   Zn256   2.036   .     S
N246   C788    1.424   1_554 S
O247   Zn255   1.989   .     S
O248   Zn256   1.971   .     S
O249   Zn255   1.931   .     S
O250   Zn256   1.929   .     S
O251   Zn255   1.971   .     S
O252   Zn256   1.989   .     S
O253   Zn255   1.929   .     S
O254   Zn256   1.931   .     S
C257   O311    1.289   .     A
C257   O312    1.288   .     A
C257   C265    1.405   .     S
C258   C278    1.433   .     A
C258   C260    1.481   .     S
C258   C275    1.408   .     A
C259   C265    1.396   .     A
C259   Cl292   1.761   .     S
C259   C453    1.371   .     S
C260   O313    1.318   .     A
C260   O314    1.295   .     A
C261   C262    1.390   .     A
C261   H293    1.083   .     S
C262   C263    1.402   .     A
C262   C271    1.405   .     S
C263   N307    1.435   .     S
C264   Cl286   1.767   .     S
C264   C265    1.402   .     A
C264   C455    1.384   .     S
C266   Cl287   1.752   .     S
C266   N306    1.375   .     A
C266   C331    1.424   .     S
C267   N305    1.366   .     A
C267   H297    1.082   .     S
C268   C278    1.405   .     A
C268   C853    1.402   .     S
C268   C855    1.419   .     S
C269   H298    1.082   .     S
C269   N305    1.369   .     A
C270   N306    1.372   .     A
C270   N308    1.428   .     S
C270   C333    1.432   .     S
C271   O316    1.294   .     A
C271   O315    1.285   .     A
C272   O318    1.306   .     A
C272   O317    1.300   .     A
C272   C274    1.459   .     S
C273   C280    1.418   .     A
C273   N309    1.422   .     S
C273   C860    1.403   .     S
C274   C283    1.392   .     A
C274   C284    1.396   .     A
C275   C276    1.407   .     A
C275   Cl289   1.765   .     S
C276   C853    1.397   .     S
C276   N886    1.424   .     S
C277   Cl290   1.768   .     S
C277   C844    1.402   1_554 S
C277   C852    1.397   1_554 S
C278   C282    1.407   .     A
C279   C283    1.394   .     A
C279   C844    1.419   1_554 S
C279   C856    1.419   1_554 S
C280   C281    1.412   .     A
C280   C855    1.419   .     S
C281   Cl288   1.771   .     S
C281   C282    1.396   .     A
C282   Cl291   1.745   .     S
C283   H299    1.072   .     S
C284   Cl285   1.768   .     S
C284   C849    1.403   1_554 S
H294   N309    1.044   .     S
H295   N310    1.046   .     S
H296   N310    1.045   .     S
H300   N307    1.045   .     S
H301   N307    1.045   .     S
H302   N308    1.044   .     S
H303   N308    1.045   .     S
H304   N309    1.040   .     S
N305   Zn319   2.037   .     S
N306   Zn320   2.036   .     S
N310   C852    1.424   1_554 S
O311   Zn319   1.989   .     S
O312   Zn320   1.971   .     S
O313   Zn319   1.931   .     S
O314   Zn320   1.929   .     S
O315   Zn319   1.971   .     S
O316   Zn320   1.989   .     S
O317   Zn319   1.929   .     S
O318   Zn320   1.931   .     S
C321   O375    1.289   .     A
C321   O376    1.288   .     A
C321   C329    1.405   .     S
C322   C342    1.433   .     A
C322   C324    1.481   .     S
C322   C339    1.408   .     A
C323   C329    1.396   .     A
C323   Cl356   1.761   .     S
C323   C517    1.371   .     S
C324   O377    1.318   .     A
C324   O378    1.295   .     A
C325   C326    1.390   .     A
C325   H357    1.083   .     S
C326   C327    1.402   .     A
C326   C335    1.405   .     S
C327   N371    1.435   .     S
C328   Cl350   1.767   .     S
C328   C329    1.402   .     A
C328   C519    1.384   .     S
C330   Cl351   1.752   .     S
C330   N370    1.375   .     A
C330   C203    1.424   1_655 S
C331   N369    1.366   .     A
C331   H361    1.082   .     S
C332   C342    1.405   .     A
C332   C917    1.402   .     S
C332   C919    1.419   .     S
C333   H362    1.082   .     S
C333   N369    1.369   .     A
C334   N370    1.372   .     A
C334   N372    1.428   .     S
C334   C205    1.432   1_655 S
C335   O380    1.294   .     A
C335   O379    1.285   .     A
C336   O382    1.306   .     A
C336   O381    1.300   .     A
C336   C338    1.459   .     S
C337   C344    1.418   .     A
C337   N373    1.422   .     S
C337   C924    1.403   .     S
C338   C347    1.392   .     A
C338   C348    1.396   .     A
C339   C340    1.407   .     A
C339   Cl353   1.765   .     S
C340   C917    1.397   .     S
C340   N950    1.424   .     S
C341   Cl354   1.768   .     S
C341   C908    1.402   1_554 S
C341   C916    1.397   1_554 S
C342   C346    1.407   .     A
C343   C347    1.394   .     A
C343   C908    1.419   1_554 S
C343   C920    1.419   1_554 S
C344   C345    1.412   .     A
C344   C919    1.419   .     S
C345   Cl352   1.771   .     S
C345   C346    1.396   .     A
C346   Cl355   1.745   .     S
C347   H363    1.072   .     S
C348   Cl349   1.768   .     S
C348   C913    1.403   1_554 S
H358   N373    1.044   .     S
H359   N374    1.046   .     S
H360   N374    1.045   .     S
H364   N371    1.045   .     S
H365   N371    1.045   .     S
H366   N372    1.044   .     S
H367   N372    1.045   .     S
H368   N373    1.040   .     S
N369   Zn383   2.037   .     S
N370   Zn384   2.036   .     S
N374   C916    1.424   1_554 S
O375   Zn383   1.989   .     S
O376   Zn384   1.971   .     S
O377   Zn383   1.931   .     S
O378   Zn384   1.929   .     S
O379   Zn383   1.971   .     S
O380   Zn384   1.989   .     S
O381   Zn383   1.929   .     S
O382   Zn384   1.931   .     S
C385   O439    1.289   .     A
C385   O440    1.288   .     A
C385   C393    1.405   .     S
C386   C406    1.433   .     A
C386   C388    1.481   .     S
C386   C403    1.408   .     A
C387   C393    1.396   .     A
C387   Cl420   1.761   .     S
C387   C5      1.371   1_565 S
C388   O441    1.318   .     A
C388   O442    1.295   .     A
C389   C390    1.390   .     A
C389   H421    1.083   .     S
C390   C391    1.402   .     A
C390   C399    1.405   .     S
C391   N435    1.435   .     S
C392   Cl414   1.767   .     S
C392   C393    1.402   .     A
C392   C7      1.384   1_565 S
C394   Cl415   1.752   .     S
C394   N434    1.375   .     A
C394   C459    1.424   .     S
C395   N433    1.366   .     A
C395   H425    1.082   .     S
C395   C522    1.424   1_455 S
C396   C406    1.405   .     A
C396   C981    1.402   .     S
C396   C983    1.419   .     S
C397   H426    1.082   .     S
C397   N433    1.369   .     A
C397   C526    1.432   1_455 S
C398   N434    1.372   .     A
C398   N436    1.428   .     S
C398   C461    1.432   .     S
C399   O444    1.294   .     A
C399   O443    1.285   .     A
C400   O446    1.306   .     A
C400   O445    1.300   .     A
C400   C402    1.459   .     S
C401   C408    1.418   .     A
C401   N437    1.422   .     S
C401   C988    1.403   .     S
C402   C411    1.392   .     A
C402   C412    1.396   .     A
C403   C404    1.407   .     A
C403   Cl417   1.765   .     S
C404   C981    1.397   .     S
C404   N1014   1.424   .     S
C405   Cl418   1.768   .     S
C405   C972    1.402   1_554 S
C405   C980    1.397   1_554 S
C406   C410    1.407   .     A
C407   C411    1.394   .     A
C407   C972    1.419   1_554 S
C407   C984    1.419   1_554 S
C408   C409    1.412   .     A
C408   C983    1.419   .     S
C409   Cl416   1.771   .     S
C409   C410    1.396   .     A
C410   Cl419   1.745   .     S
C411   H427    1.072   .     S
C412   Cl413   1.768   .     S
C412   C977    1.403   1_554 S
H422   N437    1.044   .     S
H423   N438    1.046   .     S
H424   N438    1.045   .     S
H428   N435    1.045   .     S
H429   N435    1.045   .     S
H430   N436    1.044   .     S
H431   N436    1.045   .     S
H432   N437    1.040   .     S
N433   Zn447   2.037   .     S
N434   Zn448   2.036   .     S
N438   C980    1.424   1_554 S
O439   Zn447   1.989   .     S
O440   Zn448   1.971   .     S
O441   Zn447   1.931   .     S
O442   Zn448   1.929   .     S
O443   Zn447   1.971   .     S
O444   Zn448   1.989   .     S
O445   Zn447   1.929   .     S
O446   Zn448   1.931   .     S
C449   O503    1.289   .     A
C449   O504    1.288   .     A
C449   C457    1.405   .     S
C450   C470    1.433   .     A
C450   C452    1.481   .     S
C450   C467    1.408   .     A
C451   C457    1.396   .     A
C451   Cl484   1.761   .     S
C451   C69     1.371   1_565 S
C452   O505    1.318   .     A
C452   O506    1.295   .     A
C453   C454    1.390   .     A
C453   H485    1.083   .     S
C454   C455    1.402   .     A
C454   C463    1.405   .     S
C455   N499    1.435   .     S
C456   Cl478   1.767   .     S
C456   C457    1.402   .     A
C456   C71     1.384   1_565 S
C458   Cl479   1.752   .     S
C458   N498    1.375   .     A
C458   C523    1.424   .     S
C459   N497    1.366   .     A
C459   H489    1.082   .     S
C460   C470    1.405   .     A
C460   C1045   1.402   .     S
C460   C1047   1.419   .     S
C461   H490    1.082   .     S
C461   N497    1.369   .     A
C462   N498    1.372   .     A
C462   N500    1.428   .     S
C462   C525    1.432   .     S
C463   O508    1.294   .     A
C463   O507    1.285   .     A
C464   O510    1.306   .     A
C464   O509    1.300   .     A
C464   C466    1.459   .     S
C465   C472    1.418   .     A
C465   N501    1.422   .     S
C465   C1052   1.403   .     S
C466   C475    1.392   .     A
C466   C476    1.396   .     A
C467   C468    1.407   .     A
C467   Cl481   1.765   .     S
C468   C1045   1.397   .     S
C468   N1078   1.424   .     S
C469   Cl482   1.768   .     S
C469   C1036   1.402   1_554 S
C469   C1044   1.397   1_554 S
C470   C474    1.407   .     A
C471   C475    1.394   .     A
C471   C1036   1.419   1_554 S
C471   C1048   1.419   1_554 S
C472   C473    1.412   .     A
C472   C1047   1.419   .     S
C473   Cl480   1.771   .     S
C473   C474    1.396   .     A
C474   Cl483   1.745   .     S
C475   H491    1.072   .     S
C476   Cl477   1.768   .     S
C476   C1041   1.403   1_554 S
H486   N501    1.044   .     S
H487   N502    1.046   .     S
H488   N502    1.045   .     S
H492   N499    1.045   .     S
H493   N499    1.045   .     S
H494   N500    1.044   .     S
H495   N500    1.045   .     S
H496   N501    1.040   .     S
N497   Zn511   2.037   .     S
N498   Zn512   2.036   .     S
N502   C1044   1.424   1_554 S
O503   Zn511   1.989   .     S
O504   Zn512   1.971   .     S
O505   Zn511   1.931   .     S
O506   Zn512   1.929   .     S
O507   Zn511   1.971   .     S
O508   Zn512   1.989   .     S
O509   Zn511   1.929   .     S
O510   Zn512   1.931   .     S
C513   O567    1.289   .     A
C513   O568    1.288   .     A
C513   C521    1.405   .     S
C514   C534    1.433   .     A
C514   C516    1.481   .     S
C514   C531    1.408   .     A
C515   C521    1.396   .     A
C515   Cl548   1.761   .     S
C515   C133    1.371   1_565 S
C516   O569    1.318   .     A
C516   O570    1.295   .     A
C517   C518    1.390   .     A
C517   H549    1.083   .     S
C518   C519    1.402   .     A
C518   C527    1.405   .     S
C519   N563    1.435   .     S
C520   Cl542   1.767   .     S
C520   C521    1.402   .     A
C520   C135    1.384   1_565 S
C522   Cl543   1.752   .     S
C522   N562    1.375   .     A
C522   C395    1.424   1_655 S
C523   N561    1.366   .     A
C523   H553    1.082   .     S
C524   C534    1.405   .     A
C524   C1109   1.402   .     S
C524   C1111   1.419   .     S
C525   H554    1.082   .     S
C525   N561    1.369   .     A
C526   N562    1.372   .     A
C526   N564    1.428   .     S
C526   C397    1.432   1_655 S
C527   O572    1.294   .     A
C527   O571    1.285   .     A
C528   O574    1.306   .     A
C528   O573    1.300   .     A
C528   C530    1.459   .     S
C529   C536    1.418   .     A
C529   N565    1.422   .     S
C529   C1116   1.403   .     S
C530   C539    1.392   .     A
C530   C540    1.396   .     A
C531   C532    1.407   .     A
C531   Cl545   1.765   .     S
C532   C1109   1.397   .     S
C532   N1142   1.424   .     S
C533   Cl546   1.768   .     S
C533   C1100   1.402   1_554 S
C533   C1108   1.397   1_554 S
C534   C538    1.407   .     A
C535   C539    1.394   .     A
C535   C1100   1.419   1_554 S
C535   C1112   1.419   1_554 S
C536   C537    1.412   .     A
C536   C1111   1.419   .     S
C537   Cl544   1.771   .     S
C537   C538    1.396   .     A
C538   Cl547   1.745   .     S
C539   H555    1.072   .     S
C540   Cl541   1.768   .     S
C540   C1105   1.403   1_554 S
H550   N565    1.044   .     S
H551   N566    1.046   .     S
H552   N566    1.045   .     S
H556   N563    1.045   .     S
H557   N563    1.045   .     S
H558   N564    1.044   .     S
H559   N564    1.045   .     S
H560   N565    1.040   .     S
N561   Zn575   2.037   .     S
N562   Zn576   2.036   .     S
N566   C1108   1.424   1_554 S
O567   Zn575   1.989   .     S
O568   Zn576   1.971   .     S
O569   Zn575   1.931   .     S
O570   Zn576   1.929   .     S
O571   Zn575   1.971   .     S
O572   Zn576   1.989   .     S
O573   Zn575   1.929   .     S
O574   Zn576   1.931   .     S
C577   O631    1.289   .     A
C577   O632    1.288   .     A
C577   C585    1.405   .     S
C578   C598    1.433   .     A
C578   C580    1.481   .     S
C578   C595    1.408   .     A
C579   C585    1.396   .     A
C579   Cl612   1.761   .     S
C579   C773    1.371   .     S
C580   O633    1.318   .     A
C580   O634    1.295   .     A
C581   C582    1.390   .     A
C581   H613    1.083   .     S
C581   C963    1.371   1_545 S
C582   C583    1.402   .     A
C582   C591    1.405   .     S
C583   N627    1.435   .     S
C583   C968    1.384   1_545 S
C584   Cl606   1.767   .     S
C584   C585    1.402   .     A
C584   C775    1.384   .     S
C586   Cl607   1.752   .     S
C586   N626    1.375   .     A
C586   C651    1.424   .     S
C587   N625    1.366   .     A
C587   H617    1.082   .     S
C587   C714    1.424   1_455 S
C588   C598    1.405   .     A
C588   C21     1.402   1_556 S
C588   C23     1.419   1_556 S
C589   H618    1.082   .     S
C589   N625    1.369   .     A
C589   C718    1.432   1_455 S
C590   N626    1.372   .     A
C590   N628    1.428   .     S
C590   C653    1.432   .     S
C591   O636    1.294   .     A
C591   O635    1.285   .     A
C592   O638    1.306   .     A
C592   O637    1.300   .     A
C592   C594    1.459   .     S
C593   C600    1.418   .     A
C593   N629    1.422   .     S
C593   C28     1.403   1_556 S
C594   C603    1.392   .     A
C594   C604    1.396   .     A
C595   C596    1.407   .     A
C595   Cl609   1.765   .     S
C596   C21     1.397   1_556 S
C596   N54     1.424   1_556 S
C597   Cl610   1.768   .     S
C598   C602    1.407   .     A
C599   C603    1.394   .     A
C600   C601    1.412   .     A
C600   C23     1.419   1_556 S
C601   Cl608   1.771   .     S
C601   C602    1.396   .     A
C602   Cl611   1.745   .     S
C603   H619    1.072   .     S
C604   Cl605   1.768   .     S
H614   N629    1.044   .     S
H615   N630    1.046   .     S
H616   N630    1.045   .     S
H620   N627    1.045   .     S
H621   N627    1.045   .     S
H622   N628    1.044   .     S
H623   N628    1.045   .     S
H624   N629    1.040   .     S
N625   Zn639   2.037   .     S
N626   Zn640   2.036   .     S
O631   Zn639   1.989   .     S
O632   Zn640   1.971   .     S
O633   Zn639   1.931   .     S
O634   Zn640   1.929   .     S
O635   Zn639   1.971   .     S
O636   Zn640   1.989   .     S
O637   Zn639   1.929   .     S
O638   Zn640   1.931   .     S
C641   O695    1.289   .     A
C641   O696    1.288   .     A
C641   C649    1.405   .     S
C642   C662    1.433   .     A
C642   C644    1.481   .     S
C642   C659    1.408   .     A
C643   C649    1.396   .     A
C643   Cl676   1.761   .     S
C643   C837    1.371   .     S
C644   O697    1.318   .     A
C644   O698    1.295   .     A
C645   C646    1.390   .     A
C645   H677    1.083   .     S
C645   C1027   1.371   1_545 S
C646   C647    1.402   .     A
C646   C655    1.405   .     S
C647   N691    1.435   .     S
C647   C1032   1.384   1_545 S
C648   Cl670   1.767   .     S
C648   C649    1.402   .     A
C648   C839    1.384   .     S
C650   Cl671   1.752   .     S
C650   N690    1.375   .     A
C650   C715    1.424   .     S
C651   N689    1.366   .     A
C651   H681    1.082   .     S
C652   C662    1.405   .     A
C652   C85     1.402   1_556 S
C652   C87     1.419   1_556 S
C653   H682    1.082   .     S
C653   N689    1.369   .     A
C654   N690    1.372   .     A
C654   N692    1.428   .     S
C654   C717    1.432   .     S
C655   O700    1.294   .     A
C655   O699    1.285   .     A
C656   O702    1.306   .     A
C656   O701    1.300   .     A
C656   C658    1.459   .     S
C657   C664    1.418   .     A
C657   N693    1.422   .     S
C657   C92     1.403   1_556 S
C658   C667    1.392   .     A
C658   C668    1.396   .     A
C659   C660    1.407   .     A
C659   Cl673   1.765   .     S
C660   C85     1.397   1_556 S
C660   N118    1.424   1_556 S
C661   Cl674   1.768   .     S
C662   C666    1.407   .     A
C663   C667    1.394   .     A
C664   C665    1.412   .     A
C664   C87     1.419   1_556 S
C665   Cl672   1.771   .     S
C665   C666    1.396   .     A
C666   Cl675   1.745   .     S
C667   H683    1.072   .     S
C668   Cl669   1.768   .     S
H678   N693    1.044   .     S
H679   N694    1.046   .     S
H680   N694    1.045   .     S
H684   N691    1.045   .     S
H685   N691    1.045   .     S
H686   N692    1.044   .     S
H687   N692    1.045   .     S
H688   N693    1.040   .     S
N689   Zn703   2.037   .     S
N690   Zn704   2.036   .     S
O695   Zn703   1.989   .     S
O696   Zn704   1.971   .     S
O697   Zn703   1.931   .     S
O698   Zn704   1.929   .     S
O699   Zn703   1.971   .     S
O700   Zn704   1.989   .     S
O701   Zn703   1.929   .     S
O702   Zn704   1.931   .     S
C705   O759    1.289   .     A
C705   O760    1.288   .     A
C705   C713    1.405   .     S
C706   C726    1.433   .     A
C706   C708    1.481   .     S
C706   C723    1.408   .     A
C707   C713    1.396   .     A
C707   Cl740   1.761   .     S
C707   C901    1.371   .     S
C708   O761    1.318   .     A
C708   O762    1.295   .     A
C709   C710    1.390   .     A
C709   H741    1.083   .     S
C709   C1091   1.371   1_545 S
C710   C711    1.402   .     A
C710   C719    1.405   .     S
C711   N755    1.435   .     S
C711   C1096   1.384   1_545 S
C712   Cl734   1.767   .     S
C712   C713    1.402   .     A
C712   C903    1.384   .     S
C714   Cl735   1.752   .     S
C714   N754    1.375   .     A
C714   C587    1.424   1_655 S
C715   N753    1.366   .     A
C715   H745    1.082   .     S
C716   C726    1.405   .     A
C716   C149    1.402   1_556 S
C716   C151    1.419   1_556 S
C717   H746    1.082   .     S
C717   N753    1.369   .     A
C718   N754    1.372   .     A
C718   N756    1.428   .     S
C718   C589    1.432   1_655 S
C719   O764    1.294   .     A
C719   O763    1.285   .     A
C720   O766    1.306   .     A
C720   O765    1.300   .     A
C720   C722    1.459   .     S
C721   C728    1.418   .     A
C721   N757    1.422   .     S
C721   C156    1.403   1_556 S
C722   C731    1.392   .     A
C722   C732    1.396   .     A
C723   C724    1.407   .     A
C723   Cl737   1.765   .     S
C724   C149    1.397   1_556 S
C724   N182    1.424   1_556 S
C725   Cl738   1.768   .     S
C726   C730    1.407   .     A
C727   C731    1.394   .     A
C728   C729    1.412   .     A
C728   C151    1.419   1_556 S
C729   Cl736   1.771   .     S
C729   C730    1.396   .     A
C730   Cl739   1.745   .     S
C731   H747    1.072   .     S
C732   Cl733   1.768   .     S
H742   N757    1.044   .     S
H743   N758    1.046   .     S
H744   N758    1.045   .     S
H748   N755    1.045   .     S
H749   N755    1.045   .     S
H750   N756    1.044   .     S
H751   N756    1.045   .     S
H752   N757    1.040   .     S
N753   Zn767   2.037   .     S
N754   Zn768   2.036   .     S
O759   Zn767   1.989   .     S
O760   Zn768   1.971   .     S
O761   Zn767   1.931   .     S
O762   Zn768   1.929   .     S
O763   Zn767   1.971   .     S
O764   Zn768   1.989   .     S
O765   Zn767   1.929   .     S
O766   Zn768   1.931   .     S
C769   O823    1.289   .     A
C769   O824    1.288   .     A
C769   C777    1.405   .     S
C770   C790    1.433   .     A
C770   C772    1.481   .     S
C770   C787    1.408   .     A
C771   C777    1.396   .     A
C771   Cl804   1.761   .     S
C771   C965    1.371   .     S
C772   O825    1.318   .     A
C772   O826    1.295   .     A
C773   C774    1.390   .     A
C773   H805    1.083   .     S
C774   C775    1.402   .     A
C774   C783    1.405   .     S
C775   N819    1.435   .     S
C776   Cl798   1.767   .     S
C776   C777    1.402   .     A
C776   C967    1.384   .     S
C778   Cl799   1.752   .     S
C778   N818    1.375   .     A
C778   C843    1.424   .     S
C779   N817    1.366   .     A
C779   H809    1.082   .     S
C779   C906    1.424   1_455 S
C780   C790    1.405   .     A
C780   C213    1.402   1_556 S
C780   C215    1.419   1_556 S
C781   H810    1.082   .     S
C781   N817    1.369   .     A
C781   C910    1.432   1_455 S
C782   N818    1.372   .     A
C782   N820    1.428   .     S
C782   C845    1.432   .     S
C783   O828    1.294   .     A
C783   O827    1.285   .     A
C784   O830    1.306   .     A
C784   O829    1.300   .     A
C784   C786    1.459   .     S
C785   C792    1.418   .     A
C785   N821    1.422   .     S
C785   C220    1.403   1_556 S
C786   C795    1.392   .     A
C786   C796    1.396   .     A
C787   C788    1.407   .     A
C787   Cl801   1.765   .     S
C788   C213    1.397   1_556 S
C788   N246    1.424   1_556 S
C789   Cl802   1.768   .     S
C790   C794    1.407   .     A
C791   C795    1.394   .     A
C792   C793    1.412   .     A
C792   C215    1.419   1_556 S
C793   Cl800   1.771   .     S
C793   C794    1.396   .     A
C794   Cl803   1.745   .     S
C795   H811    1.072   .     S
C796   Cl797   1.768   .     S
H806   N821    1.044   .     S
H807   N822    1.046   .     S
H808   N822    1.045   .     S
H812   N819    1.045   .     S
H813   N819    1.045   .     S
H814   N820    1.044   .     S
H815   N820    1.045   .     S
H816   N821    1.040   .     S
N817   Zn831   2.037   .     S
N818   Zn832   2.036   .     S
O823   Zn831   1.989   .     S
O824   Zn832   1.971   .     S
O825   Zn831   1.931   .     S
O826   Zn832   1.929   .     S
O827   Zn831   1.971   .     S
O828   Zn832   1.989   .     S
O829   Zn831   1.929   .     S
O830   Zn832   1.931   .     S
C833   O887    1.289   .     A
C833   O888    1.288   .     A
C833   C841    1.405   .     S
C834   C854    1.433   .     A
C834   C836    1.481   .     S
C834   C851    1.408   .     A
C835   C841    1.396   .     A
C835   Cl868   1.761   .     S
C835   C1029   1.371   .     S
C836   O889    1.318   .     A
C836   O890    1.295   .     A
C837   C838    1.390   .     A
C837   H869    1.083   .     S
C838   C839    1.402   .     A
C838   C847    1.405   .     S
C839   N883    1.435   .     S
C840   Cl862   1.767   .     S
C840   C841    1.402   .     A
C840   C1031   1.384   .     S
C842   Cl863   1.752   .     S
C842   N882    1.375   .     A
C842   C907    1.424   .     S
C843   N881    1.366   .     A
C843   H873    1.082   .     S
C844   C854    1.405   .     A
C844   C277    1.402   1_556 S
C844   C279    1.419   1_556 S
C845   H874    1.082   .     S
C845   N881    1.369   .     A
C846   N882    1.372   .     A
C846   N884    1.428   .     S
C846   C909    1.432   .     S
C847   O892    1.294   .     A
C847   O891    1.285   .     A
C848   O894    1.306   .     A
C848   O893    1.300   .     A
C848   C850    1.459   .     S
C849   C856    1.418   .     A
C849   N885    1.422   .     S
C849   C284    1.403   1_556 S
C850   C859    1.392   .     A
C850   C860    1.396   .     A
C851   C852    1.407   .     A
C851   Cl865   1.765   .     S
C852   C277    1.397   1_556 S
C852   N310    1.424   1_556 S
C853   Cl866   1.768   .     S
C854   C858    1.407   .     A
C855   C859    1.394   .     A
C856   C857    1.412   .     A
C856   C279    1.419   1_556 S
C857   Cl864   1.771   .     S
C857   C858    1.396   .     A
C858   Cl867   1.745   .     S
C859   H875    1.072   .     S
C860   Cl861   1.768   .     S
H870   N885    1.044   .     S
H871   N886    1.046   .     S
H872   N886    1.045   .     S
H876   N883    1.045   .     S
H877   N883    1.045   .     S
H878   N884    1.044   .     S
H879   N884    1.045   .     S
H880   N885    1.040   .     S
N881   Zn895   2.037   .     S
N882   Zn896   2.036   .     S
O887   Zn895   1.989   .     S
O888   Zn896   1.971   .     S
O889   Zn895   1.931   .     S
O890   Zn896   1.929   .     S
O891   Zn895   1.971   .     S
O892   Zn896   1.989   .     S
O893   Zn895   1.929   .     S
O894   Zn896   1.931   .     S
C897   O951    1.289   .     A
C897   O952    1.288   .     A
C897   C905    1.405   .     S
C898   C918    1.433   .     A
C898   C900    1.481   .     S
C898   C915    1.408   .     A
C899   C905    1.396   .     A
C899   Cl932   1.761   .     S
C899   C1093   1.371   .     S
C900   O953    1.318   .     A
C900   O954    1.295   .     A
C901   C902    1.390   .     A
C901   H933    1.083   .     S
C902   C903    1.402   .     A
C902   C911    1.405   .     S
C903   N947    1.435   .     S
C904   Cl926   1.767   .     S
C904   C905    1.402   .     A
C904   C1095   1.384   .     S
C906   Cl927   1.752   .     S
C906   N946    1.375   .     A
C906   C779    1.424   1_655 S
C907   N945    1.366   .     A
C907   H937    1.082   .     S
C908   C918    1.405   .     A
C908   C341    1.402   1_556 S
C908   C343    1.419   1_556 S
C909   H938    1.082   .     S
C909   N945    1.369   .     A
C910   N946    1.372   .     A
C910   N948    1.428   .     S
C910   C781    1.432   1_655 S
C911   O956    1.294   .     A
C911   O955    1.285   .     A
C912   O958    1.306   .     A
C912   O957    1.300   .     A
C912   C914    1.459   .     S
C913   C920    1.418   .     A
C913   N949    1.422   .     S
C913   C348    1.403   1_556 S
C914   C923    1.392   .     A
C914   C924    1.396   .     A
C915   C916    1.407   .     A
C915   Cl929   1.765   .     S
C916   C341    1.397   1_556 S
C916   N374    1.424   1_556 S
C917   Cl930   1.768   .     S
C918   C922    1.407   .     A
C919   C923    1.394   .     A
C920   C921    1.412   .     A
C920   C343    1.419   1_556 S
C921   Cl928   1.771   .     S
C921   C922    1.396   .     A
C922   Cl931   1.745   .     S
C923   H939    1.072   .     S
C924   Cl925   1.768   .     S
H934   N949    1.044   .     S
H935   N950    1.046   .     S
H936   N950    1.045   .     S
H940   N947    1.045   .     S
H941   N947    1.045   .     S
H942   N948    1.044   .     S
H943   N948    1.045   .     S
H944   N949    1.040   .     S
N945   Zn959   2.037   .     S
N946   Zn960   2.036   .     S
O951   Zn959   1.989   .     S
O952   Zn960   1.971   .     S
O953   Zn959   1.931   .     S
O954   Zn960   1.929   .     S
O955   Zn959   1.971   .     S
O956   Zn960   1.989   .     S
O957   Zn959   1.929   .     S
O958   Zn960   1.931   .     S
C961   O1015   1.289   .     A
C961   O1016   1.288   .     A
C961   C969    1.405   .     S
C962   C982    1.433   .     A
C962   C964    1.481   .     S
C962   C979    1.408   .     A
C963   C969    1.396   .     A
C963   Cl996   1.761   .     S
C963   C581    1.371   1_565 S
C964   O1017   1.318   .     A
C964   O1018   1.295   .     A
C965   C966    1.390   .     A
C965   H997    1.083   .     S
C966   C967    1.402   .     A
C966   C975    1.405   .     S
C967   N1011   1.435   .     S
C968   Cl990   1.767   .     S
C968   C969    1.402   .     A
C968   C583    1.384   1_565 S
C970   Cl991   1.752   .     S
C970   N1010   1.375   .     A
C970   C1035   1.424   .     S
C971   N1009   1.366   .     A
C971   H1001   1.082   .     S
C971   C1098   1.424   1_455 S
C972   C982    1.405   .     A
C972   C405    1.402   1_556 S
C972   C407    1.419   1_556 S
C973   H1002   1.082   .     S
C973   N1009   1.369   .     A
C973   C1102   1.432   1_455 S
C974   N1010   1.372   .     A
C974   N1012   1.428   .     S
C974   C1037   1.432   .     S
C975   O1020   1.294   .     A
C975   O1019   1.285   .     A
C976   O1022   1.306   .     A
C976   O1021   1.300   .     A
C976   C978    1.459   .     S
C977   C984    1.418   .     A
C977   N1013   1.422   .     S
C977   C412    1.403   1_556 S
C978   C987    1.392   .     A
C978   C988    1.396   .     A
C979   C980    1.407   .     A
C979   Cl993   1.765   .     S
C980   C405    1.397   1_556 S
C980   N438    1.424   1_556 S
C981   Cl994   1.768   .     S
C982   C986    1.407   .     A
C983   C987    1.394   .     A
C984   C985    1.412   .     A
C984   C407    1.419   1_556 S
C985   Cl992   1.771   .     S
C985   C986    1.396   .     A
C986   Cl995   1.745   .     S
C987   H1003   1.072   .     S
C988   Cl989   1.768   .     S
H998   N1013   1.044   .     S
H999   N1014   1.046   .     S
H1000  N1014   1.045   .     S
H1004  N1011   1.045   .     S
H1005  N1011   1.045   .     S
H1006  N1012   1.044   .     S
H1007  N1012   1.045   .     S
H1008  N1013   1.040   .     S
N1009  Zn1023  2.037   .     S
N1010  Zn1024  2.036   .     S
O1015  Zn1023  1.989   .     S
O1016  Zn1024  1.971   .     S
O1017  Zn1023  1.931   .     S
O1018  Zn1024  1.929   .     S
O1019  Zn1023  1.971   .     S
O1020  Zn1024  1.989   .     S
O1021  Zn1023  1.929   .     S
O1022  Zn1024  1.931   .     S
C1025  O1079   1.289   .     A
C1025  O1080   1.288   .     A
C1025  C1033   1.405   .     S
C1026  C1046   1.433   .     A
C1026  C1028   1.481   .     S
C1026  C1043   1.408   .     A
C1027  C1033   1.396   .     A
C1027  Cl1060  1.761   .     S
C1027  C645    1.371   1_565 S
C1028  O1081   1.318   .     A
C1028  O1082   1.295   .     A
C1029  C1030   1.390   .     A
C1029  H1061   1.083   .     S
C1030  C1031   1.402   .     A
C1030  C1039   1.405   .     S
C1031  N1075   1.435   .     S
C1032  Cl1054  1.767   .     S
C1032  C1033   1.402   .     A
C1032  C647    1.384   1_565 S
C1034  Cl1055  1.752   .     S
C1034  N1074   1.375   .     A
C1034  C1099   1.424   .     S
C1035  N1073   1.366   .     A
C1035  H1065   1.082   .     S
C1036  C1046   1.405   .     A
C1036  C469    1.402   1_556 S
C1036  C471    1.419   1_556 S
C1037  H1066   1.082   .     S
C1037  N1073   1.369   .     A
C1038  N1074   1.372   .     A
C1038  N1076   1.428   .     S
C1038  C1101   1.432   .     S
C1039  O1084   1.294   .     A
C1039  O1083   1.285   .     A
C1040  O1086   1.306   .     A
C1040  O1085   1.300   .     A
C1040  C1042   1.459   .     S
C1041  C1048   1.418   .     A
C1041  N1077   1.422   .     S
C1041  C476    1.403   1_556 S
C1042  C1051   1.392   .     A
C1042  C1052   1.396   .     A
C1043  C1044   1.407   .     A
C1043  Cl1057  1.765   .     S
C1044  C469    1.397   1_556 S
C1044  N502    1.424   1_556 S
C1045  Cl1058  1.768   .     S
C1046  C1050   1.407   .     A
C1047  C1051   1.394   .     A
C1048  C1049   1.412   .     A
C1048  C471    1.419   1_556 S
C1049  Cl1056  1.771   .     S
C1049  C1050   1.396   .     A
C1050  Cl1059  1.745   .     S
C1051  H1067   1.072   .     S
C1052  Cl1053  1.768   .     S
H1062  N1077   1.044   .     S
H1063  N1078   1.046   .     S
H1064  N1078   1.045   .     S
H1068  N1075   1.045   .     S
H1069  N1075   1.045   .     S
H1070  N1076   1.044   .     S
H1071  N1076   1.045   .     S
H1072  N1077   1.040   .     S
N1073  Zn1087  2.037   .     S
N1074  Zn1088  2.036   .     S
O1079  Zn1087  1.989   .     S
O1080  Zn1088  1.971   .     S
O1081  Zn1087  1.931   .     S
O1082  Zn1088  1.929   .     S
O1083  Zn1087  1.971   .     S
O1084  Zn1088  1.989   .     S
O1085  Zn1087  1.929   .     S
O1086  Zn1088  1.931   .     S
C1089  O1143   1.289   .     A
C1089  O1144   1.288   .     A
C1089  C1097   1.405   .     S
C1090  C1110   1.433   .     A
C1090  C1092   1.481   .     S
C1090  C1107   1.408   .     A
C1091  C1097   1.396   .     A
C1091  Cl1124  1.761   .     S
C1091  C709    1.371   1_565 S
C1092  O1145   1.318   .     A
C1092  O1146   1.295   .     A
C1093  C1094   1.390   .     A
C1093  H1125   1.083   .     S
C1094  C1095   1.402   .     A
C1094  C1103   1.405   .     S
C1095  N1139   1.435   .     S
C1096  Cl1118  1.767   .     S
C1096  C1097   1.402   .     A
C1096  C711    1.384   1_565 S
C1098  Cl1119  1.752   .     S
C1098  N1138   1.375   .     A
C1098  C971    1.424   1_655 S
C1099  N1137   1.366   .     A
C1099  H1129   1.082   .     S
C1100  C1110   1.405   .     A
C1100  C533    1.402   1_556 S
C1100  C535    1.419   1_556 S
C1101  H1130   1.082   .     S
C1101  N1137   1.369   .     A
C1102  N1138   1.372   .     A
C1102  N1140   1.428   .     S
C1102  C973    1.432   1_655 S
C1103  O1148   1.294   .     A
C1103  O1147   1.285   .     A
C1104  O1150   1.306   .     A
C1104  O1149   1.300   .     A
C1104  C1106   1.459   .     S
C1105  C1112   1.418   .     A
C1105  N1141   1.422   .     S
C1105  C540    1.403   1_556 S
C1106  C1115   1.392   .     A
C1106  C1116   1.396   .     A
C1107  C1108   1.407   .     A
C1107  Cl1121  1.765   .     S
C1108  C533    1.397   1_556 S
C1108  N566    1.424   1_556 S
C1109  Cl1122  1.768   .     S
C1110  C1114   1.407   .     A
C1111  C1115   1.394   .     A
C1112  C1113   1.412   .     A
C1112  C535    1.419   1_556 S
C1113  Cl1120  1.771   .     S
C1113  C1114   1.396   .     A
C1114  Cl1123  1.745   .     S
C1115  H1131   1.072   .     S
C1116  Cl1117  1.768   .     S
H1126  N1141   1.044   .     S
H1127  N1142   1.046   .     S
H1128  N1142   1.045   .     S
H1132  N1139   1.045   .     S
H1133  N1139   1.045   .     S
H1134  N1140   1.044   .     S
H1135  N1140   1.045   .     S
H1136  N1141   1.040   .     S
N1137  Zn1151  2.037   .     S
N1138  Zn1152  2.036   .     S
O1143  Zn1151  1.989   .     S
O1144  Zn1152  1.971   .     S
O1145  Zn1151  1.931   .     S
O1146  Zn1152  1.929   .     S
O1147  Zn1151  1.971   .     S
O1148  Zn1152  1.989   .     S
O1149  Zn1151  1.929   .     S
O1150  Zn1152  1.931   .     S
