data_str_m3_o1_o16_pcu_sym.46
_audit_creation_date              2020-01-03
_audit_creation_method            'Materials Studio'
_symmetry_space_group_name_H-M    'P1'
_symmetry_Int_Tables_number       1
_symmetry_cell_setting            triclinic
loop_
_symmetry_equiv_pos_as_xyz
  x,y,z
_cell_length_a                    29.6974
_cell_length_b                    32.0769
_cell_length_c                    26.0766
_cell_angle_alpha                 90.9625
_cell_angle_beta                  69.5041
_cell_angle_gamma                 89.8712
loop_
_atom_site_label
_atom_site_type_symbol
_atom_site_fract_x
_atom_site_fract_y
_atom_site_fract_z
_atom_site_U_iso_or_equiv
_atom_site_adp_type
_atom_site_occupancy
Br1    Br    0.30142   0.09588   0.17670   0.00000  Uiso   1.00
Br2    Br    0.07526   0.20965   0.09790   0.00000  Uiso   1.00
C3     C     0.16661   0.24663   0.25017   0.00000  Uiso   1.00
C4     C     0.12181   0.17001   0.41177   0.00000  Uiso   1.00
C5     C     0.19960   0.31217   0.26787   0.00000  Uiso   1.00
C6     C     0.13975   0.16663   0.35230   0.00000  Uiso   1.00
C7     C     0.19969   0.02156   0.26771   0.00000  Uiso   1.00
C8     C     0.16682   0.04252   0.24980   0.00000  Uiso   1.00
C9     C     0.13392   0.02112   0.23202   0.00000  Uiso   1.00
C10    C     0.13378   0.31175   0.23225   0.00000  Uiso   1.00
C11    C     0.16662   0.29080   0.25017   0.00000  Uiso   1.00
C12    C     0.31900   0.13747   0.21984   0.00000  Uiso   1.00
C13    C     0.03358   0.13701   0.22052   0.00000  Uiso   1.00
C14    C     0.14201   0.16743   0.49449   0.00000  Uiso   1.00
C15    C     0.01485   0.19593   0.27941   0.00000  Uiso   1.00
C16    C     0.29963   0.19526   0.28101   0.00000  Uiso   1.00
C17    C     0.16673   0.08669   0.24986   0.00000  Uiso   1.00
C18    C     0.19353   0.16670   0.14772   0.00000  Uiso   1.00
C19    C     0.24132   0.10647   0.01793   0.00000  Uiso   1.00
C20    C     0.21014   0.15888   0.08927   0.00000  Uiso   1.00
C21    C     0.08397   0.19763   0.43745   0.00000  Uiso   1.00
C22    C     0.07302   0.20852   0.49207   0.00000  Uiso   1.00
C23    C     0.10151   0.19447   0.02112   0.00000  Uiso   1.00
C24    C     0.08157   0.10220   0.14137   0.00000  Uiso   1.00
C25    C     0.14758   0.15158   0.44157   0.00000  Uiso   1.00
C26    C     0.25906   0.22036   0.36749   0.00000  Uiso   1.00
C27    C     0.25347   0.03700   0.02297   0.00000  Uiso   1.00
C28    C     0.17719   0.15500   0.01694   0.00000  Uiso   1.00
C29    C     0.20927   0.12109   0.49293   0.00000  Uiso   1.00
C30    C     0.20870   0.10222   0.44467   0.00000  Uiso   1.00
C31    C     0.17906   0.11778   0.41876   0.00000  Uiso   1.00
C32    C     0.18310   0.17623   0.06111   0.00000  Uiso   1.00
C33    C     0.24098   0.12527   0.06673   0.00000  Uiso   1.00
H34    H     0.26239   0.11198   0.08852   0.00000  Uiso   1.00
H35    H     0.18049   0.10265   0.38077   0.00000  Uiso   1.00
H36    H     0.22483   0.29598   0.28227   0.00000  Uiso   1.00
H37    H     0.12098   0.10665   0.12623   0.00000  Uiso   1.00
H38    H     0.07517   0.07076   0.12702   0.00000  Uiso   1.00
H39    H     0.06505   0.12536   0.12201   0.00000  Uiso   1.00
H40    H     0.22575   0.23764   0.39163   0.00000  Uiso   1.00
H41    H     0.28914   0.23424   0.37780   0.00000  Uiso   1.00
H42    H     0.25384   0.18722   0.38036   0.00000  Uiso   1.00
H43    H     0.21706   0.03046   0.02168   0.00000  Uiso   1.00
H44    H     0.25223   0.03858   0.06610   0.00000  Uiso   1.00
H45    H     0.22493   0.03810   0.28205   0.00000  Uiso   1.00
H46    H     0.27722   0.01039   0.00241   0.00000  Uiso   1.00
H47    H     0.10874   0.03723   0.21757   0.00000  Uiso   1.00
H48    H     0.10849   0.29523   0.21797   0.00000  Uiso   1.00
H49    H     0.02614   0.21961   0.30223   0.00000  Uiso   1.00
H50    H     0.23220   0.07613   0.42577   0.00000  Uiso   1.00
H51    H     0.16574   0.20566   0.07598   0.00000  Uiso   1.00
H52    H     0.06358   0.21166   0.41484   0.00000  Uiso   1.00
H53    H     0.04251   0.22892   0.01172   0.00000  Uiso   1.00
N54    N     0.04760   0.16668   0.25002   0.00000  Uiso   1.00
N55    N     0.28573   0.16665   0.25001   0.00000  Uiso   1.00
O56    O     0.12846   0.22775   0.25001   0.00000  Uiso   1.00
O57    O     0.26654   0.22473   0.31134   0.00000  Uiso   1.00
O58    O     0.27272   0.07374   0.49490   0.00000  Uiso   1.00
O59    O     0.20490   0.22774   0.25001   0.00000  Uiso   1.00
O60    O     0.10947   0.16666   0.32681   0.00000  Uiso   1.00
O61    O     0.18591   0.16665   0.32681   0.00000  Uiso   1.00
O62    O     0.12843   0.10559   0.25000   0.00000  Uiso   1.00
O63    O     0.20488   0.10558   0.25000   0.00000  Uiso   1.00
O64    O     0.14742   0.16668   0.17319   0.00000  Uiso   1.00
O65    O     0.22387   0.16667   0.17319   0.00000  Uiso   1.00
O66    O     0.06380   0.10314   0.19926   0.00000  Uiso   1.00
Zn67   Zn    0.11562   0.16667   0.25000   0.00000  Uiso   1.00
Zn68   Zn    0.21771   0.16666   0.25000   0.00000  Uiso   1.00
Br69   Br    0.63475   0.09588   0.17670   0.00000  Uiso   1.00
Br70   Br    0.40859   0.20965   0.09790   0.00000  Uiso   1.00
C71    C     0.49994   0.24663   0.25017   0.00000  Uiso   1.00
C72    C     0.45515   0.17001   0.41177   0.00000  Uiso   1.00
C73    C     0.53293   0.31217   0.26787   0.00000  Uiso   1.00
C74    C     0.47308   0.16663   0.35230   0.00000  Uiso   1.00
C75    C     0.53302   0.02156   0.26771   0.00000  Uiso   1.00
C76    C     0.50016   0.04252   0.24980   0.00000  Uiso   1.00
C77    C     0.46726   0.02112   0.23202   0.00000  Uiso   1.00
C78    C     0.46711   0.31175   0.23225   0.00000  Uiso   1.00
C79    C     0.49995   0.29080   0.25017   0.00000  Uiso   1.00
C80    C     0.65233   0.13747   0.21984   0.00000  Uiso   1.00
C81    C     0.36692   0.13701   0.22052   0.00000  Uiso   1.00
C82    C     0.47534   0.16743   0.49449   0.00000  Uiso   1.00
C83    C     0.34818   0.19593   0.27941   0.00000  Uiso   1.00
C84    C     0.63297   0.19526   0.28101   0.00000  Uiso   1.00
C85    C     0.50006   0.08669   0.24986   0.00000  Uiso   1.00
C86    C     0.52686   0.16670   0.14772   0.00000  Uiso   1.00
C87    C     0.57466   0.10647   0.01793   0.00000  Uiso   1.00
C88    C     0.54347   0.15888   0.08927   0.00000  Uiso   1.00
C89    C     0.41730   0.19763   0.43745   0.00000  Uiso   1.00
C90    C     0.40636   0.20852   0.49207   0.00000  Uiso   1.00
C91    C     0.43484   0.19447   0.02112   0.00000  Uiso   1.00
C92    C     0.41490   0.10220   0.14137   0.00000  Uiso   1.00
C93    C     0.48092   0.15158   0.44157   0.00000  Uiso   1.00
C94    C     0.59239   0.22036   0.36749   0.00000  Uiso   1.00
C95    C     0.58681   0.03700   0.02297   0.00000  Uiso   1.00
C96    C     0.51052   0.15500   0.01694   0.00000  Uiso   1.00
C97    C     0.54260   0.12109   0.49293   0.00000  Uiso   1.00
C98    C     0.54203   0.10222   0.44467   0.00000  Uiso   1.00
C99    C     0.51240   0.11778   0.41876   0.00000  Uiso   1.00
C100   C     0.51643   0.17623   0.06111   0.00000  Uiso   1.00
C101   C     0.57431   0.12527   0.06673   0.00000  Uiso   1.00
H102   H     0.59573   0.11198   0.08852   0.00000  Uiso   1.00
H103   H     0.51383   0.10265   0.38077   0.00000  Uiso   1.00
H104   H     0.55817   0.29598   0.28227   0.00000  Uiso   1.00
H105   H     0.45432   0.10665   0.12623   0.00000  Uiso   1.00
H106   H     0.40850   0.07076   0.12702   0.00000  Uiso   1.00
H107   H     0.39838   0.12536   0.12201   0.00000  Uiso   1.00
H108   H     0.55909   0.23764   0.39163   0.00000  Uiso   1.00
H109   H     0.62248   0.23424   0.37780   0.00000  Uiso   1.00
H110   H     0.58718   0.18722   0.38036   0.00000  Uiso   1.00
H111   H     0.55039   0.03046   0.02168   0.00000  Uiso   1.00
H112   H     0.58556   0.03858   0.06610   0.00000  Uiso   1.00
H113   H     0.55827   0.03810   0.28205   0.00000  Uiso   1.00
H114   H     0.61055   0.01039   0.00241   0.00000  Uiso   1.00
H115   H     0.44208   0.03723   0.21757   0.00000  Uiso   1.00
H116   H     0.44182   0.29523   0.21797   0.00000  Uiso   1.00
H117   H     0.35948   0.21961   0.30223   0.00000  Uiso   1.00
H118   H     0.56554   0.07613   0.42577   0.00000  Uiso   1.00
H119   H     0.49908   0.20566   0.07598   0.00000  Uiso   1.00
H120   H     0.39691   0.21166   0.41484   0.00000  Uiso   1.00
H121   H     0.37584   0.22892   0.01172   0.00000  Uiso   1.00
N122   N     0.38093   0.16668   0.25002   0.00000  Uiso   1.00
N123   N     0.61906   0.16665   0.25001   0.00000  Uiso   1.00
O124   O     0.46179   0.22775   0.25001   0.00000  Uiso   1.00
O125   O     0.59987   0.22473   0.31134   0.00000  Uiso   1.00
O126   O     0.60605   0.07374   0.49490   0.00000  Uiso   1.00
O127   O     0.53823   0.22774   0.25001   0.00000  Uiso   1.00
O128   O     0.44280   0.16666   0.32681   0.00000  Uiso   1.00
O129   O     0.51924   0.16665   0.32681   0.00000  Uiso   1.00
O130   O     0.46177   0.10559   0.25000   0.00000  Uiso   1.00
O131   O     0.53821   0.10558   0.25000   0.00000  Uiso   1.00
O132   O     0.48076   0.16668   0.17319   0.00000  Uiso   1.00
O133   O     0.55720   0.16667   0.17319   0.00000  Uiso   1.00
O134   O     0.39714   0.10314   0.19926   0.00000  Uiso   1.00
Zn135  Zn    0.44896   0.16667   0.25000   0.00000  Uiso   1.00
Zn136  Zn    0.55104   0.16666   0.25000   0.00000  Uiso   1.00
Br137  Br    0.96808   0.09588   0.17670   0.00000  Uiso   1.00
Br138  Br    0.74192   0.20965   0.09790   0.00000  Uiso   1.00
C139   C     0.83327   0.24663   0.25017   0.00000  Uiso   1.00
C140   C     0.78848   0.17001   0.41177   0.00000  Uiso   1.00
C141   C     0.86627   0.31217   0.26787   0.00000  Uiso   1.00
C142   C     0.80642   0.16663   0.35230   0.00000  Uiso   1.00
C143   C     0.86636   0.02156   0.26771   0.00000  Uiso   1.00
C144   C     0.83349   0.04252   0.24980   0.00000  Uiso   1.00
C145   C     0.80059   0.02112   0.23202   0.00000  Uiso   1.00
C146   C     0.80044   0.31175   0.23225   0.00000  Uiso   1.00
C147   C     0.83328   0.29080   0.25017   0.00000  Uiso   1.00
C148   C     0.98566   0.13747   0.21984   0.00000  Uiso   1.00
C149   C     0.70025   0.13701   0.22052   0.00000  Uiso   1.00
C150   C     0.80868   0.16743   0.49449   0.00000  Uiso   1.00
C151   C     0.68151   0.19593   0.27941   0.00000  Uiso   1.00
C152   C     0.96630   0.19526   0.28101   0.00000  Uiso   1.00
C153   C     0.83340   0.08669   0.24986   0.00000  Uiso   1.00
C154   C     0.86020   0.16670   0.14772   0.00000  Uiso   1.00
C155   C     0.90799   0.10647   0.01793   0.00000  Uiso   1.00
C156   C     0.87681   0.15888   0.08927   0.00000  Uiso   1.00
C157   C     0.75064   0.19763   0.43745   0.00000  Uiso   1.00
C158   C     0.73969   0.20852   0.49207   0.00000  Uiso   1.00
C159   C     0.76818   0.19447   0.02112   0.00000  Uiso   1.00
C160   C     0.74823   0.10220   0.14137   0.00000  Uiso   1.00
C161   C     0.81425   0.15158   0.44157   0.00000  Uiso   1.00
C162   C     0.92573   0.22036   0.36749   0.00000  Uiso   1.00
C163   C     0.92014   0.03700   0.02297   0.00000  Uiso   1.00
C164   C     0.84386   0.15500   0.01694   0.00000  Uiso   1.00
C165   C     0.87594   0.12109   0.49293   0.00000  Uiso   1.00
C166   C     0.87536   0.10222   0.44467   0.00000  Uiso   1.00
C167   C     0.84573   0.11778   0.41876   0.00000  Uiso   1.00
C168   C     0.84976   0.17623   0.06111   0.00000  Uiso   1.00
C169   C     0.90764   0.12527   0.06673   0.00000  Uiso   1.00
H170   H     0.92906   0.11198   0.08852   0.00000  Uiso   1.00
H171   H     0.84716   0.10265   0.38077   0.00000  Uiso   1.00
H172   H     0.89150   0.29598   0.28227   0.00000  Uiso   1.00
H173   H     0.78765   0.10665   0.12623   0.00000  Uiso   1.00
H174   H     0.74183   0.07076   0.12702   0.00000  Uiso   1.00
H175   H     0.73172   0.12536   0.12201   0.00000  Uiso   1.00
H176   H     0.89242   0.23764   0.39163   0.00000  Uiso   1.00
H177   H     0.95581   0.23424   0.37780   0.00000  Uiso   1.00
H178   H     0.92051   0.18722   0.38036   0.00000  Uiso   1.00
H179   H     0.88372   0.03046   0.02168   0.00000  Uiso   1.00
H180   H     0.91890   0.03858   0.06610   0.00000  Uiso   1.00
H181   H     0.89160   0.03810   0.28205   0.00000  Uiso   1.00
H182   H     0.94388   0.01039   0.00241   0.00000  Uiso   1.00
H183   H     0.77541   0.03723   0.21757   0.00000  Uiso   1.00
H184   H     0.77515   0.29523   0.21797   0.00000  Uiso   1.00
H185   H     0.69281   0.21961   0.30223   0.00000  Uiso   1.00
H186   H     0.89887   0.07613   0.42577   0.00000  Uiso   1.00
H187   H     0.83241   0.20566   0.07598   0.00000  Uiso   1.00
H188   H     0.73025   0.21166   0.41484   0.00000  Uiso   1.00
H189   H     0.70917   0.22892   0.01172   0.00000  Uiso   1.00
N190   N     0.71426   0.16668   0.25002   0.00000  Uiso   1.00
N191   N     0.95239   0.16665   0.25001   0.00000  Uiso   1.00
O192   O     0.79512   0.22775   0.25001   0.00000  Uiso   1.00
O193   O     0.93320   0.22473   0.31134   0.00000  Uiso   1.00
O194   O     0.93939   0.07374   0.49490   0.00000  Uiso   1.00
O195   O     0.87157   0.22774   0.25001   0.00000  Uiso   1.00
O196   O     0.77613   0.16666   0.32681   0.00000  Uiso   1.00
O197   O     0.85258   0.16665   0.32681   0.00000  Uiso   1.00
O198   O     0.79510   0.10559   0.25000   0.00000  Uiso   1.00
O199   O     0.87154   0.10558   0.25000   0.00000  Uiso   1.00
O200   O     0.81409   0.16668   0.17319   0.00000  Uiso   1.00
O201   O     0.89053   0.16667   0.17319   0.00000  Uiso   1.00
O202   O     0.73047   0.10314   0.19926   0.00000  Uiso   1.00
Zn203  Zn    0.78229   0.16667   0.25000   0.00000  Uiso   1.00
Zn204  Zn    0.88438   0.16666   0.25000   0.00000  Uiso   1.00
Br205  Br    0.30142   0.42922   0.17670   0.00000  Uiso   1.00
Br206  Br    0.07526   0.54298   0.09790   0.00000  Uiso   1.00
C207   C     0.16661   0.57997   0.25017   0.00000  Uiso   1.00
C208   C     0.12181   0.50334   0.41177   0.00000  Uiso   1.00
C209   C     0.19960   0.64550   0.26787   0.00000  Uiso   1.00
C210   C     0.13975   0.49996   0.35230   0.00000  Uiso   1.00
C211   C     0.19969   0.35489   0.26771   0.00000  Uiso   1.00
C212   C     0.16682   0.37585   0.24980   0.00000  Uiso   1.00
C213   C     0.13392   0.35445   0.23202   0.00000  Uiso   1.00
C214   C     0.13378   0.64508   0.23225   0.00000  Uiso   1.00
C215   C     0.16662   0.62413   0.25017   0.00000  Uiso   1.00
C216   C     0.31900   0.47080   0.21984   0.00000  Uiso   1.00
C217   C     0.03358   0.47035   0.22052   0.00000  Uiso   1.00
C218   C     0.14201   0.50076   0.49449   0.00000  Uiso   1.00
C219   C     0.01485   0.52926   0.27941   0.00000  Uiso   1.00
C220   C     0.29963   0.52859   0.28101   0.00000  Uiso   1.00
C221   C     0.16673   0.42003   0.24986   0.00000  Uiso   1.00
C222   C     0.19353   0.50004   0.14772   0.00000  Uiso   1.00
C223   C     0.24132   0.43980   0.01793   0.00000  Uiso   1.00
C224   C     0.21014   0.49221   0.08927   0.00000  Uiso   1.00
C225   C     0.08397   0.53096   0.43745   0.00000  Uiso   1.00
C226   C     0.07302   0.54185   0.49207   0.00000  Uiso   1.00
C227   C     0.10151   0.52780   0.02112   0.00000  Uiso   1.00
C228   C     0.08157   0.43553   0.14137   0.00000  Uiso   1.00
C229   C     0.14758   0.48491   0.44157   0.00000  Uiso   1.00
C230   C     0.25906   0.55369   0.36749   0.00000  Uiso   1.00
C231   C     0.25347   0.37033   0.02297   0.00000  Uiso   1.00
C232   C     0.17719   0.48833   0.01694   0.00000  Uiso   1.00
C233   C     0.20927   0.45442   0.49293   0.00000  Uiso   1.00
C234   C     0.20870   0.43556   0.44467   0.00000  Uiso   1.00
C235   C     0.17906   0.45111   0.41876   0.00000  Uiso   1.00
C236   C     0.18310   0.50956   0.06111   0.00000  Uiso   1.00
C237   C     0.24098   0.45861   0.06673   0.00000  Uiso   1.00
H238   H     0.26239   0.44531   0.08852   0.00000  Uiso   1.00
H239   H     0.18049   0.43599   0.38077   0.00000  Uiso   1.00
H240   H     0.22483   0.62931   0.28227   0.00000  Uiso   1.00
H241   H     0.12098   0.43999   0.12623   0.00000  Uiso   1.00
H242   H     0.07517   0.40410   0.12702   0.00000  Uiso   1.00
H243   H     0.06505   0.45869   0.12201   0.00000  Uiso   1.00
H244   H     0.22575   0.57098   0.39163   0.00000  Uiso   1.00
H245   H     0.28914   0.56758   0.37780   0.00000  Uiso   1.00
H246   H     0.25384   0.52056   0.38036   0.00000  Uiso   1.00
H247   H     0.21706   0.36379   0.02168   0.00000  Uiso   1.00
H248   H     0.25223   0.37192   0.06610   0.00000  Uiso   1.00
H249   H     0.22493   0.37143   0.28205   0.00000  Uiso   1.00
H250   H     0.27722   0.34372   0.00241   0.00000  Uiso   1.00
H251   H     0.10874   0.37056   0.21757   0.00000  Uiso   1.00
H252   H     0.10849   0.62856   0.21797   0.00000  Uiso   1.00
H253   H     0.02614   0.55295   0.30223   0.00000  Uiso   1.00
H254   H     0.23220   0.40946   0.42577   0.00000  Uiso   1.00
H255   H     0.16574   0.53899   0.07598   0.00000  Uiso   1.00
H256   H     0.06358   0.54499   0.41484   0.00000  Uiso   1.00
H257   H     0.04251   0.56226   0.01172   0.00000  Uiso   1.00
N258   N     0.04760   0.50001   0.25002   0.00000  Uiso   1.00
N259   N     0.28573   0.49998   0.25001   0.00000  Uiso   1.00
O260   O     0.12846   0.56108   0.25001   0.00000  Uiso   1.00
O261   O     0.26654   0.55806   0.31134   0.00000  Uiso   1.00
O262   O     0.27272   0.40707   0.49490   0.00000  Uiso   1.00
O263   O     0.20490   0.56107   0.25001   0.00000  Uiso   1.00
O264   O     0.10947   0.50000   0.32681   0.00000  Uiso   1.00
O265   O     0.18591   0.49999   0.32681   0.00000  Uiso   1.00
O266   O     0.12843   0.43893   0.25000   0.00000  Uiso   1.00
O267   O     0.20488   0.43892   0.25000   0.00000  Uiso   1.00
O268   O     0.14742   0.50001   0.17319   0.00000  Uiso   1.00
O269   O     0.22387   0.50000   0.17319   0.00000  Uiso   1.00
O270   O     0.06380   0.43648   0.19926   0.00000  Uiso   1.00
Zn271  Zn    0.11562   0.50001   0.25000   0.00000  Uiso   1.00
Zn272  Zn    0.21771   0.49999   0.25000   0.00000  Uiso   1.00
Br273  Br    0.63475   0.42922   0.17670   0.00000  Uiso   1.00
Br274  Br    0.40859   0.54298   0.09790   0.00000  Uiso   1.00
C275   C     0.49994   0.57997   0.25017   0.00000  Uiso   1.00
C276   C     0.45515   0.50334   0.41177   0.00000  Uiso   1.00
C277   C     0.53293   0.64550   0.26787   0.00000  Uiso   1.00
C278   C     0.47308   0.49996   0.35230   0.00000  Uiso   1.00
C279   C     0.53302   0.35489   0.26771   0.00000  Uiso   1.00
C280   C     0.50016   0.37585   0.24980   0.00000  Uiso   1.00
C281   C     0.46726   0.35445   0.23202   0.00000  Uiso   1.00
C282   C     0.46711   0.64508   0.23225   0.00000  Uiso   1.00
C283   C     0.49995   0.62413   0.25017   0.00000  Uiso   1.00
C284   C     0.65233   0.47080   0.21984   0.00000  Uiso   1.00
C285   C     0.36692   0.47035   0.22052   0.00000  Uiso   1.00
C286   C     0.47534   0.50076   0.49449   0.00000  Uiso   1.00
C287   C     0.34818   0.52926   0.27941   0.00000  Uiso   1.00
C288   C     0.63297   0.52859   0.28101   0.00000  Uiso   1.00
C289   C     0.50006   0.42003   0.24986   0.00000  Uiso   1.00
C290   C     0.52686   0.50004   0.14772   0.00000  Uiso   1.00
C291   C     0.57466   0.43980   0.01793   0.00000  Uiso   1.00
C292   C     0.54347   0.49221   0.08927   0.00000  Uiso   1.00
C293   C     0.41730   0.53096   0.43745   0.00000  Uiso   1.00
C294   C     0.40636   0.54185   0.49207   0.00000  Uiso   1.00
C295   C     0.43484   0.52780   0.02112   0.00000  Uiso   1.00
C296   C     0.41490   0.43553   0.14137   0.00000  Uiso   1.00
C297   C     0.48092   0.48491   0.44157   0.00000  Uiso   1.00
C298   C     0.59239   0.55369   0.36749   0.00000  Uiso   1.00
C299   C     0.58681   0.37033   0.02297   0.00000  Uiso   1.00
C300   C     0.51052   0.48833   0.01694   0.00000  Uiso   1.00
C301   C     0.54260   0.45442   0.49293   0.00000  Uiso   1.00
C302   C     0.54203   0.43556   0.44467   0.00000  Uiso   1.00
C303   C     0.51240   0.45111   0.41876   0.00000  Uiso   1.00
C304   C     0.51643   0.50956   0.06111   0.00000  Uiso   1.00
C305   C     0.57431   0.45861   0.06673   0.00000  Uiso   1.00
H306   H     0.59573   0.44531   0.08852   0.00000  Uiso   1.00
H307   H     0.51383   0.43599   0.38077   0.00000  Uiso   1.00
H308   H     0.55817   0.62931   0.28227   0.00000  Uiso   1.00
H309   H     0.45432   0.43999   0.12623   0.00000  Uiso   1.00
H310   H     0.40850   0.40410   0.12702   0.00000  Uiso   1.00
H311   H     0.39838   0.45869   0.12201   0.00000  Uiso   1.00
H312   H     0.55909   0.57098   0.39163   0.00000  Uiso   1.00
H313   H     0.62248   0.56758   0.37780   0.00000  Uiso   1.00
H314   H     0.58718   0.52056   0.38036   0.00000  Uiso   1.00
H315   H     0.55039   0.36379   0.02168   0.00000  Uiso   1.00
H316   H     0.58556   0.37192   0.06610   0.00000  Uiso   1.00
H317   H     0.55827   0.37143   0.28205   0.00000  Uiso   1.00
H318   H     0.61055   0.34372   0.00241   0.00000  Uiso   1.00
H319   H     0.44208   0.37056   0.21757   0.00000  Uiso   1.00
H320   H     0.44182   0.62856   0.21797   0.00000  Uiso   1.00
H321   H     0.35948   0.55295   0.30223   0.00000  Uiso   1.00
H322   H     0.56554   0.40946   0.42577   0.00000  Uiso   1.00
H323   H     0.49908   0.53899   0.07598   0.00000  Uiso   1.00
H324   H     0.39691   0.54499   0.41484   0.00000  Uiso   1.00
H325   H     0.37584   0.56226   0.01172   0.00000  Uiso   1.00
N326   N     0.38093   0.50001   0.25002   0.00000  Uiso   1.00
N327   N     0.61906   0.49998   0.25001   0.00000  Uiso   1.00
O328   O     0.46179   0.56108   0.25001   0.00000  Uiso   1.00
O329   O     0.59987   0.55806   0.31134   0.00000  Uiso   1.00
O330   O     0.60605   0.40707   0.49490   0.00000  Uiso   1.00
O331   O     0.53823   0.56107   0.25001   0.00000  Uiso   1.00
O332   O     0.44280   0.50000   0.32681   0.00000  Uiso   1.00
O333   O     0.51924   0.49999   0.32681   0.00000  Uiso   1.00
O334   O     0.46177   0.43893   0.25000   0.00000  Uiso   1.00
O335   O     0.53821   0.43892   0.25000   0.00000  Uiso   1.00
O336   O     0.48076   0.50001   0.17319   0.00000  Uiso   1.00
O337   O     0.55720   0.50000   0.17319   0.00000  Uiso   1.00
O338   O     0.39714   0.43648   0.19926   0.00000  Uiso   1.00
Zn339  Zn    0.44896   0.50001   0.25000   0.00000  Uiso   1.00
Zn340  Zn    0.55104   0.49999   0.25000   0.00000  Uiso   1.00
Br341  Br    0.96808   0.42922   0.17670   0.00000  Uiso   1.00
Br342  Br    0.74192   0.54298   0.09790   0.00000  Uiso   1.00
C343   C     0.83327   0.57997   0.25017   0.00000  Uiso   1.00
C344   C     0.78848   0.50334   0.41177   0.00000  Uiso   1.00
C345   C     0.86627   0.64550   0.26787   0.00000  Uiso   1.00
C346   C     0.80642   0.49996   0.35230   0.00000  Uiso   1.00
C347   C     0.86636   0.35489   0.26771   0.00000  Uiso   1.00
C348   C     0.83349   0.37585   0.24980   0.00000  Uiso   1.00
C349   C     0.80059   0.35445   0.23202   0.00000  Uiso   1.00
C350   C     0.80044   0.64508   0.23225   0.00000  Uiso   1.00
C351   C     0.83328   0.62413   0.25017   0.00000  Uiso   1.00
C352   C     0.98566   0.47080   0.21984   0.00000  Uiso   1.00
C353   C     0.70025   0.47035   0.22052   0.00000  Uiso   1.00
C354   C     0.80868   0.50076   0.49449   0.00000  Uiso   1.00
C355   C     0.68151   0.52926   0.27941   0.00000  Uiso   1.00
C356   C     0.96630   0.52859   0.28101   0.00000  Uiso   1.00
C357   C     0.83340   0.42003   0.24986   0.00000  Uiso   1.00
C358   C     0.86020   0.50004   0.14772   0.00000  Uiso   1.00
C359   C     0.90799   0.43980   0.01793   0.00000  Uiso   1.00
C360   C     0.87681   0.49221   0.08927   0.00000  Uiso   1.00
C361   C     0.75064   0.53096   0.43745   0.00000  Uiso   1.00
C362   C     0.73969   0.54185   0.49207   0.00000  Uiso   1.00
C363   C     0.76818   0.52780   0.02112   0.00000  Uiso   1.00
C364   C     0.74823   0.43553   0.14137   0.00000  Uiso   1.00
C365   C     0.81425   0.48491   0.44157   0.00000  Uiso   1.00
C366   C     0.92573   0.55369   0.36749   0.00000  Uiso   1.00
C367   C     0.92014   0.37033   0.02297   0.00000  Uiso   1.00
C368   C     0.84386   0.48833   0.01694   0.00000  Uiso   1.00
C369   C     0.87594   0.45442   0.49293   0.00000  Uiso   1.00
C370   C     0.87536   0.43556   0.44467   0.00000  Uiso   1.00
C371   C     0.84573   0.45111   0.41876   0.00000  Uiso   1.00
C372   C     0.84976   0.50956   0.06111   0.00000  Uiso   1.00
C373   C     0.90764   0.45861   0.06673   0.00000  Uiso   1.00
H374   H     0.92906   0.44531   0.08852   0.00000  Uiso   1.00
H375   H     0.84716   0.43599   0.38077   0.00000  Uiso   1.00
H376   H     0.89150   0.62931   0.28227   0.00000  Uiso   1.00
H377   H     0.78765   0.43999   0.12623   0.00000  Uiso   1.00
H378   H     0.74183   0.40410   0.12702   0.00000  Uiso   1.00
H379   H     0.73172   0.45869   0.12201   0.00000  Uiso   1.00
H380   H     0.89242   0.57098   0.39163   0.00000  Uiso   1.00
H381   H     0.95581   0.56758   0.37780   0.00000  Uiso   1.00
H382   H     0.92051   0.52056   0.38036   0.00000  Uiso   1.00
H383   H     0.88372   0.36379   0.02168   0.00000  Uiso   1.00
H384   H     0.91890   0.37192   0.06610   0.00000  Uiso   1.00
H385   H     0.89160   0.37143   0.28205   0.00000  Uiso   1.00
H386   H     0.94388   0.34372   0.00241   0.00000  Uiso   1.00
H387   H     0.77541   0.37056   0.21757   0.00000  Uiso   1.00
H388   H     0.77515   0.62856   0.21797   0.00000  Uiso   1.00
H389   H     0.69281   0.55295   0.30223   0.00000  Uiso   1.00
H390   H     0.89887   0.40946   0.42577   0.00000  Uiso   1.00
H391   H     0.83241   0.53899   0.07598   0.00000  Uiso   1.00
H392   H     0.73025   0.54499   0.41484   0.00000  Uiso   1.00
H393   H     0.70917   0.56226   0.01172   0.00000  Uiso   1.00
N394   N     0.71426   0.50001   0.25002   0.00000  Uiso   1.00
N395   N     0.95239   0.49998   0.25001   0.00000  Uiso   1.00
O396   O     0.79512   0.56108   0.25001   0.00000  Uiso   1.00
O397   O     0.93320   0.55806   0.31134   0.00000  Uiso   1.00
O398   O     0.93939   0.40707   0.49490   0.00000  Uiso   1.00
O399   O     0.87157   0.56107   0.25001   0.00000  Uiso   1.00
O400   O     0.77613   0.50000   0.32681   0.00000  Uiso   1.00
O401   O     0.85258   0.49999   0.32681   0.00000  Uiso   1.00
O402   O     0.79510   0.43893   0.25000   0.00000  Uiso   1.00
O403   O     0.87154   0.43892   0.25000   0.00000  Uiso   1.00
O404   O     0.81409   0.50001   0.17319   0.00000  Uiso   1.00
O405   O     0.89053   0.50000   0.17319   0.00000  Uiso   1.00
O406   O     0.73047   0.43648   0.19926   0.00000  Uiso   1.00
Zn407  Zn    0.78229   0.50001   0.25000   0.00000  Uiso   1.00
Zn408  Zn    0.88438   0.49999   0.25000   0.00000  Uiso   1.00
Br409  Br    0.30142   0.76255   0.17670   0.00000  Uiso   1.00
Br410  Br    0.07526   0.87632   0.09790   0.00000  Uiso   1.00
C411   C     0.16661   0.91330   0.25017   0.00000  Uiso   1.00
C412   C     0.12181   0.83667   0.41177   0.00000  Uiso   1.00
C413   C     0.19960   0.97883   0.26787   0.00000  Uiso   1.00
C414   C     0.13975   0.83330   0.35230   0.00000  Uiso   1.00
C415   C     0.19969   0.68823   0.26771   0.00000  Uiso   1.00
C416   C     0.16682   0.70918   0.24980   0.00000  Uiso   1.00
C417   C     0.13392   0.68779   0.23202   0.00000  Uiso   1.00
C418   C     0.13378   0.97842   0.23225   0.00000  Uiso   1.00
C419   C     0.16662   0.95746   0.25017   0.00000  Uiso   1.00
C420   C     0.31900   0.80413   0.21984   0.00000  Uiso   1.00
C421   C     0.03358   0.80368   0.22052   0.00000  Uiso   1.00
C422   C     0.14201   0.83409   0.49449   0.00000  Uiso   1.00
C423   C     0.01485   0.86259   0.27941   0.00000  Uiso   1.00
C424   C     0.29963   0.86192   0.28101   0.00000  Uiso   1.00
C425   C     0.16673   0.75336   0.24986   0.00000  Uiso   1.00
C426   C     0.19353   0.83337   0.14772   0.00000  Uiso   1.00
C427   C     0.24132   0.77313   0.01793   0.00000  Uiso   1.00
C428   C     0.21014   0.82555   0.08927   0.00000  Uiso   1.00
C429   C     0.08397   0.86430   0.43745   0.00000  Uiso   1.00
C430   C     0.07302   0.87518   0.49207   0.00000  Uiso   1.00
C431   C     0.10151   0.86113   0.02112   0.00000  Uiso   1.00
C432   C     0.08157   0.76886   0.14137   0.00000  Uiso   1.00
C433   C     0.14758   0.81824   0.44157   0.00000  Uiso   1.00
C434   C     0.25906   0.88703   0.36749   0.00000  Uiso   1.00
C435   C     0.25347   0.70367   0.02297   0.00000  Uiso   1.00
C436   C     0.17719   0.82167   0.01694   0.00000  Uiso   1.00
C437   C     0.20927   0.78776   0.49293   0.00000  Uiso   1.00
C438   C     0.20870   0.76889   0.44467   0.00000  Uiso   1.00
C439   C     0.17906   0.78445   0.41876   0.00000  Uiso   1.00
C440   C     0.18310   0.84289   0.06111   0.00000  Uiso   1.00
C441   C     0.24098   0.79194   0.06673   0.00000  Uiso   1.00
H442   H     0.26239   0.77864   0.08852   0.00000  Uiso   1.00
H443   H     0.18049   0.76932   0.38077   0.00000  Uiso   1.00
H444   H     0.22483   0.96265   0.28227   0.00000  Uiso   1.00
H445   H     0.12098   0.77332   0.12623   0.00000  Uiso   1.00
H446   H     0.07517   0.73743   0.12702   0.00000  Uiso   1.00
H447   H     0.06505   0.79202   0.12201   0.00000  Uiso   1.00
H448   H     0.22575   0.90431   0.39163   0.00000  Uiso   1.00
H449   H     0.28914   0.90091   0.37780   0.00000  Uiso   1.00
H450   H     0.25384   0.85389   0.38036   0.00000  Uiso   1.00
H451   H     0.21706   0.69712   0.02168   0.00000  Uiso   1.00
H452   H     0.25223   0.70525   0.06610   0.00000  Uiso   1.00
H453   H     0.22493   0.70477   0.28205   0.00000  Uiso   1.00
H454   H     0.27722   0.67706   0.00241   0.00000  Uiso   1.00
H455   H     0.10874   0.70389   0.21757   0.00000  Uiso   1.00
H456   H     0.10849   0.96189   0.21797   0.00000  Uiso   1.00
H457   H     0.02614   0.88628   0.30223   0.00000  Uiso   1.00
H458   H     0.23220   0.74279   0.42577   0.00000  Uiso   1.00
H459   H     0.16574   0.87233   0.07598   0.00000  Uiso   1.00
H460   H     0.06358   0.87833   0.41484   0.00000  Uiso   1.00
H461   H     0.04251   0.89559   0.01172   0.00000  Uiso   1.00
N462   N     0.04760   0.83334   0.25002   0.00000  Uiso   1.00
N463   N     0.28573   0.83331   0.25001   0.00000  Uiso   1.00
O464   O     0.12846   0.89442   0.25001   0.00000  Uiso   1.00
O465   O     0.26654   0.89139   0.31134   0.00000  Uiso   1.00
O466   O     0.27272   0.74040   0.49490   0.00000  Uiso   1.00
O467   O     0.20490   0.89441   0.25001   0.00000  Uiso   1.00
O468   O     0.10947   0.83333   0.32681   0.00000  Uiso   1.00
O469   O     0.18591   0.83332   0.32681   0.00000  Uiso   1.00
O470   O     0.12843   0.77226   0.25000   0.00000  Uiso   1.00
O471   O     0.20488   0.77225   0.25000   0.00000  Uiso   1.00
O472   O     0.14742   0.83335   0.17319   0.00000  Uiso   1.00
O473   O     0.22387   0.83334   0.17319   0.00000  Uiso   1.00
O474   O     0.06380   0.76981   0.19926   0.00000  Uiso   1.00
Zn475  Zn    0.11562   0.83334   0.25000   0.00000  Uiso   1.00
Zn476  Zn    0.21771   0.83333   0.25000   0.00000  Uiso   1.00
Br477  Br    0.63475   0.76255   0.17670   0.00000  Uiso   1.00
Br478  Br    0.40859   0.87632   0.09790   0.00000  Uiso   1.00
C479   C     0.49994   0.91330   0.25017   0.00000  Uiso   1.00
C480   C     0.45515   0.83667   0.41177   0.00000  Uiso   1.00
C481   C     0.53293   0.97883   0.26787   0.00000  Uiso   1.00
C482   C     0.47308   0.83330   0.35230   0.00000  Uiso   1.00
C483   C     0.53302   0.68823   0.26771   0.00000  Uiso   1.00
C484   C     0.50016   0.70918   0.24980   0.00000  Uiso   1.00
C485   C     0.46726   0.68779   0.23202   0.00000  Uiso   1.00
C486   C     0.46711   0.97842   0.23225   0.00000  Uiso   1.00
C487   C     0.49995   0.95746   0.25017   0.00000  Uiso   1.00
C488   C     0.65233   0.80413   0.21984   0.00000  Uiso   1.00
C489   C     0.36692   0.80368   0.22052   0.00000  Uiso   1.00
C490   C     0.47534   0.83409   0.49449   0.00000  Uiso   1.00
C491   C     0.34818   0.86259   0.27941   0.00000  Uiso   1.00
C492   C     0.63297   0.86192   0.28101   0.00000  Uiso   1.00
C493   C     0.50006   0.75336   0.24986   0.00000  Uiso   1.00
C494   C     0.52686   0.83337   0.14772   0.00000  Uiso   1.00
C495   C     0.57466   0.77313   0.01793   0.00000  Uiso   1.00
C496   C     0.54347   0.82555   0.08927   0.00000  Uiso   1.00
C497   C     0.41730   0.86430   0.43745   0.00000  Uiso   1.00
C498   C     0.40636   0.87518   0.49207   0.00000  Uiso   1.00
C499   C     0.43484   0.86113   0.02112   0.00000  Uiso   1.00
C500   C     0.41490   0.76886   0.14137   0.00000  Uiso   1.00
C501   C     0.48092   0.81824   0.44157   0.00000  Uiso   1.00
C502   C     0.59239   0.88703   0.36749   0.00000  Uiso   1.00
C503   C     0.58681   0.70367   0.02297   0.00000  Uiso   1.00
C504   C     0.51052   0.82167   0.01694   0.00000  Uiso   1.00
C505   C     0.54260   0.78776   0.49293   0.00000  Uiso   1.00
C506   C     0.54203   0.76889   0.44467   0.00000  Uiso   1.00
C507   C     0.51240   0.78445   0.41876   0.00000  Uiso   1.00
C508   C     0.51643   0.84289   0.06111   0.00000  Uiso   1.00
C509   C     0.57431   0.79194   0.06673   0.00000  Uiso   1.00
H510   H     0.59573   0.77864   0.08852   0.00000  Uiso   1.00
H511   H     0.51383   0.76932   0.38077   0.00000  Uiso   1.00
H512   H     0.55817   0.96265   0.28227   0.00000  Uiso   1.00
H513   H     0.45432   0.77332   0.12623   0.00000  Uiso   1.00
H514   H     0.40850   0.73743   0.12702   0.00000  Uiso   1.00
H515   H     0.39838   0.79202   0.12201   0.00000  Uiso   1.00
H516   H     0.55909   0.90431   0.39163   0.00000  Uiso   1.00
H517   H     0.62248   0.90091   0.37780   0.00000  Uiso   1.00
H518   H     0.58718   0.85389   0.38036   0.00000  Uiso   1.00
H519   H     0.55039   0.69712   0.02168   0.00000  Uiso   1.00
H520   H     0.58556   0.70525   0.06610   0.00000  Uiso   1.00
H521   H     0.55827   0.70477   0.28205   0.00000  Uiso   1.00
H522   H     0.61055   0.67706   0.00241   0.00000  Uiso   1.00
H523   H     0.44208   0.70389   0.21757   0.00000  Uiso   1.00
H524   H     0.44182   0.96189   0.21797   0.00000  Uiso   1.00
H525   H     0.35948   0.88628   0.30223   0.00000  Uiso   1.00
H526   H     0.56554   0.74279   0.42577   0.00000  Uiso   1.00
H527   H     0.49908   0.87233   0.07598   0.00000  Uiso   1.00
H528   H     0.39691   0.87833   0.41484   0.00000  Uiso   1.00
H529   H     0.37584   0.89559   0.01172   0.00000  Uiso   1.00
N530   N     0.38093   0.83334   0.25002   0.00000  Uiso   1.00
N531   N     0.61906   0.83331   0.25001   0.00000  Uiso   1.00
O532   O     0.46179   0.89442   0.25001   0.00000  Uiso   1.00
O533   O     0.59987   0.89139   0.31134   0.00000  Uiso   1.00
O534   O     0.60605   0.74040   0.49490   0.00000  Uiso   1.00
O535   O     0.53823   0.89441   0.25001   0.00000  Uiso   1.00
O536   O     0.44280   0.83333   0.32681   0.00000  Uiso   1.00
O537   O     0.51924   0.83332   0.32681   0.00000  Uiso   1.00
O538   O     0.46177   0.77226   0.25000   0.00000  Uiso   1.00
O539   O     0.53821   0.77225   0.25000   0.00000  Uiso   1.00
O540   O     0.48076   0.83335   0.17319   0.00000  Uiso   1.00
O541   O     0.55720   0.83334   0.17319   0.00000  Uiso   1.00
O542   O     0.39714   0.76981   0.19926   0.00000  Uiso   1.00
Zn543  Zn    0.44896   0.83334   0.25000   0.00000  Uiso   1.00
Zn544  Zn    0.55104   0.83333   0.25000   0.00000  Uiso   1.00
Br545  Br    0.96808   0.76255   0.17670   0.00000  Uiso   1.00
Br546  Br    0.74192   0.87632   0.09790   0.00000  Uiso   1.00
C547   C     0.83327   0.91330   0.25017   0.00000  Uiso   1.00
C548   C     0.78848   0.83667   0.41177   0.00000  Uiso   1.00
C549   C     0.86627   0.97883   0.26787   0.00000  Uiso   1.00
C550   C     0.80642   0.83330   0.35230   0.00000  Uiso   1.00
C551   C     0.86636   0.68823   0.26771   0.00000  Uiso   1.00
C552   C     0.83349   0.70918   0.24980   0.00000  Uiso   1.00
C553   C     0.80059   0.68779   0.23202   0.00000  Uiso   1.00
C554   C     0.80044   0.97842   0.23225   0.00000  Uiso   1.00
C555   C     0.83328   0.95746   0.25017   0.00000  Uiso   1.00
C556   C     0.98566   0.80413   0.21984   0.00000  Uiso   1.00
C557   C     0.70025   0.80368   0.22052   0.00000  Uiso   1.00
C558   C     0.80868   0.83409   0.49449   0.00000  Uiso   1.00
C559   C     0.68151   0.86259   0.27941   0.00000  Uiso   1.00
C560   C     0.96630   0.86192   0.28101   0.00000  Uiso   1.00
C561   C     0.83340   0.75336   0.24986   0.00000  Uiso   1.00
C562   C     0.86020   0.83337   0.14772   0.00000  Uiso   1.00
C563   C     0.90799   0.77313   0.01793   0.00000  Uiso   1.00
C564   C     0.87681   0.82555   0.08927   0.00000  Uiso   1.00
C565   C     0.75064   0.86430   0.43745   0.00000  Uiso   1.00
C566   C     0.73969   0.87518   0.49207   0.00000  Uiso   1.00
C567   C     0.76818   0.86113   0.02112   0.00000  Uiso   1.00
C568   C     0.74823   0.76886   0.14137   0.00000  Uiso   1.00
C569   C     0.81425   0.81824   0.44157   0.00000  Uiso   1.00
C570   C     0.92573   0.88703   0.36749   0.00000  Uiso   1.00
C571   C     0.92014   0.70367   0.02297   0.00000  Uiso   1.00
C572   C     0.84386   0.82167   0.01694   0.00000  Uiso   1.00
C573   C     0.87594   0.78776   0.49293   0.00000  Uiso   1.00
C574   C     0.87536   0.76889   0.44467   0.00000  Uiso   1.00
C575   C     0.84573   0.78445   0.41876   0.00000  Uiso   1.00
C576   C     0.84976   0.84289   0.06111   0.00000  Uiso   1.00
C577   C     0.90764   0.79194   0.06673   0.00000  Uiso   1.00
H578   H     0.92906   0.77864   0.08852   0.00000  Uiso   1.00
H579   H     0.84716   0.76932   0.38077   0.00000  Uiso   1.00
H580   H     0.89150   0.96265   0.28227   0.00000  Uiso   1.00
H581   H     0.78765   0.77332   0.12623   0.00000  Uiso   1.00
H582   H     0.74183   0.73743   0.12702   0.00000  Uiso   1.00
H583   H     0.73172   0.79202   0.12201   0.00000  Uiso   1.00
H584   H     0.89242   0.90431   0.39163   0.00000  Uiso   1.00
H585   H     0.95581   0.90091   0.37780   0.00000  Uiso   1.00
H586   H     0.92051   0.85389   0.38036   0.00000  Uiso   1.00
H587   H     0.88372   0.69712   0.02168   0.00000  Uiso   1.00
H588   H     0.91890   0.70525   0.06610   0.00000  Uiso   1.00
H589   H     0.89160   0.70477   0.28205   0.00000  Uiso   1.00
H590   H     0.94388   0.67706   0.00241   0.00000  Uiso   1.00
H591   H     0.77541   0.70389   0.21757   0.00000  Uiso   1.00
H592   H     0.77515   0.96189   0.21797   0.00000  Uiso   1.00
H593   H     0.69281   0.88628   0.30223   0.00000  Uiso   1.00
H594   H     0.89887   0.74279   0.42577   0.00000  Uiso   1.00
H595   H     0.83241   0.87233   0.07598   0.00000  Uiso   1.00
H596   H     0.73025   0.87833   0.41484   0.00000  Uiso   1.00
H597   H     0.70917   0.89559   0.01172   0.00000  Uiso   1.00
N598   N     0.71426   0.83334   0.25002   0.00000  Uiso   1.00
N599   N     0.95239   0.83331   0.25001   0.00000  Uiso   1.00
O600   O     0.79512   0.89442   0.25001   0.00000  Uiso   1.00
O601   O     0.93320   0.89139   0.31134   0.00000  Uiso   1.00
O602   O     0.93939   0.74040   0.49490   0.00000  Uiso   1.00
O603   O     0.87157   0.89441   0.25001   0.00000  Uiso   1.00
O604   O     0.77613   0.83333   0.32681   0.00000  Uiso   1.00
O605   O     0.85258   0.83332   0.32681   0.00000  Uiso   1.00
O606   O     0.79510   0.77226   0.25000   0.00000  Uiso   1.00
O607   O     0.87154   0.77225   0.25000   0.00000  Uiso   1.00
O608   O     0.81409   0.83335   0.17319   0.00000  Uiso   1.00
O609   O     0.89053   0.83334   0.17319   0.00000  Uiso   1.00
O610   O     0.73047   0.76981   0.19926   0.00000  Uiso   1.00
Zn611  Zn    0.78229   0.83334   0.25000   0.00000  Uiso   1.00
Zn612  Zn    0.88438   0.83333   0.25000   0.00000  Uiso   1.00
Br613  Br    0.30142   0.09588   0.67670   0.00000  Uiso   1.00
Br614  Br    0.07526   0.20965   0.59790   0.00000  Uiso   1.00
C615   C     0.16661   0.24663   0.75017   0.00000  Uiso   1.00
C616   C     0.12181   0.17001   0.91177   0.00000  Uiso   1.00
C617   C     0.19960   0.31217   0.76787   0.00000  Uiso   1.00
C618   C     0.13975   0.16663   0.85230   0.00000  Uiso   1.00
C619   C     0.19969   0.02156   0.76771   0.00000  Uiso   1.00
C620   C     0.16682   0.04252   0.74980   0.00000  Uiso   1.00
C621   C     0.13392   0.02112   0.73202   0.00000  Uiso   1.00
C622   C     0.13378   0.31175   0.73225   0.00000  Uiso   1.00
C623   C     0.16662   0.29080   0.75017   0.00000  Uiso   1.00
C624   C     0.31900   0.13747   0.71984   0.00000  Uiso   1.00
C625   C     0.03358   0.13701   0.72052   0.00000  Uiso   1.00
C626   C     0.14201   0.16743   0.99449   0.00000  Uiso   1.00
C627   C     0.01485   0.19593   0.77941   0.00000  Uiso   1.00
C628   C     0.29963   0.19526   0.78101   0.00000  Uiso   1.00
C629   C     0.16673   0.08669   0.74986   0.00000  Uiso   1.00
C630   C     0.19353   0.16670   0.64772   0.00000  Uiso   1.00
C631   C     0.24132   0.10647   0.51793   0.00000  Uiso   1.00
C632   C     0.21014   0.15888   0.58927   0.00000  Uiso   1.00
C633   C     0.08397   0.19763   0.93745   0.00000  Uiso   1.00
C634   C     0.07302   0.20852   0.99207   0.00000  Uiso   1.00
C635   C     0.10151   0.19447   0.52112   0.00000  Uiso   1.00
C636   C     0.08157   0.10220   0.64137   0.00000  Uiso   1.00
C637   C     0.14758   0.15158   0.94157   0.00000  Uiso   1.00
C638   C     0.25906   0.22036   0.86749   0.00000  Uiso   1.00
C639   C     0.25347   0.03700   0.52297   0.00000  Uiso   1.00
C640   C     0.17719   0.15500   0.51694   0.00000  Uiso   1.00
C641   C     0.20927   0.12109   0.99293   0.00000  Uiso   1.00
C642   C     0.20870   0.10222   0.94467   0.00000  Uiso   1.00
C643   C     0.17906   0.11778   0.91876   0.00000  Uiso   1.00
C644   C     0.18310   0.17623   0.56111   0.00000  Uiso   1.00
C645   C     0.24098   0.12527   0.56673   0.00000  Uiso   1.00
H646   H     0.26239   0.11198   0.58852   0.00000  Uiso   1.00
H647   H     0.18049   0.10265   0.88077   0.00000  Uiso   1.00
H648   H     0.22483   0.29598   0.78227   0.00000  Uiso   1.00
H649   H     0.12098   0.10665   0.62623   0.00000  Uiso   1.00
H650   H     0.07517   0.07076   0.62702   0.00000  Uiso   1.00
H651   H     0.06505   0.12536   0.62201   0.00000  Uiso   1.00
H652   H     0.22575   0.23764   0.89163   0.00000  Uiso   1.00
H653   H     0.28914   0.23424   0.87780   0.00000  Uiso   1.00
H654   H     0.25384   0.18722   0.88036   0.00000  Uiso   1.00
H655   H     0.21706   0.03046   0.52168   0.00000  Uiso   1.00
H656   H     0.25223   0.03858   0.56610   0.00000  Uiso   1.00
H657   H     0.22493   0.03810   0.78205   0.00000  Uiso   1.00
H658   H     0.27722   0.01039   0.50241   0.00000  Uiso   1.00
H659   H     0.10874   0.03723   0.71757   0.00000  Uiso   1.00
H660   H     0.10849   0.29523   0.71797   0.00000  Uiso   1.00
H661   H     0.02614   0.21961   0.80223   0.00000  Uiso   1.00
H662   H     0.23220   0.07613   0.92577   0.00000  Uiso   1.00
H663   H     0.16574   0.20566   0.57598   0.00000  Uiso   1.00
H664   H     0.06358   0.21166   0.91484   0.00000  Uiso   1.00
H665   H     0.04251   0.22892   0.51172   0.00000  Uiso   1.00
N666   N     0.04760   0.16668   0.75002   0.00000  Uiso   1.00
N667   N     0.28573   0.16665   0.75001   0.00000  Uiso   1.00
O668   O     0.12846   0.22775   0.75001   0.00000  Uiso   1.00
O669   O     0.26654   0.22473   0.81134   0.00000  Uiso   1.00
O670   O     0.27272   0.07374   0.99490   0.00000  Uiso   1.00
O671   O     0.20490   0.22774   0.75001   0.00000  Uiso   1.00
O672   O     0.10947   0.16666   0.82681   0.00000  Uiso   1.00
O673   O     0.18591   0.16665   0.82681   0.00000  Uiso   1.00
O674   O     0.12843   0.10559   0.75000   0.00000  Uiso   1.00
O675   O     0.20488   0.10558   0.75000   0.00000  Uiso   1.00
O676   O     0.14742   0.16668   0.67319   0.00000  Uiso   1.00
O677   O     0.22387   0.16667   0.67319   0.00000  Uiso   1.00
O678   O     0.06380   0.10314   0.69926   0.00000  Uiso   1.00
Zn679  Zn    0.11562   0.16667   0.75000   0.00000  Uiso   1.00
Zn680  Zn    0.21771   0.16666   0.75000   0.00000  Uiso   1.00
Br681  Br    0.63475   0.09588   0.67670   0.00000  Uiso   1.00
Br682  Br    0.40859   0.20965   0.59790   0.00000  Uiso   1.00
C683   C     0.49994   0.24663   0.75017   0.00000  Uiso   1.00
C684   C     0.45515   0.17001   0.91177   0.00000  Uiso   1.00
C685   C     0.53293   0.31217   0.76787   0.00000  Uiso   1.00
C686   C     0.47308   0.16663   0.85230   0.00000  Uiso   1.00
C687   C     0.53302   0.02156   0.76771   0.00000  Uiso   1.00
C688   C     0.50016   0.04252   0.74980   0.00000  Uiso   1.00
C689   C     0.46726   0.02112   0.73202   0.00000  Uiso   1.00
C690   C     0.46711   0.31175   0.73225   0.00000  Uiso   1.00
C691   C     0.49995   0.29080   0.75017   0.00000  Uiso   1.00
C692   C     0.65233   0.13747   0.71984   0.00000  Uiso   1.00
C693   C     0.36692   0.13701   0.72052   0.00000  Uiso   1.00
C694   C     0.47534   0.16743   0.99449   0.00000  Uiso   1.00
C695   C     0.34818   0.19593   0.77941   0.00000  Uiso   1.00
C696   C     0.63297   0.19526   0.78101   0.00000  Uiso   1.00
C697   C     0.50006   0.08669   0.74986   0.00000  Uiso   1.00
C698   C     0.52686   0.16670   0.64772   0.00000  Uiso   1.00
C699   C     0.57466   0.10647   0.51793   0.00000  Uiso   1.00
C700   C     0.54347   0.15888   0.58927   0.00000  Uiso   1.00
C701   C     0.41730   0.19763   0.93745   0.00000  Uiso   1.00
C702   C     0.40636   0.20852   0.99207   0.00000  Uiso   1.00
C703   C     0.43484   0.19447   0.52112   0.00000  Uiso   1.00
C704   C     0.41490   0.10220   0.64137   0.00000  Uiso   1.00
C705   C     0.48092   0.15158   0.94157   0.00000  Uiso   1.00
C706   C     0.59239   0.22036   0.86749   0.00000  Uiso   1.00
C707   C     0.58681   0.03700   0.52297   0.00000  Uiso   1.00
C708   C     0.51052   0.15500   0.51694   0.00000  Uiso   1.00
C709   C     0.54260   0.12109   0.99293   0.00000  Uiso   1.00
C710   C     0.54203   0.10222   0.94467   0.00000  Uiso   1.00
C711   C     0.51240   0.11778   0.91876   0.00000  Uiso   1.00
C712   C     0.51643   0.17623   0.56111   0.00000  Uiso   1.00
C713   C     0.57431   0.12527   0.56673   0.00000  Uiso   1.00
H714   H     0.59573   0.11198   0.58852   0.00000  Uiso   1.00
H715   H     0.51383   0.10265   0.88077   0.00000  Uiso   1.00
H716   H     0.55817   0.29598   0.78227   0.00000  Uiso   1.00
H717   H     0.45432   0.10665   0.62623   0.00000  Uiso   1.00
H718   H     0.40850   0.07076   0.62702   0.00000  Uiso   1.00
H719   H     0.39838   0.12536   0.62201   0.00000  Uiso   1.00
H720   H     0.55909   0.23764   0.89163   0.00000  Uiso   1.00
H721   H     0.62248   0.23424   0.87780   0.00000  Uiso   1.00
H722   H     0.58718   0.18722   0.88036   0.00000  Uiso   1.00
H723   H     0.55039   0.03046   0.52168   0.00000  Uiso   1.00
H724   H     0.58556   0.03858   0.56610   0.00000  Uiso   1.00
H725   H     0.55827   0.03810   0.78205   0.00000  Uiso   1.00
H726   H     0.61055   0.01039   0.50241   0.00000  Uiso   1.00
H727   H     0.44208   0.03723   0.71757   0.00000  Uiso   1.00
H728   H     0.44182   0.29523   0.71797   0.00000  Uiso   1.00
H729   H     0.35948   0.21961   0.80223   0.00000  Uiso   1.00
H730   H     0.56554   0.07613   0.92577   0.00000  Uiso   1.00
H731   H     0.49908   0.20566   0.57598   0.00000  Uiso   1.00
H732   H     0.39691   0.21166   0.91484   0.00000  Uiso   1.00
H733   H     0.37584   0.22892   0.51172   0.00000  Uiso   1.00
N734   N     0.38093   0.16668   0.75002   0.00000  Uiso   1.00
N735   N     0.61906   0.16665   0.75001   0.00000  Uiso   1.00
O736   O     0.46179   0.22775   0.75001   0.00000  Uiso   1.00
O737   O     0.59987   0.22473   0.81134   0.00000  Uiso   1.00
O738   O     0.60605   0.07374   0.99490   0.00000  Uiso   1.00
O739   O     0.53823   0.22774   0.75001   0.00000  Uiso   1.00
O740   O     0.44280   0.16666   0.82681   0.00000  Uiso   1.00
O741   O     0.51924   0.16665   0.82681   0.00000  Uiso   1.00
O742   O     0.46177   0.10559   0.75000   0.00000  Uiso   1.00
O743   O     0.53821   0.10558   0.75000   0.00000  Uiso   1.00
O744   O     0.48076   0.16668   0.67319   0.00000  Uiso   1.00
O745   O     0.55720   0.16667   0.67319   0.00000  Uiso   1.00
O746   O     0.39714   0.10314   0.69926   0.00000  Uiso   1.00
Zn747  Zn    0.44896   0.16667   0.75000   0.00000  Uiso   1.00
Zn748  Zn    0.55104   0.16666   0.75000   0.00000  Uiso   1.00
Br749  Br    0.96808   0.09588   0.67670   0.00000  Uiso   1.00
Br750  Br    0.74192   0.20965   0.59790   0.00000  Uiso   1.00
C751   C     0.83327   0.24663   0.75017   0.00000  Uiso   1.00
C752   C     0.78848   0.17001   0.91177   0.00000  Uiso   1.00
C753   C     0.86627   0.31217   0.76787   0.00000  Uiso   1.00
C754   C     0.80642   0.16663   0.85230   0.00000  Uiso   1.00
C755   C     0.86636   0.02156   0.76771   0.00000  Uiso   1.00
C756   C     0.83349   0.04252   0.74980   0.00000  Uiso   1.00
C757   C     0.80059   0.02112   0.73202   0.00000  Uiso   1.00
C758   C     0.80044   0.31175   0.73225   0.00000  Uiso   1.00
C759   C     0.83328   0.29080   0.75017   0.00000  Uiso   1.00
C760   C     0.98566   0.13747   0.71984   0.00000  Uiso   1.00
C761   C     0.70025   0.13701   0.72052   0.00000  Uiso   1.00
C762   C     0.80868   0.16743   0.99449   0.00000  Uiso   1.00
C763   C     0.68151   0.19593   0.77941   0.00000  Uiso   1.00
C764   C     0.96630   0.19526   0.78101   0.00000  Uiso   1.00
C765   C     0.83340   0.08669   0.74986   0.00000  Uiso   1.00
C766   C     0.86020   0.16670   0.64772   0.00000  Uiso   1.00
C767   C     0.90799   0.10647   0.51793   0.00000  Uiso   1.00
C768   C     0.87681   0.15888   0.58927   0.00000  Uiso   1.00
C769   C     0.75064   0.19763   0.93745   0.00000  Uiso   1.00
C770   C     0.73969   0.20852   0.99207   0.00000  Uiso   1.00
C771   C     0.76818   0.19447   0.52112   0.00000  Uiso   1.00
C772   C     0.74823   0.10220   0.64137   0.00000  Uiso   1.00
C773   C     0.81425   0.15158   0.94157   0.00000  Uiso   1.00
C774   C     0.92573   0.22036   0.86749   0.00000  Uiso   1.00
C775   C     0.92014   0.03700   0.52297   0.00000  Uiso   1.00
C776   C     0.84386   0.15500   0.51694   0.00000  Uiso   1.00
C777   C     0.87594   0.12109   0.99293   0.00000  Uiso   1.00
C778   C     0.87536   0.10222   0.94467   0.00000  Uiso   1.00
C779   C     0.84573   0.11778   0.91876   0.00000  Uiso   1.00
C780   C     0.84976   0.17623   0.56111   0.00000  Uiso   1.00
C781   C     0.90764   0.12527   0.56673   0.00000  Uiso   1.00
H782   H     0.92906   0.11198   0.58852   0.00000  Uiso   1.00
H783   H     0.84716   0.10265   0.88077   0.00000  Uiso   1.00
H784   H     0.89150   0.29598   0.78227   0.00000  Uiso   1.00
H785   H     0.78765   0.10665   0.62623   0.00000  Uiso   1.00
H786   H     0.74183   0.07076   0.62702   0.00000  Uiso   1.00
H787   H     0.73172   0.12536   0.62201   0.00000  Uiso   1.00
H788   H     0.89242   0.23764   0.89163   0.00000  Uiso   1.00
H789   H     0.95581   0.23424   0.87780   0.00000  Uiso   1.00
H790   H     0.92051   0.18722   0.88036   0.00000  Uiso   1.00
H791   H     0.88372   0.03046   0.52168   0.00000  Uiso   1.00
H792   H     0.91890   0.03858   0.56610   0.00000  Uiso   1.00
H793   H     0.89160   0.03810   0.78205   0.00000  Uiso   1.00
H794   H     0.94388   0.01039   0.50241   0.00000  Uiso   1.00
H795   H     0.77541   0.03723   0.71757   0.00000  Uiso   1.00
H796   H     0.77515   0.29523   0.71797   0.00000  Uiso   1.00
H797   H     0.69281   0.21961   0.80223   0.00000  Uiso   1.00
H798   H     0.89887   0.07613   0.92577   0.00000  Uiso   1.00
H799   H     0.83241   0.20566   0.57598   0.00000  Uiso   1.00
H800   H     0.73025   0.21166   0.91484   0.00000  Uiso   1.00
H801   H     0.70917   0.22892   0.51172   0.00000  Uiso   1.00
N802   N     0.71426   0.16668   0.75002   0.00000  Uiso   1.00
N803   N     0.95239   0.16665   0.75001   0.00000  Uiso   1.00
O804   O     0.79512   0.22775   0.75001   0.00000  Uiso   1.00
O805   O     0.93320   0.22473   0.81134   0.00000  Uiso   1.00
O806   O     0.93939   0.07374   0.99490   0.00000  Uiso   1.00
O807   O     0.87157   0.22774   0.75001   0.00000  Uiso   1.00
O808   O     0.77613   0.16666   0.82681   0.00000  Uiso   1.00
O809   O     0.85258   0.16665   0.82681   0.00000  Uiso   1.00
O810   O     0.79510   0.10559   0.75000   0.00000  Uiso   1.00
O811   O     0.87154   0.10558   0.75000   0.00000  Uiso   1.00
O812   O     0.81409   0.16668   0.67319   0.00000  Uiso   1.00
O813   O     0.89053   0.16667   0.67319   0.00000  Uiso   1.00
O814   O     0.73047   0.10314   0.69926   0.00000  Uiso   1.00
Zn815  Zn    0.78229   0.16667   0.75000   0.00000  Uiso   1.00
Zn816  Zn    0.88438   0.16666   0.75000   0.00000  Uiso   1.00
Br817  Br    0.30142   0.42922   0.67670   0.00000  Uiso   1.00
Br818  Br    0.07526   0.54298   0.59790   0.00000  Uiso   1.00
C819   C     0.16661   0.57997   0.75017   0.00000  Uiso   1.00
C820   C     0.12181   0.50334   0.91177   0.00000  Uiso   1.00
C821   C     0.19960   0.64550   0.76787   0.00000  Uiso   1.00
C822   C     0.13975   0.49996   0.85230   0.00000  Uiso   1.00
C823   C     0.19969   0.35489   0.76771   0.00000  Uiso   1.00
C824   C     0.16682   0.37585   0.74980   0.00000  Uiso   1.00
C825   C     0.13392   0.35445   0.73202   0.00000  Uiso   1.00
C826   C     0.13378   0.64508   0.73225   0.00000  Uiso   1.00
C827   C     0.16662   0.62413   0.75017   0.00000  Uiso   1.00
C828   C     0.31900   0.47080   0.71984   0.00000  Uiso   1.00
C829   C     0.03358   0.47035   0.72052   0.00000  Uiso   1.00
C830   C     0.14201   0.50076   0.99449   0.00000  Uiso   1.00
C831   C     0.01485   0.52926   0.77941   0.00000  Uiso   1.00
C832   C     0.29963   0.52859   0.78101   0.00000  Uiso   1.00
C833   C     0.16673   0.42003   0.74986   0.00000  Uiso   1.00
C834   C     0.19353   0.50004   0.64772   0.00000  Uiso   1.00
C835   C     0.24132   0.43980   0.51793   0.00000  Uiso   1.00
C836   C     0.21014   0.49221   0.58927   0.00000  Uiso   1.00
C837   C     0.08397   0.53096   0.93745   0.00000  Uiso   1.00
C838   C     0.07302   0.54185   0.99207   0.00000  Uiso   1.00
C839   C     0.10151   0.52780   0.52112   0.00000  Uiso   1.00
C840   C     0.08157   0.43553   0.64137   0.00000  Uiso   1.00
C841   C     0.14758   0.48491   0.94157   0.00000  Uiso   1.00
C842   C     0.25906   0.55369   0.86749   0.00000  Uiso   1.00
C843   C     0.25347   0.37033   0.52297   0.00000  Uiso   1.00
C844   C     0.17719   0.48833   0.51694   0.00000  Uiso   1.00
C845   C     0.20927   0.45442   0.99293   0.00000  Uiso   1.00
C846   C     0.20870   0.43556   0.94467   0.00000  Uiso   1.00
C847   C     0.17906   0.45111   0.91876   0.00000  Uiso   1.00
C848   C     0.18310   0.50956   0.56111   0.00000  Uiso   1.00
C849   C     0.24098   0.45861   0.56673   0.00000  Uiso   1.00
H850   H     0.26239   0.44531   0.58852   0.00000  Uiso   1.00
H851   H     0.18049   0.43599   0.88077   0.00000  Uiso   1.00
H852   H     0.22483   0.62931   0.78227   0.00000  Uiso   1.00
H853   H     0.12098   0.43999   0.62623   0.00000  Uiso   1.00
H854   H     0.07517   0.40410   0.62702   0.00000  Uiso   1.00
H855   H     0.06505   0.45869   0.62201   0.00000  Uiso   1.00
H856   H     0.22575   0.57098   0.89163   0.00000  Uiso   1.00
H857   H     0.28914   0.56758   0.87780   0.00000  Uiso   1.00
H858   H     0.25384   0.52056   0.88036   0.00000  Uiso   1.00
H859   H     0.21706   0.36379   0.52168   0.00000  Uiso   1.00
H860   H     0.25223   0.37192   0.56610   0.00000  Uiso   1.00
H861   H     0.22493   0.37143   0.78205   0.00000  Uiso   1.00
H862   H     0.27722   0.34372   0.50241   0.00000  Uiso   1.00
H863   H     0.10874   0.37056   0.71757   0.00000  Uiso   1.00
H864   H     0.10849   0.62856   0.71797   0.00000  Uiso   1.00
H865   H     0.02614   0.55295   0.80223   0.00000  Uiso   1.00
H866   H     0.23220   0.40946   0.92577   0.00000  Uiso   1.00
H867   H     0.16574   0.53899   0.57598   0.00000  Uiso   1.00
H868   H     0.06358   0.54499   0.91484   0.00000  Uiso   1.00
H869   H     0.04251   0.56226   0.51172   0.00000  Uiso   1.00
N870   N     0.04760   0.50001   0.75002   0.00000  Uiso   1.00
N871   N     0.28573   0.49998   0.75001   0.00000  Uiso   1.00
O872   O     0.12846   0.56108   0.75001   0.00000  Uiso   1.00
O873   O     0.26654   0.55806   0.81134   0.00000  Uiso   1.00
O874   O     0.27272   0.40707   0.99490   0.00000  Uiso   1.00
O875   O     0.20490   0.56107   0.75001   0.00000  Uiso   1.00
O876   O     0.10947   0.50000   0.82681   0.00000  Uiso   1.00
O877   O     0.18591   0.49999   0.82681   0.00000  Uiso   1.00
O878   O     0.12843   0.43893   0.75000   0.00000  Uiso   1.00
O879   O     0.20488   0.43892   0.75000   0.00000  Uiso   1.00
O880   O     0.14742   0.50001   0.67319   0.00000  Uiso   1.00
O881   O     0.22387   0.50000   0.67319   0.00000  Uiso   1.00
O882   O     0.06380   0.43648   0.69926   0.00000  Uiso   1.00
Zn883  Zn    0.11562   0.50001   0.75000   0.00000  Uiso   1.00
Zn884  Zn    0.21771   0.49999   0.75000   0.00000  Uiso   1.00
Br885  Br    0.63475   0.42922   0.67670   0.00000  Uiso   1.00
Br886  Br    0.40859   0.54298   0.59790   0.00000  Uiso   1.00
C887   C     0.49994   0.57997   0.75017   0.00000  Uiso   1.00
C888   C     0.45515   0.50334   0.91177   0.00000  Uiso   1.00
C889   C     0.53293   0.64550   0.76787   0.00000  Uiso   1.00
C890   C     0.47308   0.49996   0.85230   0.00000  Uiso   1.00
C891   C     0.53302   0.35489   0.76771   0.00000  Uiso   1.00
C892   C     0.50016   0.37585   0.74980   0.00000  Uiso   1.00
C893   C     0.46726   0.35445   0.73202   0.00000  Uiso   1.00
C894   C     0.46711   0.64508   0.73225   0.00000  Uiso   1.00
C895   C     0.49995   0.62413   0.75017   0.00000  Uiso   1.00
C896   C     0.65233   0.47080   0.71984   0.00000  Uiso   1.00
C897   C     0.36692   0.47035   0.72052   0.00000  Uiso   1.00
C898   C     0.47534   0.50076   0.99449   0.00000  Uiso   1.00
C899   C     0.34818   0.52926   0.77941   0.00000  Uiso   1.00
C900   C     0.63297   0.52859   0.78101   0.00000  Uiso   1.00
C901   C     0.50006   0.42003   0.74986   0.00000  Uiso   1.00
C902   C     0.52686   0.50004   0.64772   0.00000  Uiso   1.00
C903   C     0.57466   0.43980   0.51793   0.00000  Uiso   1.00
C904   C     0.54347   0.49221   0.58927   0.00000  Uiso   1.00
C905   C     0.41730   0.53096   0.93745   0.00000  Uiso   1.00
C906   C     0.40636   0.54185   0.99207   0.00000  Uiso   1.00
C907   C     0.43484   0.52780   0.52112   0.00000  Uiso   1.00
C908   C     0.41490   0.43553   0.64137   0.00000  Uiso   1.00
C909   C     0.48092   0.48491   0.94157   0.00000  Uiso   1.00
C910   C     0.59239   0.55369   0.86749   0.00000  Uiso   1.00
C911   C     0.58681   0.37033   0.52297   0.00000  Uiso   1.00
C912   C     0.51052   0.48833   0.51694   0.00000  Uiso   1.00
C913   C     0.54260   0.45442   0.99293   0.00000  Uiso   1.00
C914   C     0.54203   0.43556   0.94467   0.00000  Uiso   1.00
C915   C     0.51240   0.45111   0.91876   0.00000  Uiso   1.00
C916   C     0.51643   0.50956   0.56111   0.00000  Uiso   1.00
C917   C     0.57431   0.45861   0.56673   0.00000  Uiso   1.00
H918   H     0.59573   0.44531   0.58852   0.00000  Uiso   1.00
H919   H     0.51383   0.43599   0.88077   0.00000  Uiso   1.00
H920   H     0.55817   0.62931   0.78227   0.00000  Uiso   1.00
H921   H     0.45432   0.43999   0.62623   0.00000  Uiso   1.00
H922   H     0.40850   0.40410   0.62702   0.00000  Uiso   1.00
H923   H     0.39838   0.45869   0.62201   0.00000  Uiso   1.00
H924   H     0.55909   0.57098   0.89163   0.00000  Uiso   1.00
H925   H     0.62248   0.56758   0.87780   0.00000  Uiso   1.00
H926   H     0.58718   0.52056   0.88036   0.00000  Uiso   1.00
H927   H     0.55039   0.36379   0.52168   0.00000  Uiso   1.00
H928   H     0.58556   0.37192   0.56610   0.00000  Uiso   1.00
H929   H     0.55827   0.37143   0.78205   0.00000  Uiso   1.00
H930   H     0.61055   0.34372   0.50241   0.00000  Uiso   1.00
H931   H     0.44208   0.37056   0.71757   0.00000  Uiso   1.00
H932   H     0.44182   0.62856   0.71797   0.00000  Uiso   1.00
H933   H     0.35948   0.55295   0.80223   0.00000  Uiso   1.00
H934   H     0.56554   0.40946   0.92577   0.00000  Uiso   1.00
H935   H     0.49908   0.53899   0.57598   0.00000  Uiso   1.00
H936   H     0.39691   0.54499   0.91484   0.00000  Uiso   1.00
H937   H     0.37584   0.56226   0.51172   0.00000  Uiso   1.00
N938   N     0.38093   0.50001   0.75002   0.00000  Uiso   1.00
N939   N     0.61906   0.49998   0.75001   0.00000  Uiso   1.00
O940   O     0.46179   0.56108   0.75001   0.00000  Uiso   1.00
O941   O     0.59987   0.55806   0.81134   0.00000  Uiso   1.00
O942   O     0.60605   0.40707   0.99490   0.00000  Uiso   1.00
O943   O     0.53823   0.56107   0.75001   0.00000  Uiso   1.00
O944   O     0.44280   0.50000   0.82681   0.00000  Uiso   1.00
O945   O     0.51924   0.49999   0.82681   0.00000  Uiso   1.00
O946   O     0.46177   0.43893   0.75000   0.00000  Uiso   1.00
O947   O     0.53821   0.43892   0.75000   0.00000  Uiso   1.00
O948   O     0.48076   0.50001   0.67319   0.00000  Uiso   1.00
O949   O     0.55720   0.50000   0.67319   0.00000  Uiso   1.00
O950   O     0.39714   0.43648   0.69926   0.00000  Uiso   1.00
Zn951  Zn    0.44896   0.50001   0.75000   0.00000  Uiso   1.00
Zn952  Zn    0.55104   0.49999   0.75000   0.00000  Uiso   1.00
Br953  Br    0.96808   0.42922   0.67670   0.00000  Uiso   1.00
Br954  Br    0.74192   0.54298   0.59790   0.00000  Uiso   1.00
C955   C     0.83327   0.57997   0.75017   0.00000  Uiso   1.00
C956   C     0.78848   0.50334   0.91177   0.00000  Uiso   1.00
C957   C     0.86627   0.64550   0.76787   0.00000  Uiso   1.00
C958   C     0.80642   0.49996   0.85230   0.00000  Uiso   1.00
C959   C     0.86636   0.35489   0.76771   0.00000  Uiso   1.00
C960   C     0.83349   0.37585   0.74980   0.00000  Uiso   1.00
C961   C     0.80059   0.35445   0.73202   0.00000  Uiso   1.00
C962   C     0.80044   0.64508   0.73225   0.00000  Uiso   1.00
C963   C     0.83328   0.62413   0.75017   0.00000  Uiso   1.00
C964   C     0.98566   0.47080   0.71984   0.00000  Uiso   1.00
C965   C     0.70025   0.47035   0.72052   0.00000  Uiso   1.00
C966   C     0.80868   0.50076   0.99449   0.00000  Uiso   1.00
C967   C     0.68151   0.52926   0.77941   0.00000  Uiso   1.00
C968   C     0.96630   0.52859   0.78101   0.00000  Uiso   1.00
C969   C     0.83340   0.42003   0.74986   0.00000  Uiso   1.00
C970   C     0.86020   0.50004   0.64772   0.00000  Uiso   1.00
C971   C     0.90799   0.43980   0.51793   0.00000  Uiso   1.00
C972   C     0.87681   0.49221   0.58927   0.00000  Uiso   1.00
C973   C     0.75064   0.53096   0.93745   0.00000  Uiso   1.00
C974   C     0.73969   0.54185   0.99207   0.00000  Uiso   1.00
C975   C     0.76818   0.52780   0.52112   0.00000  Uiso   1.00
C976   C     0.74823   0.43553   0.64137   0.00000  Uiso   1.00
C977   C     0.81425   0.48491   0.94157   0.00000  Uiso   1.00
C978   C     0.92573   0.55369   0.86749   0.00000  Uiso   1.00
C979   C     0.92014   0.37033   0.52297   0.00000  Uiso   1.00
C980   C     0.84386   0.48833   0.51694   0.00000  Uiso   1.00
C981   C     0.87594   0.45442   0.99293   0.00000  Uiso   1.00
C982   C     0.87536   0.43556   0.94467   0.00000  Uiso   1.00
C983   C     0.84573   0.45111   0.91876   0.00000  Uiso   1.00
C984   C     0.84976   0.50956   0.56111   0.00000  Uiso   1.00
C985   C     0.90764   0.45861   0.56673   0.00000  Uiso   1.00
H986   H     0.92906   0.44531   0.58852   0.00000  Uiso   1.00
H987   H     0.84716   0.43599   0.88077   0.00000  Uiso   1.00
H988   H     0.89150   0.62931   0.78227   0.00000  Uiso   1.00
H989   H     0.78765   0.43999   0.62623   0.00000  Uiso   1.00
H990   H     0.74183   0.40410   0.62702   0.00000  Uiso   1.00
H991   H     0.73172   0.45869   0.62201   0.00000  Uiso   1.00
H992   H     0.89242   0.57098   0.89163   0.00000  Uiso   1.00
H993   H     0.95581   0.56758   0.87780   0.00000  Uiso   1.00
H994   H     0.92051   0.52056   0.88036   0.00000  Uiso   1.00
H995   H     0.88372   0.36379   0.52168   0.00000  Uiso   1.00
H996   H     0.91890   0.37192   0.56610   0.00000  Uiso   1.00
H997   H     0.89160   0.37143   0.78205   0.00000  Uiso   1.00
H998   H     0.94388   0.34372   0.50241   0.00000  Uiso   1.00
H999   H     0.77541   0.37056   0.71757   0.00000  Uiso   1.00
H1000  H     0.77515   0.62856   0.71797   0.00000  Uiso   1.00
H1001  H     0.69281   0.55295   0.80223   0.00000  Uiso   1.00
H1002  H     0.89887   0.40946   0.92577   0.00000  Uiso   1.00
H1003  H     0.83241   0.53899   0.57598   0.00000  Uiso   1.00
H1004  H     0.73025   0.54499   0.91484   0.00000  Uiso   1.00
H1005  H     0.70917   0.56226   0.51172   0.00000  Uiso   1.00
N1006  N     0.71426   0.50001   0.75002   0.00000  Uiso   1.00
N1007  N     0.95239   0.49998   0.75001   0.00000  Uiso   1.00
O1008  O     0.79512   0.56108   0.75001   0.00000  Uiso   1.00
O1009  O     0.93320   0.55806   0.81134   0.00000  Uiso   1.00
O1010  O     0.93939   0.40707   0.99490   0.00000  Uiso   1.00
O1011  O     0.87157   0.56107   0.75001   0.00000  Uiso   1.00
O1012  O     0.77613   0.50000   0.82681   0.00000  Uiso   1.00
O1013  O     0.85258   0.49999   0.82681   0.00000  Uiso   1.00
O1014  O     0.79510   0.43893   0.75000   0.00000  Uiso   1.00
O1015  O     0.87154   0.43892   0.75000   0.00000  Uiso   1.00
O1016  O     0.81409   0.50001   0.67319   0.00000  Uiso   1.00
O1017  O     0.89053   0.50000   0.67319   0.00000  Uiso   1.00
O1018  O     0.73047   0.43648   0.69926   0.00000  Uiso   1.00
Zn1019 Zn    0.78229   0.50001   0.75000   0.00000  Uiso   1.00
Zn1020 Zn    0.88438   0.49999   0.75000   0.00000  Uiso   1.00
Br1021 Br    0.30142   0.76255   0.67670   0.00000  Uiso   1.00
Br1022 Br    0.07526   0.87632   0.59790   0.00000  Uiso   1.00
C1023  C     0.16661   0.91330   0.75017   0.00000  Uiso   1.00
C1024  C     0.12181   0.83667   0.91177   0.00000  Uiso   1.00
C1025  C     0.19960   0.97883   0.76787   0.00000  Uiso   1.00
C1026  C     0.13975   0.83330   0.85230   0.00000  Uiso   1.00
C1027  C     0.19969   0.68823   0.76771   0.00000  Uiso   1.00
C1028  C     0.16682   0.70918   0.74980   0.00000  Uiso   1.00
C1029  C     0.13392   0.68779   0.73202   0.00000  Uiso   1.00
C1030  C     0.13378   0.97842   0.73225   0.00000  Uiso   1.00
C1031  C     0.16662   0.95746   0.75017   0.00000  Uiso   1.00
C1032  C     0.31900   0.80413   0.71984   0.00000  Uiso   1.00
C1033  C     0.03358   0.80368   0.72052   0.00000  Uiso   1.00
C1034  C     0.14201   0.83409   0.99449   0.00000  Uiso   1.00
C1035  C     0.01485   0.86259   0.77941   0.00000  Uiso   1.00
C1036  C     0.29963   0.86192   0.78101   0.00000  Uiso   1.00
C1037  C     0.16673   0.75336   0.74986   0.00000  Uiso   1.00
C1038  C     0.19353   0.83337   0.64772   0.00000  Uiso   1.00
C1039  C     0.24132   0.77313   0.51793   0.00000  Uiso   1.00
C1040  C     0.21014   0.82555   0.58927   0.00000  Uiso   1.00
C1041  C     0.08397   0.86430   0.93745   0.00000  Uiso   1.00
C1042  C     0.07302   0.87518   0.99207   0.00000  Uiso   1.00
C1043  C     0.10151   0.86113   0.52112   0.00000  Uiso   1.00
C1044  C     0.08157   0.76886   0.64137   0.00000  Uiso   1.00
C1045  C     0.14758   0.81824   0.94157   0.00000  Uiso   1.00
C1046  C     0.25906   0.88703   0.86749   0.00000  Uiso   1.00
C1047  C     0.25347   0.70367   0.52297   0.00000  Uiso   1.00
C1048  C     0.17719   0.82167   0.51694   0.00000  Uiso   1.00
C1049  C     0.20927   0.78776   0.99293   0.00000  Uiso   1.00
C1050  C     0.20870   0.76889   0.94467   0.00000  Uiso   1.00
C1051  C     0.17906   0.78445   0.91876   0.00000  Uiso   1.00
C1052  C     0.18310   0.84289   0.56111   0.00000  Uiso   1.00
C1053  C     0.24098   0.79194   0.56673   0.00000  Uiso   1.00
H1054  H     0.26239   0.77864   0.58852   0.00000  Uiso   1.00
H1055  H     0.18049   0.76932   0.88077   0.00000  Uiso   1.00
H1056  H     0.22483   0.96265   0.78227   0.00000  Uiso   1.00
H1057  H     0.12098   0.77332   0.62623   0.00000  Uiso   1.00
H1058  H     0.07517   0.73743   0.62702   0.00000  Uiso   1.00
H1059  H     0.06505   0.79202   0.62201   0.00000  Uiso   1.00
H1060  H     0.22575   0.90431   0.89163   0.00000  Uiso   1.00
H1061  H     0.28914   0.90091   0.87780   0.00000  Uiso   1.00
H1062  H     0.25384   0.85389   0.88036   0.00000  Uiso   1.00
H1063  H     0.21706   0.69712   0.52168   0.00000  Uiso   1.00
H1064  H     0.25223   0.70525   0.56610   0.00000  Uiso   1.00
H1065  H     0.22493   0.70477   0.78205   0.00000  Uiso   1.00
H1066  H     0.27722   0.67706   0.50241   0.00000  Uiso   1.00
H1067  H     0.10874   0.70389   0.71757   0.00000  Uiso   1.00
H1068  H     0.10849   0.96189   0.71797   0.00000  Uiso   1.00
H1069  H     0.02614   0.88628   0.80223   0.00000  Uiso   1.00
H1070  H     0.23220   0.74279   0.92577   0.00000  Uiso   1.00
H1071  H     0.16574   0.87233   0.57598   0.00000  Uiso   1.00
H1072  H     0.06358   0.87833   0.91484   0.00000  Uiso   1.00
H1073  H     0.04251   0.89559   0.51172   0.00000  Uiso   1.00
N1074  N     0.04760   0.83334   0.75002   0.00000  Uiso   1.00
N1075  N     0.28573   0.83331   0.75001   0.00000  Uiso   1.00
O1076  O     0.12846   0.89442   0.75001   0.00000  Uiso   1.00
O1077  O     0.26654   0.89139   0.81134   0.00000  Uiso   1.00
O1078  O     0.27272   0.74040   0.99490   0.00000  Uiso   1.00
O1079  O     0.20490   0.89441   0.75001   0.00000  Uiso   1.00
O1080  O     0.10947   0.83333   0.82681   0.00000  Uiso   1.00
O1081  O     0.18591   0.83332   0.82681   0.00000  Uiso   1.00
O1082  O     0.12843   0.77226   0.75000   0.00000  Uiso   1.00
O1083  O     0.20488   0.77225   0.75000   0.00000  Uiso   1.00
O1084  O     0.14742   0.83335   0.67319   0.00000  Uiso   1.00
O1085  O     0.22387   0.83334   0.67319   0.00000  Uiso   1.00
O1086  O     0.06380   0.76981   0.69926   0.00000  Uiso   1.00
Zn1087 Zn    0.11562   0.83334   0.75000   0.00000  Uiso   1.00
Zn1088 Zn    0.21771   0.83333   0.75000   0.00000  Uiso   1.00
Br1089 Br    0.63475   0.76255   0.67670   0.00000  Uiso   1.00
Br1090 Br    0.40859   0.87632   0.59790   0.00000  Uiso   1.00
C1091  C     0.49994   0.91330   0.75017   0.00000  Uiso   1.00
C1092  C     0.45515   0.83667   0.91177   0.00000  Uiso   1.00
C1093  C     0.53293   0.97883   0.76787   0.00000  Uiso   1.00
C1094  C     0.47308   0.83330   0.85230   0.00000  Uiso   1.00
C1095  C     0.53302   0.68823   0.76771   0.00000  Uiso   1.00
C1096  C     0.50016   0.70918   0.74980   0.00000  Uiso   1.00
C1097  C     0.46726   0.68779   0.73202   0.00000  Uiso   1.00
C1098  C     0.46711   0.97842   0.73225   0.00000  Uiso   1.00
C1099  C     0.49995   0.95746   0.75017   0.00000  Uiso   1.00
C1100  C     0.65233   0.80413   0.71984   0.00000  Uiso   1.00
C1101  C     0.36692   0.80368   0.72052   0.00000  Uiso   1.00
C1102  C     0.47534   0.83409   0.99449   0.00000  Uiso   1.00
C1103  C     0.34818   0.86259   0.77941   0.00000  Uiso   1.00
C1104  C     0.63297   0.86192   0.78101   0.00000  Uiso   1.00
C1105  C     0.50006   0.75336   0.74986   0.00000  Uiso   1.00
C1106  C     0.52686   0.83337   0.64772   0.00000  Uiso   1.00
C1107  C     0.57466   0.77313   0.51793   0.00000  Uiso   1.00
C1108  C     0.54347   0.82555   0.58927   0.00000  Uiso   1.00
C1109  C     0.41730   0.86430   0.93745   0.00000  Uiso   1.00
C1110  C     0.40636   0.87518   0.99207   0.00000  Uiso   1.00
C1111  C     0.43484   0.86113   0.52112   0.00000  Uiso   1.00
C1112  C     0.41490   0.76886   0.64137   0.00000  Uiso   1.00
C1113  C     0.48092   0.81824   0.94157   0.00000  Uiso   1.00
C1114  C     0.59239   0.88703   0.86749   0.00000  Uiso   1.00
C1115  C     0.58681   0.70367   0.52297   0.00000  Uiso   1.00
C1116  C     0.51052   0.82167   0.51694   0.00000  Uiso   1.00
C1117  C     0.54260   0.78776   0.99293   0.00000  Uiso   1.00
C1118  C     0.54203   0.76889   0.94467   0.00000  Uiso   1.00
C1119  C     0.51240   0.78445   0.91876   0.00000  Uiso   1.00
C1120  C     0.51643   0.84289   0.56111   0.00000  Uiso   1.00
C1121  C     0.57431   0.79194   0.56673   0.00000  Uiso   1.00
H1122  H     0.59573   0.77864   0.58852   0.00000  Uiso   1.00
H1123  H     0.51383   0.76932   0.88077   0.00000  Uiso   1.00
H1124  H     0.55817   0.96265   0.78227   0.00000  Uiso   1.00
H1125  H     0.45432   0.77332   0.62623   0.00000  Uiso   1.00
H1126  H     0.40850   0.73743   0.62702   0.00000  Uiso   1.00
H1127  H     0.39838   0.79202   0.62201   0.00000  Uiso   1.00
H1128  H     0.55909   0.90431   0.89163   0.00000  Uiso   1.00
H1129  H     0.62248   0.90091   0.87780   0.00000  Uiso   1.00
H1130  H     0.58718   0.85389   0.88036   0.00000  Uiso   1.00
H1131  H     0.55039   0.69712   0.52168   0.00000  Uiso   1.00
H1132  H     0.58556   0.70525   0.56610   0.00000  Uiso   1.00
H1133  H     0.55827   0.70477   0.78205   0.00000  Uiso   1.00
H1134  H     0.61055   0.67706   0.50241   0.00000  Uiso   1.00
H1135  H     0.44208   0.70389   0.71757   0.00000  Uiso   1.00
H1136  H     0.44182   0.96189   0.71797   0.00000  Uiso   1.00
H1137  H     0.35948   0.88628   0.80223   0.00000  Uiso   1.00
H1138  H     0.56554   0.74279   0.92577   0.00000  Uiso   1.00
H1139  H     0.49908   0.87233   0.57598   0.00000  Uiso   1.00
H1140  H     0.39691   0.87833   0.91484   0.00000  Uiso   1.00
H1141  H     0.37584   0.89559   0.51172   0.00000  Uiso   1.00
N1142  N     0.38093   0.83334   0.75002   0.00000  Uiso   1.00
N1143  N     0.61906   0.83331   0.75001   0.00000  Uiso   1.00
O1144  O     0.46179   0.89442   0.75001   0.00000  Uiso   1.00
O1145  O     0.59987   0.89139   0.81134   0.00000  Uiso   1.00
O1146  O     0.60605   0.74040   0.99490   0.00000  Uiso   1.00
O1147  O     0.53823   0.89441   0.75001   0.00000  Uiso   1.00
O1148  O     0.44280   0.83333   0.82681   0.00000  Uiso   1.00
O1149  O     0.51924   0.83332   0.82681   0.00000  Uiso   1.00
O1150  O     0.46177   0.77226   0.75000   0.00000  Uiso   1.00
O1151  O     0.53821   0.77225   0.75000   0.00000  Uiso   1.00
O1152  O     0.48076   0.83335   0.67319   0.00000  Uiso   1.00
O1153  O     0.55720   0.83334   0.67319   0.00000  Uiso   1.00
O1154  O     0.39714   0.76981   0.69926   0.00000  Uiso   1.00
Zn1155 Zn    0.44896   0.83334   0.75000   0.00000  Uiso   1.00
Zn1156 Zn    0.55104   0.83333   0.75000   0.00000  Uiso   1.00
Br1157 Br    0.96808   0.76255   0.67670   0.00000  Uiso   1.00
Br1158 Br    0.74192   0.87632   0.59790   0.00000  Uiso   1.00
C1159  C     0.83327   0.91330   0.75017   0.00000  Uiso   1.00
C1160  C     0.78848   0.83667   0.91177   0.00000  Uiso   1.00
C1161  C     0.86627   0.97883   0.76787   0.00000  Uiso   1.00
C1162  C     0.80642   0.83330   0.85230   0.00000  Uiso   1.00
C1163  C     0.86636   0.68823   0.76771   0.00000  Uiso   1.00
C1164  C     0.83349   0.70918   0.74980   0.00000  Uiso   1.00
C1165  C     0.80059   0.68779   0.73202   0.00000  Uiso   1.00
C1166  C     0.80044   0.97842   0.73225   0.00000  Uiso   1.00
C1167  C     0.83328   0.95746   0.75017   0.00000  Uiso   1.00
C1168  C     0.98566   0.80413   0.71984   0.00000  Uiso   1.00
C1169  C     0.70025   0.80368   0.72052   0.00000  Uiso   1.00
C1170  C     0.80868   0.83409   0.99449   0.00000  Uiso   1.00
C1171  C     0.68151   0.86259   0.77941   0.00000  Uiso   1.00
C1172  C     0.96630   0.86192   0.78101   0.00000  Uiso   1.00
C1173  C     0.83340   0.75336   0.74986   0.00000  Uiso   1.00
C1174  C     0.86020   0.83337   0.64772   0.00000  Uiso   1.00
C1175  C     0.90799   0.77313   0.51793   0.00000  Uiso   1.00
C1176  C     0.87681   0.82555   0.58927   0.00000  Uiso   1.00
C1177  C     0.75064   0.86430   0.93745   0.00000  Uiso   1.00
C1178  C     0.73969   0.87518   0.99207   0.00000  Uiso   1.00
C1179  C     0.76818   0.86113   0.52112   0.00000  Uiso   1.00
C1180  C     0.74823   0.76886   0.64137   0.00000  Uiso   1.00
C1181  C     0.81425   0.81824   0.94157   0.00000  Uiso   1.00
C1182  C     0.92573   0.88703   0.86749   0.00000  Uiso   1.00
C1183  C     0.92014   0.70367   0.52297   0.00000  Uiso   1.00
C1184  C     0.84386   0.82167   0.51694   0.00000  Uiso   1.00
C1185  C     0.87594   0.78776   0.99293   0.00000  Uiso   1.00
C1186  C     0.87536   0.76889   0.94467   0.00000  Uiso   1.00
C1187  C     0.84573   0.78445   0.91876   0.00000  Uiso   1.00
C1188  C     0.84976   0.84289   0.56111   0.00000  Uiso   1.00
C1189  C     0.90764   0.79194   0.56673   0.00000  Uiso   1.00
H1190  H     0.92906   0.77864   0.58852   0.00000  Uiso   1.00
H1191  H     0.84716   0.76932   0.88077   0.00000  Uiso   1.00
H1192  H     0.89150   0.96265   0.78227   0.00000  Uiso   1.00
H1193  H     0.78765   0.77332   0.62623   0.00000  Uiso   1.00
H1194  H     0.74183   0.73743   0.62702   0.00000  Uiso   1.00
H1195  H     0.73172   0.79202   0.62201   0.00000  Uiso   1.00
H1196  H     0.89242   0.90431   0.89163   0.00000  Uiso   1.00
H1197  H     0.95581   0.90091   0.87780   0.00000  Uiso   1.00
H1198  H     0.92051   0.85389   0.88036   0.00000  Uiso   1.00
H1199  H     0.88372   0.69712   0.52168   0.00000  Uiso   1.00
H1200  H     0.91890   0.70525   0.56610   0.00000  Uiso   1.00
H1201  H     0.89160   0.70477   0.78205   0.00000  Uiso   1.00
H1202  H     0.94388   0.67706   0.50241   0.00000  Uiso   1.00
H1203  H     0.77541   0.70389   0.71757   0.00000  Uiso   1.00
H1204  H     0.77515   0.96189   0.71797   0.00000  Uiso   1.00
H1205  H     0.69281   0.88628   0.80223   0.00000  Uiso   1.00
H1206  H     0.89887   0.74279   0.92577   0.00000  Uiso   1.00
H1207  H     0.83241   0.87233   0.57598   0.00000  Uiso   1.00
H1208  H     0.73025   0.87833   0.91484   0.00000  Uiso   1.00
H1209  H     0.70917   0.89559   0.51172   0.00000  Uiso   1.00
N1210  N     0.71426   0.83334   0.75002   0.00000  Uiso   1.00
N1211  N     0.95239   0.83331   0.75001   0.00000  Uiso   1.00
O1212  O     0.79512   0.89442   0.75001   0.00000  Uiso   1.00
O1213  O     0.93320   0.89139   0.81134   0.00000  Uiso   1.00
O1214  O     0.93939   0.74040   0.99490   0.00000  Uiso   1.00
O1215  O     0.87157   0.89441   0.75001   0.00000  Uiso   1.00
O1216  O     0.77613   0.83333   0.82681   0.00000  Uiso   1.00
O1217  O     0.85258   0.83332   0.82681   0.00000  Uiso   1.00
O1218  O     0.79510   0.77226   0.75000   0.00000  Uiso   1.00
O1219  O     0.87154   0.77225   0.75000   0.00000  Uiso   1.00
O1220  O     0.81409   0.83335   0.67319   0.00000  Uiso   1.00
O1221  O     0.89053   0.83334   0.67319   0.00000  Uiso   1.00
O1222  O     0.73047   0.76981   0.69926   0.00000  Uiso   1.00
Zn1223 Zn    0.78229   0.83334   0.75000   0.00000  Uiso   1.00
Zn1224 Zn    0.88438   0.83333   0.75000   0.00000  Uiso   1.00
loop_
_geom_bond_atom_site_label_1
_geom_bond_atom_site_label_2
_geom_bond_distance
_geom_bond_site_symmetry_2
_ccdc_geom_bond_type
Br1    C12     1.919   .     S
Br2    C23     1.930   .     S
C3     C11     1.417   .     S
C3     O56     1.287   .     A
C3     O59     1.286   .     A
C4     C25     1.403   .     A
C4     C21     1.395   .     A
C4     C6      1.455   .     S
C5     C11     1.397   .     A
C5     H36     1.083   .     S
C5     C211    1.371   .     S
C6     O61     1.297   .     A
C6     O60     1.292   .     A
C7     C8      1.396   .     A
C7     H45     1.084   .     S
C7     C413    1.371   1_545 S
C8     C17     1.417   .     S
C8     C9      1.397   .     A
C9     H47     1.082   .     S
C9     C418    1.370   1_545 S
C10    H48     1.084   .     S
C10    C11     1.396   .     A
C10    C213    1.370   .     S
C12    N55     1.378   .     A
C12    C81     1.429   .     S
C13    O66     1.386   .     S
C13    N54     1.368   .     A
C13    C148    1.429   1_455 S
C14    C25     1.416   .     A
C14    C635    1.439   .     S
C14    C640    1.424   .     S
C15    H49     1.081   .     S
C15    N54     1.365   .     A
C15    C152    1.428   1_455 S
C16    N55     1.370   .     A
C16    O57     1.383   .     S
C16    C83     1.428   .     S
C17    O63     1.287   .     A
C17    O62     1.287   .     A
C18    O64     1.296   .     A
C18    O65     1.293   .     A
C18    C20     1.446   .     S
C19    C33     1.396   .     A
C19    C641    1.412   1_554 S
C19    O670    1.384   1_554 S
C20    C32     1.385   .     A
C20    C33     1.394   .     A
C21    C22     1.384   .     A
C21    H52     1.084   .     S
C22    C635    1.397   .     S
C22    H665    1.083   .     S
C23    C634    1.397   1_554 S
C23    C626    1.439   1_554 S
C24    H38     1.109   .     S
C24    O66     1.414   .     S
C24    H39     1.110   .     S
C24    H37     1.107   .     S
C25    C31     1.410   .     A
C26    H40     1.110   .     S
C26    O57     1.411   .     S
C26    H42     1.115   .     S
C26    H41     1.111   .     S
C27    H43     1.114   .     S
C27    H46     1.109   .     S
C27    H44     1.113   .     S
C27    O670    1.411   1_554 S
C28    C32     1.391   .     A
C28    C626    1.424   1_554 S
C28    C641    1.427   1_554 S
C29    C30     1.393   .     A
C29    C631    1.412   .     S
C29    C640    1.427   .     S
C30    H50     1.083   .     S
C30    C31     1.380   .     A
C31    H35     1.083   .     S
C32    H51     1.074   .     S
C33    H34     1.081   .     S
H53    C634    1.083   1_554 S
N54    Zn67    2.020   .     S
N55    Zn68    2.020   .     S
O56    Zn67    1.997   .     S
O58    C639    1.411   .     S
O58    C631    1.384   .     S
O59    Zn68    1.995   .     S
O60    Zn67    1.946   .     S
O61    Zn68    1.892   .     S
O62    Zn67    1.995   .     S
O63    Zn68    1.997   .     S
O64    Zn67    1.892   .     S
O65    Zn68    1.946   .     S
Br69   C80     1.919   .     S
Br70   C91     1.930   .     S
C71    C79     1.417   .     S
C71    O124    1.287   .     A
C71    O127    1.286   .     A
C72    C93     1.403   .     A
C72    C89     1.395   .     A
C72    C74     1.455   .     S
C73    C79     1.397   .     A
C73    H104    1.083   .     S
C73    C279    1.371   .     S
C74    O129    1.297   .     A
C74    O128    1.292   .     A
C75    C76     1.396   .     A
C75    H113    1.084   .     S
C75    C481    1.371   1_545 S
C76    C85     1.417   .     S
C76    C77     1.397   .     A
C77    H115    1.082   .     S
C77    C486    1.370   1_545 S
C78    H116    1.084   .     S
C78    C79     1.396   .     A
C78    C281    1.370   .     S
C80    N123    1.378   .     A
C80    C149    1.429   .     S
C81    O134    1.386   .     S
C81    N122    1.368   .     A
C82    C93     1.416   .     A
C82    C703    1.439   .     S
C82    C708    1.424   .     S
C83    H117    1.081   .     S
C83    N122    1.365   .     A
C84    N123    1.370   .     A
C84    O125    1.383   .     S
C84    C151    1.428   .     S
C85    O131    1.287   .     A
C85    O130    1.287   .     A
C86    O132    1.296   .     A
C86    O133    1.293   .     A
C86    C88     1.446   .     S
C87    C101    1.396   .     A
C87    C709    1.412   1_554 S
C87    O738    1.384   1_554 S
C88    C100    1.385   .     A
C88    C101    1.394   .     A
C89    C90     1.384   .     A
C89    H120    1.084   .     S
C90    C703    1.397   .     S
C90    H733    1.083   .     S
C91    C702    1.397   1_554 S
C91    C694    1.439   1_554 S
C92    H106    1.109   .     S
C92    O134    1.414   .     S
C92    H107    1.110   .     S
C92    H105    1.107   .     S
C93    C99     1.410   .     A
C94    H108    1.110   .     S
C94    O125    1.411   .     S
C94    H110    1.115   .     S
C94    H109    1.111   .     S
C95    H111    1.114   .     S
C95    H114    1.109   .     S
C95    H112    1.113   .     S
C95    O738    1.411   1_554 S
C96    C100    1.391   .     A
C96    C694    1.424   1_554 S
C96    C709    1.427   1_554 S
C97    C98     1.393   .     A
C97    C699    1.412   .     S
C97    C708    1.427   .     S
C98    H118    1.083   .     S
C98    C99     1.380   .     A
C99    H103    1.083   .     S
C100   H119    1.074   .     S
C101   H102    1.081   .     S
H121   C702    1.083   1_554 S
N122   Zn135   2.020   .     S
N123   Zn136   2.020   .     S
O124   Zn135   1.997   .     S
O126   C707    1.411   .     S
O126   C699    1.384   .     S
O127   Zn136   1.995   .     S
O128   Zn135   1.946   .     S
O129   Zn136   1.892   .     S
O130   Zn135   1.995   .     S
O131   Zn136   1.997   .     S
O132   Zn135   1.892   .     S
O133   Zn136   1.946   .     S
Br137  C148    1.919   .     S
Br138  C159    1.930   .     S
C139   C147    1.417   .     S
C139   O192    1.287   .     A
C139   O195    1.286   .     A
C140   C161    1.403   .     A
C140   C157    1.395   .     A
C140   C142    1.455   .     S
C141   C147    1.397   .     A
C141   H172    1.083   .     S
C141   C347    1.371   .     S
C142   O197    1.297   .     A
C142   O196    1.292   .     A
C143   C144    1.396   .     A
C143   H181    1.084   .     S
C143   C549    1.371   1_545 S
C144   C153    1.417   .     S
C144   C145    1.397   .     A
C145   H183    1.082   .     S
C145   C554    1.370   1_545 S
C146   H184    1.084   .     S
C146   C147    1.396   .     A
C146   C349    1.370   .     S
C148   N191    1.378   .     A
C148   C13     1.429   1_655 S
C149   O202    1.386   .     S
C149   N190    1.368   .     A
C150   C161    1.416   .     A
C150   C771    1.439   .     S
C150   C776    1.424   .     S
C151   H185    1.081   .     S
C151   N190    1.365   .     A
C152   N191    1.370   .     A
C152   O193    1.383   .     S
C152   C15     1.428   1_655 S
C153   O199    1.287   .     A
C153   O198    1.287   .     A
C154   O200    1.296   .     A
C154   O201    1.293   .     A
C154   C156    1.446   .     S
C155   C169    1.396   .     A
C155   C777    1.412   1_554 S
C155   O806    1.384   1_554 S
C156   C168    1.385   .     A
C156   C169    1.394   .     A
C157   C158    1.384   .     A
C157   H188    1.084   .     S
C158   C771    1.397   .     S
C158   H801    1.083   .     S
C159   C770    1.397   1_554 S
C159   C762    1.439   1_554 S
C160   H174    1.109   .     S
C160   O202    1.414   .     S
C160   H175    1.110   .     S
C160   H173    1.107   .     S
C161   C167    1.410   .     A
C162   H176    1.110   .     S
C162   O193    1.411   .     S
C162   H178    1.115   .     S
C162   H177    1.111   .     S
C163   H179    1.114   .     S
C163   H182    1.109   .     S
C163   H180    1.113   .     S
C163   O806    1.411   1_554 S
C164   C168    1.391   .     A
C164   C762    1.424   1_554 S
C164   C777    1.427   1_554 S
C165   C166    1.393   .     A
C165   C767    1.412   .     S
C165   C776    1.427   .     S
C166   H186    1.083   .     S
C166   C167    1.380   .     A
C167   H171    1.083   .     S
C168   H187    1.074   .     S
C169   H170    1.081   .     S
H189   C770    1.083   1_554 S
N190   Zn203   2.020   .     S
N191   Zn204   2.020   .     S
O192   Zn203   1.997   .     S
O194   C775    1.411   .     S
O194   C767    1.384   .     S
O195   Zn204   1.995   .     S
O196   Zn203   1.946   .     S
O197   Zn204   1.892   .     S
O198   Zn203   1.995   .     S
O199   Zn204   1.997   .     S
O200   Zn203   1.892   .     S
O201   Zn204   1.946   .     S
Br205  C216    1.919   .     S
Br206  C227    1.930   .     S
C207   C215    1.417   .     S
C207   O260    1.287   .     A
C207   O263    1.286   .     A
C208   C229    1.403   .     A
C208   C225    1.395   .     A
C208   C210    1.455   .     S
C209   C215    1.397   .     A
C209   H240    1.083   .     S
C209   C415    1.371   .     S
C210   O265    1.297   .     A
C210   O264    1.292   .     A
C211   C212    1.396   .     A
C211   H249    1.084   .     S
C212   C221    1.417   .     S
C212   C213    1.397   .     A
C213   H251    1.082   .     S
C214   H252    1.084   .     S
C214   C215    1.396   .     A
C214   C417    1.370   .     S
C216   N259    1.378   .     A
C216   C285    1.429   .     S
C217   O270    1.386   .     S
C217   N258    1.368   .     A
C217   C352    1.429   1_455 S
C218   C229    1.416   .     A
C218   C839    1.439   .     S
C218   C844    1.424   .     S
C219   H253    1.081   .     S
C219   N258    1.365   .     A
C219   C356    1.428   1_455 S
C220   N259    1.370   .     A
C220   O261    1.383   .     S
C220   C287    1.428   .     S
C221   O267    1.287   .     A
C221   O266    1.287   .     A
C222   O268    1.296   .     A
C222   O269    1.293   .     A
C222   C224    1.446   .     S
C223   C237    1.396   .     A
C223   C845    1.412   1_554 S
C223   O874    1.384   1_554 S
C224   C236    1.385   .     A
C224   C237    1.394   .     A
C225   C226    1.384   .     A
C225   H256    1.084   .     S
C226   C839    1.397   .     S
C226   H869    1.083   .     S
C227   C838    1.397   1_554 S
C227   C830    1.439   1_554 S
C228   H242    1.109   .     S
C228   O270    1.414   .     S
C228   H243    1.110   .     S
C228   H241    1.107   .     S
C229   C235    1.410   .     A
C230   H244    1.110   .     S
C230   O261    1.411   .     S
C230   H246    1.115   .     S
C230   H245    1.111   .     S
C231   H247    1.114   .     S
C231   H250    1.109   .     S
C231   H248    1.113   .     S
C231   O874    1.411   1_554 S
C232   C236    1.391   .     A
C232   C830    1.424   1_554 S
C232   C845    1.427   1_554 S
C233   C234    1.393   .     A
C233   C835    1.412   .     S
C233   C844    1.427   .     S
C234   H254    1.083   .     S
C234   C235    1.380   .     A
C235   H239    1.083   .     S
C236   H255    1.074   .     S
C237   H238    1.081   .     S
H257   C838    1.083   1_554 S
N258   Zn271   2.020   .     S
N259   Zn272   2.020   .     S
O260   Zn271   1.997   .     S
O262   C843    1.411   .     S
O262   C835    1.384   .     S
O263   Zn272   1.995   .     S
O264   Zn271   1.946   .     S
O265   Zn272   1.892   .     S
O266   Zn271   1.995   .     S
O267   Zn272   1.997   .     S
O268   Zn271   1.892   .     S
O269   Zn272   1.946   .     S
Br273  C284    1.919   .     S
Br274  C295    1.930   .     S
C275   C283    1.417   .     S
C275   O328    1.287   .     A
C275   O331    1.286   .     A
C276   C297    1.403   .     A
C276   C293    1.395   .     A
C276   C278    1.455   .     S
C277   C283    1.397   .     A
C277   H308    1.083   .     S
C277   C483    1.371   .     S
C278   O333    1.297   .     A
C278   O332    1.292   .     A
C279   C280    1.396   .     A
C279   H317    1.084   .     S
C280   C289    1.417   .     S
C280   C281    1.397   .     A
C281   H319    1.082   .     S
C282   H320    1.084   .     S
C282   C283    1.396   .     A
C282   C485    1.370   .     S
C284   N327    1.378   .     A
C284   C353    1.429   .     S
C285   O338    1.386   .     S
C285   N326    1.368   .     A
C286   C297    1.416   .     A
C286   C907    1.439   .     S
C286   C912    1.424   .     S
C287   H321    1.081   .     S
C287   N326    1.365   .     A
C288   N327    1.370   .     A
C288   O329    1.383   .     S
C288   C355    1.428   .     S
C289   O335    1.287   .     A
C289   O334    1.287   .     A
C290   O336    1.296   .     A
C290   O337    1.293   .     A
C290   C292    1.446   .     S
C291   C305    1.396   .     A
C291   C913    1.412   1_554 S
C291   O942    1.384   1_554 S
C292   C304    1.385   .     A
C292   C305    1.394   .     A
C293   C294    1.384   .     A
C293   H324    1.084   .     S
C294   C907    1.397   .     S
C294   H937    1.083   .     S
C295   C906    1.397   1_554 S
C295   C898    1.439   1_554 S
C296   H310    1.109   .     S
C296   O338    1.414   .     S
C296   H311    1.110   .     S
C296   H309    1.107   .     S
C297   C303    1.410   .     A
C298   H312    1.110   .     S
C298   O329    1.411   .     S
C298   H314    1.115   .     S
C298   H313    1.111   .     S
C299   H315    1.114   .     S
C299   H318    1.109   .     S
C299   H316    1.113   .     S
C299   O942    1.411   1_554 S
C300   C304    1.391   .     A
C300   C898    1.424   1_554 S
C300   C913    1.427   1_554 S
C301   C302    1.393   .     A
C301   C903    1.412   .     S
C301   C912    1.427   .     S
C302   H322    1.083   .     S
C302   C303    1.380   .     A
C303   H307    1.083   .     S
C304   H323    1.074   .     S
C305   H306    1.081   .     S
H325   C906    1.083   1_554 S
N326   Zn339   2.020   .     S
N327   Zn340   2.020   .     S
O328   Zn339   1.997   .     S
O330   C911    1.411   .     S
O330   C903    1.384   .     S
O331   Zn340   1.995   .     S
O332   Zn339   1.946   .     S
O333   Zn340   1.892   .     S
O334   Zn339   1.995   .     S
O335   Zn340   1.997   .     S
O336   Zn339   1.892   .     S
O337   Zn340   1.946   .     S
Br341  C352    1.919   .     S
Br342  C363    1.930   .     S
C343   C351    1.417   .     S
C343   O396    1.287   .     A
C343   O399    1.286   .     A
C344   C365    1.403   .     A
C344   C361    1.395   .     A
C344   C346    1.455   .     S
C345   C351    1.397   .     A
C345   H376    1.083   .     S
C345   C551    1.371   .     S
C346   O401    1.297   .     A
C346   O400    1.292   .     A
C347   C348    1.396   .     A
C347   H385    1.084   .     S
C348   C357    1.417   .     S
C348   C349    1.397   .     A
C349   H387    1.082   .     S
C350   H388    1.084   .     S
C350   C351    1.396   .     A
C350   C553    1.370   .     S
C352   N395    1.378   .     A
C352   C217    1.429   1_655 S
C353   O406    1.386   .     S
C353   N394    1.368   .     A
C354   C365    1.416   .     A
C354   C975    1.439   .     S
C354   C980    1.424   .     S
C355   H389    1.081   .     S
C355   N394    1.365   .     A
C356   N395    1.370   .     A
C356   O397    1.383   .     S
C356   C219    1.428   1_655 S
C357   O403    1.287   .     A
C357   O402    1.287   .     A
C358   O404    1.296   .     A
C358   O405    1.293   .     A
C358   C360    1.446   .     S
C359   C373    1.396   .     A
C359   C981    1.412   1_554 S
C359   O1010   1.384   1_554 S
C360   C372    1.385   .     A
C360   C373    1.394   .     A
C361   C362    1.384   .     A
C361   H392    1.084   .     S
C362   C975    1.397   .     S
C362   H1005   1.083   .     S
C363   C974    1.397   1_554 S
C363   C966    1.439   1_554 S
C364   H378    1.109   .     S
C364   O406    1.414   .     S
C364   H379    1.110   .     S
C364   H377    1.107   .     S
C365   C371    1.410   .     A
C366   H380    1.110   .     S
C366   O397    1.411   .     S
C366   H382    1.115   .     S
C366   H381    1.111   .     S
C367   H383    1.114   .     S
C367   H386    1.109   .     S
C367   H384    1.113   .     S
C367   O1010   1.411   1_554 S
C368   C372    1.391   .     A
C368   C966    1.424   1_554 S
C368   C981    1.427   1_554 S
C369   C370    1.393   .     A
C369   C971    1.412   .     S
C369   C980    1.427   .     S
C370   H390    1.083   .     S
C370   C371    1.380   .     A
C371   H375    1.083   .     S
C372   H391    1.074   .     S
C373   H374    1.081   .     S
H393   C974    1.083   1_554 S
N394   Zn407   2.020   .     S
N395   Zn408   2.020   .     S
O396   Zn407   1.997   .     S
O398   C979    1.411   .     S
O398   C971    1.384   .     S
O399   Zn408   1.995   .     S
O400   Zn407   1.946   .     S
O401   Zn408   1.892   .     S
O402   Zn407   1.995   .     S
O403   Zn408   1.997   .     S
O404   Zn407   1.892   .     S
O405   Zn408   1.946   .     S
Br409  C420    1.919   .     S
Br410  C431    1.930   .     S
C411   C419    1.417   .     S
C411   O464    1.287   .     A
C411   O467    1.286   .     A
C412   C433    1.403   .     A
C412   C429    1.395   .     A
C412   C414    1.455   .     S
C413   C419    1.397   .     A
C413   H444    1.083   .     S
C413   C7      1.371   1_565 S
C414   O469    1.297   .     A
C414   O468    1.292   .     A
C415   C416    1.396   .     A
C415   H453    1.084   .     S
C416   C425    1.417   .     S
C416   C417    1.397   .     A
C417   H455    1.082   .     S
C418   H456    1.084   .     S
C418   C419    1.396   .     A
C418   C9      1.370   1_565 S
C420   N463    1.378   .     A
C420   C489    1.429   .     S
C421   O474    1.386   .     S
C421   N462    1.368   .     A
C421   C556    1.429   1_455 S
C422   C433    1.416   .     A
C422   C1043   1.439   .     S
C422   C1048   1.424   .     S
C423   H457    1.081   .     S
C423   N462    1.365   .     A
C423   C560    1.428   1_455 S
C424   N463    1.370   .     A
C424   O465    1.383   .     S
C424   C491    1.428   .     S
C425   O471    1.287   .     A
C425   O470    1.287   .     A
C426   O472    1.296   .     A
C426   O473    1.293   .     A
C426   C428    1.446   .     S
C427   C441    1.396   .     A
C427   C1049   1.412   1_554 S
C427   O1078   1.384   1_554 S
C428   C440    1.385   .     A
C428   C441    1.394   .     A
C429   C430    1.384   .     A
C429   H460    1.084   .     S
C430   C1043   1.397   .     S
C430   H1073   1.083   .     S
C431   C1042   1.397   1_554 S
C431   C1034   1.439   1_554 S
C432   H446    1.109   .     S
C432   O474    1.414   .     S
C432   H447    1.110   .     S
C432   H445    1.107   .     S
C433   C439    1.410   .     A
C434   H448    1.110   .     S
C434   O465    1.411   .     S
C434   H450    1.115   .     S
C434   H449    1.111   .     S
C435   H451    1.114   .     S
C435   H454    1.109   .     S
C435   H452    1.113   .     S
C435   O1078   1.411   1_554 S
C436   C440    1.391   .     A
C436   C1034   1.424   1_554 S
C436   C1049   1.427   1_554 S
C437   C438    1.393   .     A
C437   C1039   1.412   .     S
C437   C1048   1.427   .     S
C438   H458    1.083   .     S
C438   C439    1.380   .     A
C439   H443    1.083   .     S
C440   H459    1.074   .     S
C441   H442    1.081   .     S
H461   C1042   1.083   1_554 S
N462   Zn475   2.020   .     S
N463   Zn476   2.020   .     S
O464   Zn475   1.997   .     S
O466   C1047   1.411   .     S
O466   C1039   1.384   .     S
O467   Zn476   1.995   .     S
O468   Zn475   1.946   .     S
O469   Zn476   1.892   .     S
O470   Zn475   1.995   .     S
O471   Zn476   1.997   .     S
O472   Zn475   1.892   .     S
O473   Zn476   1.946   .     S
Br477  C488    1.919   .     S
Br478  C499    1.930   .     S
C479   C487    1.417   .     S
C479   O532    1.287   .     A
C479   O535    1.286   .     A
C480   C501    1.403   .     A
C480   C497    1.395   .     A
C480   C482    1.455   .     S
C481   C487    1.397   .     A
C481   H512    1.083   .     S
C481   C75     1.371   1_565 S
C482   O537    1.297   .     A
C482   O536    1.292   .     A
C483   C484    1.396   .     A
C483   H521    1.084   .     S
C484   C493    1.417   .     S
C484   C485    1.397   .     A
C485   H523    1.082   .     S
C486   H524    1.084   .     S
C486   C487    1.396   .     A
C486   C77     1.370   1_565 S
C488   N531    1.378   .     A
C488   C557    1.429   .     S
C489   O542    1.386   .     S
C489   N530    1.368   .     A
C490   C501    1.416   .     A
C490   C1111   1.439   .     S
C490   C1116   1.424   .     S
C491   H525    1.081   .     S
C491   N530    1.365   .     A
C492   N531    1.370   .     A
C492   O533    1.383   .     S
C492   C559    1.428   .     S
C493   O539    1.287   .     A
C493   O538    1.287   .     A
C494   O540    1.296   .     A
C494   O541    1.293   .     A
C494   C496    1.446   .     S
C495   C509    1.396   .     A
C495   C1117   1.412   1_554 S
C495   O1146   1.384   1_554 S
C496   C508    1.385   .     A
C496   C509    1.394   .     A
C497   C498    1.384   .     A
C497   H528    1.084   .     S
C498   C1111   1.397   .     S
C498   H1141   1.083   .     S
C499   C1110   1.397   1_554 S
C499   C1102   1.439   1_554 S
C500   H514    1.109   .     S
C500   O542    1.414   .     S
C500   H515    1.110   .     S
C500   H513    1.107   .     S
C501   C507    1.410   .     A
C502   H516    1.110   .     S
C502   O533    1.411   .     S
C502   H518    1.115   .     S
C502   H517    1.111   .     S
C503   H519    1.114   .     S
C503   H522    1.109   .     S
C503   H520    1.113   .     S
C503   O1146   1.411   1_554 S
C504   C508    1.391   .     A
C504   C1102   1.424   1_554 S
C504   C1117   1.427   1_554 S
C505   C506    1.393   .     A
C505   C1107   1.412   .     S
C505   C1116   1.427   .     S
C506   H526    1.083   .     S
C506   C507    1.380   .     A
C507   H511    1.083   .     S
C508   H527    1.074   .     S
C509   H510    1.081   .     S
H529   C1110   1.083   1_554 S
N530   Zn543   2.020   .     S
N531   Zn544   2.020   .     S
O532   Zn543   1.997   .     S
O534   C1115   1.411   .     S
O534   C1107   1.384   .     S
O535   Zn544   1.995   .     S
O536   Zn543   1.946   .     S
O537   Zn544   1.892   .     S
O538   Zn543   1.995   .     S
O539   Zn544   1.997   .     S
O540   Zn543   1.892   .     S
O541   Zn544   1.946   .     S
Br545  C556    1.919   .     S
Br546  C567    1.930   .     S
C547   C555    1.417   .     S
C547   O600    1.287   .     A
C547   O603    1.286   .     A
C548   C569    1.403   .     A
C548   C565    1.395   .     A
C548   C550    1.455   .     S
C549   C555    1.397   .     A
C549   H580    1.083   .     S
C549   C143    1.371   1_565 S
C550   O605    1.297   .     A
C550   O604    1.292   .     A
C551   C552    1.396   .     A
C551   H589    1.084   .     S
C552   C561    1.417   .     S
C552   C553    1.397   .     A
C553   H591    1.082   .     S
C554   H592    1.084   .     S
C554   C555    1.396   .     A
C554   C145    1.370   1_565 S
C556   N599    1.378   .     A
C556   C421    1.429   1_655 S
C557   O610    1.386   .     S
C557   N598    1.368   .     A
C558   C569    1.416   .     A
C558   C1179   1.439   .     S
C558   C1184   1.424   .     S
C559   H593    1.081   .     S
C559   N598    1.365   .     A
C560   N599    1.370   .     A
C560   O601    1.383   .     S
C560   C423    1.428   1_655 S
C561   O607    1.287   .     A
C561   O606    1.287   .     A
C562   O608    1.296   .     A
C562   O609    1.293   .     A
C562   C564    1.446   .     S
C563   C577    1.396   .     A
C563   C1185   1.412   1_554 S
C563   O1214   1.384   1_554 S
C564   C576    1.385   .     A
C564   C577    1.394   .     A
C565   C566    1.384   .     A
C565   H596    1.084   .     S
C566   C1179   1.397   .     S
C566   H1209   1.083   .     S
C567   C1178   1.397   1_554 S
C567   C1170   1.439   1_554 S
C568   H582    1.109   .     S
C568   O610    1.414   .     S
C568   H583    1.110   .     S
C568   H581    1.107   .     S
C569   C575    1.410   .     A
C570   H584    1.110   .     S
C570   O601    1.411   .     S
C570   H586    1.115   .     S
C570   H585    1.111   .     S
C571   H587    1.114   .     S
C571   H590    1.109   .     S
C571   H588    1.113   .     S
C571   O1214   1.411   1_554 S
C572   C576    1.391   .     A
C572   C1170   1.424   1_554 S
C572   C1185   1.427   1_554 S
C573   C574    1.393   .     A
C573   C1175   1.412   .     S
C573   C1184   1.427   .     S
C574   H594    1.083   .     S
C574   C575    1.380   .     A
C575   H579    1.083   .     S
C576   H595    1.074   .     S
C577   H578    1.081   .     S
H597   C1178   1.083   1_554 S
N598   Zn611   2.020   .     S
N599   Zn612   2.020   .     S
O600   Zn611   1.997   .     S
O602   C1183   1.411   .     S
O602   C1175   1.384   .     S
O603   Zn612   1.995   .     S
O604   Zn611   1.946   .     S
O605   Zn612   1.892   .     S
O606   Zn611   1.995   .     S
O607   Zn612   1.997   .     S
O608   Zn611   1.892   .     S
O609   Zn612   1.946   .     S
Br613  C624    1.919   .     S
Br614  C635    1.930   .     S
C615   C623    1.417   .     S
C615   O668    1.287   .     A
C615   O671    1.286   .     A
C616   C637    1.403   .     A
C616   C633    1.395   .     A
C616   C618    1.455   .     S
C617   C623    1.397   .     A
C617   H648    1.083   .     S
C617   C823    1.371   .     S
C618   O673    1.297   .     A
C618   O672    1.292   .     A
C619   C620    1.396   .     A
C619   H657    1.084   .     S
C619   C1025   1.371   1_545 S
C620   C629    1.417   .     S
C620   C621    1.397   .     A
C621   H659    1.082   .     S
C621   C1030   1.370   1_545 S
C622   H660    1.084   .     S
C622   C623    1.396   .     A
C622   C825    1.370   .     S
C624   N667    1.378   .     A
C624   C693    1.429   .     S
C625   O678    1.386   .     S
C625   N666    1.368   .     A
C625   C760    1.429   1_455 S
C626   C637    1.416   .     A
C626   C23     1.439   1_556 S
C626   C28     1.424   1_556 S
C627   H661    1.081   .     S
C627   N666    1.365   .     A
C627   C764    1.428   1_455 S
C628   N667    1.370   .     A
C628   O669    1.383   .     S
C628   C695    1.428   .     S
C629   O675    1.287   .     A
C629   O674    1.287   .     A
C630   O676    1.296   .     A
C630   O677    1.293   .     A
C630   C632    1.446   .     S
C631   C645    1.396   .     A
C632   C644    1.385   .     A
C632   C645    1.394   .     A
C633   C634    1.384   .     A
C633   H664    1.084   .     S
C634   C23     1.397   1_556 S
C634   H53     1.083   1_556 S
C636   H650    1.109   .     S
C636   O678    1.414   .     S
C636   H651    1.110   .     S
C636   H649    1.107   .     S
C637   C643    1.410   .     A
C638   H652    1.110   .     S
C638   O669    1.411   .     S
C638   H654    1.115   .     S
C638   H653    1.111   .     S
C639   H655    1.114   .     S
C639   H658    1.109   .     S
C639   H656    1.113   .     S
C640   C644    1.391   .     A
C641   C642    1.393   .     A
C641   C19     1.412   1_556 S
C641   C28     1.427   1_556 S
C642   H662    1.083   .     S
C642   C643    1.380   .     A
C643   H647    1.083   .     S
C644   H663    1.074   .     S
C645   H646    1.081   .     S
N666   Zn679   2.020   .     S
N667   Zn680   2.020   .     S
O668   Zn679   1.997   .     S
O670   C27     1.411   1_556 S
O670   C19     1.384   1_556 S
O671   Zn680   1.995   .     S
O672   Zn679   1.946   .     S
O673   Zn680   1.892   .     S
O674   Zn679   1.995   .     S
O675   Zn680   1.997   .     S
O676   Zn679   1.892   .     S
O677   Zn680   1.946   .     S
Br681  C692    1.919   .     S
Br682  C703    1.930   .     S
C683   C691    1.417   .     S
C683   O736    1.287   .     A
C683   O739    1.286   .     A
C684   C705    1.403   .     A
C684   C701    1.395   .     A
C684   C686    1.455   .     S
C685   C691    1.397   .     A
C685   H716    1.083   .     S
C685   C891    1.371   .     S
C686   O741    1.297   .     A
C686   O740    1.292   .     A
C687   C688    1.396   .     A
C687   H725    1.084   .     S
C687   C1093   1.371   1_545 S
C688   C697    1.417   .     S
C688   C689    1.397   .     A
C689   H727    1.082   .     S
C689   C1098   1.370   1_545 S
C690   H728    1.084   .     S
C690   C691    1.396   .     A
C690   C893    1.370   .     S
C692   N735    1.378   .     A
C692   C761    1.429   .     S
C693   O746    1.386   .     S
C693   N734    1.368   .     A
C694   C705    1.416   .     A
C694   C91     1.439   1_556 S
C694   C96     1.424   1_556 S
C695   H729    1.081   .     S
C695   N734    1.365   .     A
C696   N735    1.370   .     A
C696   O737    1.383   .     S
C696   C763    1.428   .     S
C697   O743    1.287   .     A
C697   O742    1.287   .     A
C698   O744    1.296   .     A
C698   O745    1.293   .     A
C698   C700    1.446   .     S
C699   C713    1.396   .     A
C700   C712    1.385   .     A
C700   C713    1.394   .     A
C701   C702    1.384   .     A
C701   H732    1.084   .     S
C702   C91     1.397   1_556 S
C702   H121    1.083   1_556 S
C704   H718    1.109   .     S
C704   O746    1.414   .     S
C704   H719    1.110   .     S
C704   H717    1.107   .     S
C705   C711    1.410   .     A
C706   H720    1.110   .     S
C706   O737    1.411   .     S
C706   H722    1.115   .     S
C706   H721    1.111   .     S
C707   H723    1.114   .     S
C707   H726    1.109   .     S
C707   H724    1.113   .     S
C708   C712    1.391   .     A
C709   C710    1.393   .     A
C709   C87     1.412   1_556 S
C709   C96     1.427   1_556 S
C710   H730    1.083   .     S
C710   C711    1.380   .     A
C711   H715    1.083   .     S
C712   H731    1.074   .     S
C713   H714    1.081   .     S
N734   Zn747   2.020   .     S
N735   Zn748   2.020   .     S
O736   Zn747   1.997   .     S
O738   C95     1.411   1_556 S
O738   C87     1.384   1_556 S
O739   Zn748   1.995   .     S
O740   Zn747   1.946   .     S
O741   Zn748   1.892   .     S
O742   Zn747   1.995   .     S
O743   Zn748   1.997   .     S
O744   Zn747   1.892   .     S
O745   Zn748   1.946   .     S
Br749  C760    1.919   .     S
Br750  C771    1.930   .     S
C751   C759    1.417   .     S
C751   O804    1.287   .     A
C751   O807    1.286   .     A
C752   C773    1.403   .     A
C752   C769    1.395   .     A
C752   C754    1.455   .     S
C753   C759    1.397   .     A
C753   H784    1.083   .     S
C753   C959    1.371   .     S
C754   O809    1.297   .     A
C754   O808    1.292   .     A
C755   C756    1.396   .     A
C755   H793    1.084   .     S
C755   C1161   1.371   1_545 S
C756   C765    1.417   .     S
C756   C757    1.397   .     A
C757   H795    1.082   .     S
C757   C1166   1.370   1_545 S
C758   H796    1.084   .     S
C758   C759    1.396   .     A
C758   C961    1.370   .     S
C760   N803    1.378   .     A
C760   C625    1.429   1_655 S
C761   O814    1.386   .     S
C761   N802    1.368   .     A
C762   C773    1.416   .     A
C762   C159    1.439   1_556 S
C762   C164    1.424   1_556 S
C763   H797    1.081   .     S
C763   N802    1.365   .     A
C764   N803    1.370   .     A
C764   O805    1.383   .     S
C764   C627    1.428   1_655 S
C765   O811    1.287   .     A
C765   O810    1.287   .     A
C766   O812    1.296   .     A
C766   O813    1.293   .     A
C766   C768    1.446   .     S
C767   C781    1.396   .     A
C768   C780    1.385   .     A
C768   C781    1.394   .     A
C769   C770    1.384   .     A
C769   H800    1.084   .     S
C770   C159    1.397   1_556 S
C770   H189    1.083   1_556 S
C772   H786    1.109   .     S
C772   O814    1.414   .     S
C772   H787    1.110   .     S
C772   H785    1.107   .     S
C773   C779    1.410   .     A
C774   H788    1.110   .     S
C774   O805    1.411   .     S
C774   H790    1.115   .     S
C774   H789    1.111   .     S
C775   H791    1.114   .     S
C775   H794    1.109   .     S
C775   H792    1.113   .     S
C776   C780    1.391   .     A
C777   C778    1.393   .     A
C777   C155    1.412   1_556 S
C777   C164    1.427   1_556 S
C778   H798    1.083   .     S
C778   C779    1.380   .     A
C779   H783    1.083   .     S
C780   H799    1.074   .     S
C781   H782    1.081   .     S
N802   Zn815   2.020   .     S
N803   Zn816   2.020   .     S
O804   Zn815   1.997   .     S
O806   C163    1.411   1_556 S
O806   C155    1.384   1_556 S
O807   Zn816   1.995   .     S
O808   Zn815   1.946   .     S
O809   Zn816   1.892   .     S
O810   Zn815   1.995   .     S
O811   Zn816   1.997   .     S
O812   Zn815   1.892   .     S
O813   Zn816   1.946   .     S
Br817  C828    1.919   .     S
Br818  C839    1.930   .     S
C819   C827    1.417   .     S
C819   O872    1.287   .     A
C819   O875    1.286   .     A
C820   C841    1.403   .     A
C820   C837    1.395   .     A
C820   C822    1.455   .     S
C821   C827    1.397   .     A
C821   H852    1.083   .     S
C821   C1027   1.371   .     S
C822   O877    1.297   .     A
C822   O876    1.292   .     A
C823   C824    1.396   .     A
C823   H861    1.084   .     S
C824   C833    1.417   .     S
C824   C825    1.397   .     A
C825   H863    1.082   .     S
C826   H864    1.084   .     S
C826   C827    1.396   .     A
C826   C1029   1.370   .     S
C828   N871    1.378   .     A
C828   C897    1.429   .     S
C829   O882    1.386   .     S
C829   N870    1.368   .     A
C829   C964    1.429   1_455 S
C830   C841    1.416   .     A
C830   C227    1.439   1_556 S
C830   C232    1.424   1_556 S
C831   H865    1.081   .     S
C831   N870    1.365   .     A
C831   C968    1.428   1_455 S
C832   N871    1.370   .     A
C832   O873    1.383   .     S
C832   C899    1.428   .     S
C833   O879    1.287   .     A
C833   O878    1.287   .     A
C834   O880    1.296   .     A
C834   O881    1.293   .     A
C834   C836    1.446   .     S
C835   C849    1.396   .     A
C836   C848    1.385   .     A
C836   C849    1.394   .     A
C837   C838    1.384   .     A
C837   H868    1.084   .     S
C838   C227    1.397   1_556 S
C838   H257    1.083   1_556 S
C840   H854    1.109   .     S
C840   O882    1.414   .     S
C840   H855    1.110   .     S
C840   H853    1.107   .     S
C841   C847    1.410   .     A
C842   H856    1.110   .     S
C842   O873    1.411   .     S
C842   H858    1.115   .     S
C842   H857    1.111   .     S
C843   H859    1.114   .     S
C843   H862    1.109   .     S
C843   H860    1.113   .     S
C844   C848    1.391   .     A
C845   C846    1.393   .     A
C845   C223    1.412   1_556 S
C845   C232    1.427   1_556 S
C846   H866    1.083   .     S
C846   C847    1.380   .     A
C847   H851    1.083   .     S
C848   H867    1.074   .     S
C849   H850    1.081   .     S
N870   Zn883   2.020   .     S
N871   Zn884   2.020   .     S
O872   Zn883   1.997   .     S
O874   C231    1.411   1_556 S
O874   C223    1.384   1_556 S
O875   Zn884   1.995   .     S
O876   Zn883   1.946   .     S
O877   Zn884   1.892   .     S
O878   Zn883   1.995   .     S
O879   Zn884   1.997   .     S
O880   Zn883   1.892   .     S
O881   Zn884   1.946   .     S
Br885  C896    1.919   .     S
Br886  C907    1.930   .     S
C887   C895    1.417   .     S
C887   O940    1.287   .     A
C887   O943    1.286   .     A
C888   C909    1.403   .     A
C888   C905    1.395   .     A
C888   C890    1.455   .     S
C889   C895    1.397   .     A
C889   H920    1.083   .     S
C889   C1095   1.371   .     S
C890   O945    1.297   .     A
C890   O944    1.292   .     A
C891   C892    1.396   .     A
C891   H929    1.084   .     S
C892   C901    1.417   .     S
C892   C893    1.397   .     A
C893   H931    1.082   .     S
C894   H932    1.084   .     S
C894   C895    1.396   .     A
C894   C1097   1.370   .     S
C896   N939    1.378   .     A
C896   C965    1.429   .     S
C897   O950    1.386   .     S
C897   N938    1.368   .     A
C898   C909    1.416   .     A
C898   C295    1.439   1_556 S
C898   C300    1.424   1_556 S
C899   H933    1.081   .     S
C899   N938    1.365   .     A
C900   N939    1.370   .     A
C900   O941    1.383   .     S
C900   C967    1.428   .     S
C901   O947    1.287   .     A
C901   O946    1.287   .     A
C902   O948    1.296   .     A
C902   O949    1.293   .     A
C902   C904    1.446   .     S
C903   C917    1.396   .     A
C904   C916    1.385   .     A
C904   C917    1.394   .     A
C905   C906    1.384   .     A
C905   H936    1.084   .     S
C906   C295    1.397   1_556 S
C906   H325    1.083   1_556 S
C908   H922    1.109   .     S
C908   O950    1.414   .     S
C908   H923    1.110   .     S
C908   H921    1.107   .     S
C909   C915    1.410   .     A
C910   H924    1.110   .     S
C910   O941    1.411   .     S
C910   H926    1.115   .     S
C910   H925    1.111   .     S
C911   H927    1.114   .     S
C911   H930    1.109   .     S
C911   H928    1.113   .     S
C912   C916    1.391   .     A
C913   C914    1.393   .     A
C913   C291    1.412   1_556 S
C913   C300    1.427   1_556 S
C914   H934    1.083   .     S
C914   C915    1.380   .     A
C915   H919    1.083   .     S
C916   H935    1.074   .     S
C917   H918    1.081   .     S
N938   Zn951   2.020   .     S
N939   Zn952   2.020   .     S
O940   Zn951   1.997   .     S
O942   C299    1.411   1_556 S
O942   C291    1.384   1_556 S
O943   Zn952   1.995   .     S
O944   Zn951   1.946   .     S
O945   Zn952   1.892   .     S
O946   Zn951   1.995   .     S
O947   Zn952   1.997   .     S
O948   Zn951   1.892   .     S
O949   Zn952   1.946   .     S
Br953  C964    1.919   .     S
Br954  C975    1.930   .     S
C955   C963    1.417   .     S
C955   O1008   1.287   .     A
C955   O1011   1.286   .     A
C956   C977    1.403   .     A
C956   C973    1.395   .     A
C956   C958    1.455   .     S
C957   C963    1.397   .     A
C957   H988    1.083   .     S
C957   C1163   1.371   .     S
C958   O1013   1.297   .     A
C958   O1012   1.292   .     A
C959   C960    1.396   .     A
C959   H997    1.084   .     S
C960   C969    1.417   .     S
C960   C961    1.397   .     A
C961   H999    1.082   .     S
C962   H1000   1.084   .     S
C962   C963    1.396   .     A
C962   C1165   1.370   .     S
C964   N1007   1.378   .     A
C964   C829    1.429   1_655 S
C965   O1018   1.386   .     S
C965   N1006   1.368   .     A
C966   C977    1.416   .     A
C966   C363    1.439   1_556 S
C966   C368    1.424   1_556 S
C967   H1001   1.081   .     S
C967   N1006   1.365   .     A
C968   N1007   1.370   .     A
C968   O1009   1.383   .     S
C968   C831    1.428   1_655 S
C969   O1015   1.287   .     A
C969   O1014   1.287   .     A
C970   O1016   1.296   .     A
C970   O1017   1.293   .     A
C970   C972    1.446   .     S
C971   C985    1.396   .     A
C972   C984    1.385   .     A
C972   C985    1.394   .     A
C973   C974    1.384   .     A
C973   H1004   1.084   .     S
C974   C363    1.397   1_556 S
C974   H393    1.083   1_556 S
C976   H990    1.109   .     S
C976   O1018   1.414   .     S
C976   H991    1.110   .     S
C976   H989    1.107   .     S
C977   C983    1.410   .     A
C978   H992    1.110   .     S
C978   O1009   1.411   .     S
C978   H994    1.115   .     S
C978   H993    1.111   .     S
C979   H995    1.114   .     S
C979   H998    1.109   .     S
C979   H996    1.113   .     S
C980   C984    1.391   .     A
C981   C982    1.393   .     A
C981   C359    1.412   1_556 S
C981   C368    1.427   1_556 S
C982   H1002   1.083   .     S
C982   C983    1.380   .     A
C983   H987    1.083   .     S
C984   H1003   1.074   .     S
C985   H986    1.081   .     S
N1006  Zn1019  2.020   .     S
N1007  Zn1020  2.020   .     S
O1008  Zn1019  1.997   .     S
O1010  C367    1.411   1_556 S
O1010  C359    1.384   1_556 S
O1011  Zn1020  1.995   .     S
O1012  Zn1019  1.946   .     S
O1013  Zn1020  1.892   .     S
O1014  Zn1019  1.995   .     S
O1015  Zn1020  1.997   .     S
O1016  Zn1019  1.892   .     S
O1017  Zn1020  1.946   .     S
Br1021 C1032   1.919   .     S
Br1022 C1043   1.930   .     S
C1023  C1031   1.417   .     S
C1023  O1076   1.287   .     A
C1023  O1079   1.286   .     A
C1024  C1045   1.403   .     A
C1024  C1041   1.395   .     A
C1024  C1026   1.455   .     S
C1025  C1031   1.397   .     A
C1025  H1056   1.083   .     S
C1025  C619    1.371   1_565 S
C1026  O1081   1.297   .     A
C1026  O1080   1.292   .     A
C1027  C1028   1.396   .     A
C1027  H1065   1.084   .     S
C1028  C1037   1.417   .     S
C1028  C1029   1.397   .     A
C1029  H1067   1.082   .     S
C1030  H1068   1.084   .     S
C1030  C1031   1.396   .     A
C1030  C621    1.370   1_565 S
C1032  N1075   1.378   .     A
C1032  C1101   1.429   .     S
C1033  O1086   1.386   .     S
C1033  N1074   1.368   .     A
C1033  C1168   1.429   1_455 S
C1034  C1045   1.416   .     A
C1034  C431    1.439   1_556 S
C1034  C436    1.424   1_556 S
C1035  H1069   1.081   .     S
C1035  N1074   1.365   .     A
C1035  C1172   1.428   1_455 S
C1036  N1075   1.370   .     A
C1036  O1077   1.383   .     S
C1036  C1103   1.428   .     S
C1037  O1083   1.287   .     A
C1037  O1082   1.287   .     A
C1038  O1084   1.296   .     A
C1038  O1085   1.293   .     A
C1038  C1040   1.446   .     S
C1039  C1053   1.396   .     A
C1040  C1052   1.385   .     A
C1040  C1053   1.394   .     A
C1041  C1042   1.384   .     A
C1041  H1072   1.084   .     S
C1042  C431    1.397   1_556 S
C1042  H461    1.083   1_556 S
C1044  H1058   1.109   .     S
C1044  O1086   1.414   .     S
C1044  H1059   1.110   .     S
C1044  H1057   1.107   .     S
C1045  C1051   1.410   .     A
C1046  H1060   1.110   .     S
C1046  O1077   1.411   .     S
C1046  H1062   1.115   .     S
C1046  H1061   1.111   .     S
C1047  H1063   1.114   .     S
C1047  H1066   1.109   .     S
C1047  H1064   1.113   .     S
C1048  C1052   1.391   .     A
C1049  C1050   1.393   .     A
C1049  C427    1.412   1_556 S
C1049  C436    1.427   1_556 S
C1050  H1070   1.083   .     S
C1050  C1051   1.380   .     A
C1051  H1055   1.083   .     S
C1052  H1071   1.074   .     S
C1053  H1054   1.081   .     S
N1074  Zn1087  2.020   .     S
N1075  Zn1088  2.020   .     S
O1076  Zn1087  1.997   .     S
O1078  C435    1.411   1_556 S
O1078  C427    1.384   1_556 S
O1079  Zn1088  1.995   .     S
O1080  Zn1087  1.946   .     S
O1081  Zn1088  1.892   .     S
O1082  Zn1087  1.995   .     S
O1083  Zn1088  1.997   .     S
O1084  Zn1087  1.892   .     S
O1085  Zn1088  1.946   .     S
Br1089 C1100   1.919   .     S
Br1090 C1111   1.930   .     S
C1091  C1099   1.417   .     S
C1091  O1144   1.287   .     A
C1091  O1147   1.286   .     A
C1092  C1113   1.403   .     A
C1092  C1109   1.395   .     A
C1092  C1094   1.455   .     S
C1093  C1099   1.397   .     A
C1093  H1124   1.083   .     S
C1093  C687    1.371   1_565 S
C1094  O1149   1.297   .     A
C1094  O1148   1.292   .     A
C1095  C1096   1.396   .     A
C1095  H1133   1.084   .     S
C1096  C1105   1.417   .     S
C1096  C1097   1.397   .     A
C1097  H1135   1.082   .     S
C1098  H1136   1.084   .     S
C1098  C1099   1.396   .     A
C1098  C689    1.370   1_565 S
C1100  N1143   1.378   .     A
C1100  C1169   1.429   .     S
C1101  O1154   1.386   .     S
C1101  N1142   1.368   .     A
C1102  C1113   1.416   .     A
C1102  C499    1.439   1_556 S
C1102  C504    1.424   1_556 S
C1103  H1137   1.081   .     S
C1103  N1142   1.365   .     A
C1104  N1143   1.370   .     A
C1104  O1145   1.383   .     S
C1104  C1171   1.428   .     S
C1105  O1151   1.287   .     A
C1105  O1150   1.287   .     A
C1106  O1152   1.296   .     A
C1106  O1153   1.293   .     A
C1106  C1108   1.446   .     S
C1107  C1121   1.396   .     A
C1108  C1120   1.385   .     A
C1108  C1121   1.394   .     A
C1109  C1110   1.384   .     A
C1109  H1140   1.084   .     S
C1110  C499    1.397   1_556 S
C1110  H529    1.083   1_556 S
C1112  H1126   1.109   .     S
C1112  O1154   1.414   .     S
C1112  H1127   1.110   .     S
C1112  H1125   1.107   .     S
C1113  C1119   1.410   .     A
C1114  H1128   1.110   .     S
C1114  O1145   1.411   .     S
C1114  H1130   1.115   .     S
C1114  H1129   1.111   .     S
C1115  H1131   1.114   .     S
C1115  H1134   1.109   .     S
C1115  H1132   1.113   .     S
C1116  C1120   1.391   .     A
C1117  C1118   1.393   .     A
C1117  C495    1.412   1_556 S
C1117  C504    1.427   1_556 S
C1118  H1138   1.083   .     S
C1118  C1119   1.380   .     A
C1119  H1123   1.083   .     S
C1120  H1139   1.074   .     S
C1121  H1122   1.081   .     S
N1142  Zn1155  2.020   .     S
N1143  Zn1156  2.020   .     S
O1144  Zn1155  1.997   .     S
O1146  C503    1.411   1_556 S
O1146  C495    1.384   1_556 S
O1147  Zn1156  1.995   .     S
O1148  Zn1155  1.946   .     S
O1149  Zn1156  1.892   .     S
O1150  Zn1155  1.995   .     S
O1151  Zn1156  1.997   .     S
O1152  Zn1155  1.892   .     S
O1153  Zn1156  1.946   .     S
Br1157 C1168   1.919   .     S
Br1158 C1179   1.930   .     S
C1159  C1167   1.417   .     S
C1159  O1212   1.287   .     A
C1159  O1215   1.286   .     A
C1160  C1181   1.403   .     A
C1160  C1177   1.395   .     A
C1160  C1162   1.455   .     S
C1161  C1167   1.397   .     A
C1161  H1192   1.083   .     S
C1161  C755    1.371   1_565 S
C1162  O1217   1.297   .     A
C1162  O1216   1.292   .     A
C1163  C1164   1.396   .     A
C1163  H1201   1.084   .     S
C1164  C1173   1.417   .     S
C1164  C1165   1.397   .     A
C1165  H1203   1.082   .     S
C1166  H1204   1.084   .     S
C1166  C1167   1.396   .     A
C1166  C757    1.370   1_565 S
C1168  N1211   1.378   .     A
C1168  C1033   1.429   1_655 S
C1169  O1222   1.386   .     S
C1169  N1210   1.368   .     A
C1170  C1181   1.416   .     A
C1170  C567    1.439   1_556 S
C1170  C572    1.424   1_556 S
C1171  H1205   1.081   .     S
C1171  N1210   1.365   .     A
C1172  N1211   1.370   .     A
C1172  O1213   1.383   .     S
C1172  C1035   1.428   1_655 S
C1173  O1219   1.287   .     A
C1173  O1218   1.287   .     A
C1174  O1220   1.296   .     A
C1174  O1221   1.293   .     A
C1174  C1176   1.446   .     S
C1175  C1189   1.396   .     A
C1176  C1188   1.385   .     A
C1176  C1189   1.394   .     A
C1177  C1178   1.384   .     A
C1177  H1208   1.084   .     S
C1178  C567    1.397   1_556 S
C1178  H597    1.083   1_556 S
C1180  H1194   1.109   .     S
C1180  O1222   1.414   .     S
C1180  H1195   1.110   .     S
C1180  H1193   1.107   .     S
C1181  C1187   1.410   .     A
C1182  H1196   1.110   .     S
C1182  O1213   1.411   .     S
C1182  H1198   1.115   .     S
C1182  H1197   1.111   .     S
C1183  H1199   1.114   .     S
C1183  H1202   1.109   .     S
C1183  H1200   1.113   .     S
C1184  C1188   1.391   .     A
C1185  C1186   1.393   .     A
C1185  C563    1.412   1_556 S
C1185  C572    1.427   1_556 S
C1186  H1206   1.083   .     S
C1186  C1187   1.380   .     A
C1187  H1191   1.083   .     S
C1188  H1207   1.074   .     S
C1189  H1190   1.081   .     S
N1210  Zn1223  2.020   .     S
N1211  Zn1224  2.020   .     S
O1212  Zn1223  1.997   .     S
O1214  C571    1.411   1_556 S
O1214  C563    1.384   1_556 S
O1215  Zn1224  1.995   .     S
O1216  Zn1223  1.946   .     S
O1217  Zn1224  1.892   .     S
O1218  Zn1223  1.995   .     S
O1219  Zn1224  1.997   .     S
O1220  Zn1223  1.892   .     S
O1221  Zn1224  1.946   .     S
