data_str_m3_o1_o18_pcu_sym.54
_audit_creation_date              2020-01-03
_audit_creation_method            'Materials Studio'
_symmetry_space_group_name_H-M    'P1'
_symmetry_Int_Tables_number       1
_symmetry_cell_setting            triclinic
loop_
_symmetry_equiv_pos_as_xyz
  x,y,z
_cell_length_a                    29.5447
_cell_length_b                    32.1084
_cell_length_c                    31.0734
_cell_angle_alpha                 90.1105
_cell_angle_beta                  67.1365
_cell_angle_gamma                 89.8498
loop_
_atom_site_label
_atom_site_type_symbol
_atom_site_fract_x
_atom_site_fract_y
_atom_site_fract_z
_atom_site_U_iso_or_equiv
_atom_site_adp_type
_atom_site_occupancy
O1     O     0.12846   0.22775   0.25000   0.00000  Uiso   1.00
O2     O     0.20488   0.10558   0.24999   0.00000  Uiso   1.00
O3     O     0.20490   0.22774   0.25000   0.00000  Uiso   1.00
O4     O     0.12843   0.10559   0.25000   0.00000  Uiso   1.00
C5     C     0.16662   0.24670   0.25006   0.00000  Uiso   1.00
C6     C     0.16671   0.08664   0.24994   0.00000  Uiso   1.00
O7     O     0.10661   0.16667   0.31612   0.00000  Uiso   1.00
O8     O     0.22672   0.16666   0.18387   0.00000  Uiso   1.00
O9     O     0.18305   0.16666   0.31612   0.00000  Uiso   1.00
O10    O     0.15028   0.16667   0.18388   0.00000  Uiso   1.00
C11    C     0.13584   0.16661   0.33804   0.00000  Uiso   1.00
C12    C     0.19749   0.16672   0.16196   0.00000  Uiso   1.00
Zn13   Zn    0.11562   0.16667   0.25000   0.00000  Uiso   1.00
Zn14   Zn    0.21771   0.16666   0.25000   0.00000  Uiso   1.00
C15    C     0.11613   0.16336   0.38869   0.00000  Uiso   1.00
C16    C     0.21720   0.16997   0.11131   0.00000  Uiso   1.00
C17    C     0.05846   0.13426   0.46074   0.00000  Uiso   1.00
C18    C     0.27487   0.19907   0.03926   0.00000  Uiso   1.00
C19    C     0.07250   0.14253   0.41321   0.00000  Uiso   1.00
C20    C     0.26083   0.19080   0.08679   0.00000  Uiso   1.00
C21    C     0.14551   0.17667   0.41135   0.00000  Uiso   1.00
C22    C     0.18782   0.15666   0.08865   0.00000  Uiso   1.00
C23    C     0.13642   0.16449   0.45710   0.00000  Uiso   1.00
C24    C     0.19692   0.16884   0.04290   0.00000  Uiso   1.00
C25    C     0.09038   0.14532   0.48381   0.00000  Uiso   1.00
C26    C     0.24295   0.18801   0.01619   0.00000  Uiso   1.00
C27    C     0.17254   0.17095   0.47625   0.00000  Uiso   1.00
C28    C     0.16080   0.16238   0.02375   0.00000  Uiso   1.00
C29    C     0.11263   0.14888   0.05130   0.00000  Uiso   1.00
C30    C     0.22070   0.18445   0.44869   0.00000  Uiso   1.00
C31    C     0.07863   0.13892   0.03202   0.00000  Uiso   1.00
C32    C     0.25470   0.19442   0.46798   0.00000  Uiso   1.00
H33    H     0.15716   0.13716   0.10833   0.00000  Uiso   1.00
H34    H     0.17617   0.19617   0.39167   0.00000  Uiso   1.00
H35    H     0.28348   0.20139   0.10499   0.00000  Uiso   1.00
H36    H     0.04986   0.13194   0.39501   0.00000  Uiso   1.00
H37    H     0.09969   0.14630   0.08877   0.00000  Uiso   1.00
H38    H     0.23364   0.18703   0.41123   0.00000  Uiso   1.00
C39    C     0.20066   0.31194   0.26305   0.00000  Uiso   1.00
C40    C     0.13267   0.02139   0.23696   0.00000  Uiso   1.00
H41    H     0.22682   0.29559   0.27357   0.00000  Uiso   1.00
H42    H     0.10651   0.03775   0.22644   0.00000  Uiso   1.00
C43    C     0.20071   0.02128   0.26299   0.00000  Uiso   1.00
C44    C     0.13262   0.31205   0.23702   0.00000  Uiso   1.00
H45    H     0.22682   0.03756   0.27355   0.00000  Uiso   1.00
H46    H     0.10650   0.29578   0.22647   0.00000  Uiso   1.00
C47    C     0.16674   0.04249   0.24992   0.00000  Uiso   1.00
C48    C     0.16659   0.29084   0.25008   0.00000  Uiso   1.00
C49    C     0.32032   0.13911   0.22245   0.00000  Uiso   1.00
C50    C     0.01301   0.19423   0.27755   0.00000  Uiso   1.00
C51    C     0.03553   0.13980   0.22211   0.00000  Uiso   1.00
C52    C     0.29780   0.19353   0.27789   0.00000  Uiso   1.00
H53    H     0.06374   0.11923   0.19938   0.00000  Uiso   1.00
H54    H     0.26959   0.21410   0.30061   0.00000  Uiso   1.00
N55    N     0.04759   0.16668   0.25001   0.00000  Uiso   1.00
N56    N     0.28574   0.16666   0.24999   0.00000  Uiso   1.00
C57    C     0.03175   0.12341   0.06407   0.00000  Uiso   1.00
N58    N     0.32775   0.11094   0.09001   0.00000  Uiso   1.00
C59    C     0.30158   0.20992   0.43593   0.00000  Uiso   1.00
N60    N     0.00558   0.22239   0.40999   0.00000  Uiso   1.00
C61    C     0.01261   0.11224   0.48269   0.00000  Uiso   1.00
N62    N     0.30916   0.09459   0.49975   0.00000  Uiso   1.00
C63    C     0.32072   0.22109   0.01731   0.00000  Uiso   1.00
N64    N     0.02417   0.23874   0.00024   0.00000  Uiso   1.00
O65    O     0.30745   0.11308   0.19337   0.00000  Uiso   1.00
C66    C     0.32443   0.07200   0.19384   0.00000  Uiso   1.00
H67    H     0.31998   0.06174   0.22951   0.00000  Uiso   1.00
H68    H     0.02991   0.06880   0.16898   0.00000  Uiso   1.00
H69    H     0.30226   0.05067   0.18177   0.00000  Uiso   1.00
O70    O     0.02589   0.22026   0.30662   0.00000  Uiso   1.00
C71    C     0.00886   0.26132   0.30621   0.00000  Uiso   1.00
H72    H     0.30338   0.26449   0.33112   0.00000  Uiso   1.00
H73    H     0.01324   0.27161   0.27057   0.00000  Uiso   1.00
H74    H     0.03102   0.28266   0.31826   0.00000  Uiso   1.00
O75    O     0.46179   0.22775   0.25000   0.00000  Uiso   1.00
O76    O     0.53821   0.10558   0.24999   0.00000  Uiso   1.00
O77    O     0.53823   0.22774   0.25000   0.00000  Uiso   1.00
O78    O     0.46177   0.10559   0.25000   0.00000  Uiso   1.00
C79    C     0.49995   0.24670   0.25006   0.00000  Uiso   1.00
C80    C     0.50005   0.08664   0.24994   0.00000  Uiso   1.00
O81    O     0.43994   0.16667   0.31612   0.00000  Uiso   1.00
O82    O     0.56006   0.16666   0.18387   0.00000  Uiso   1.00
O83    O     0.51639   0.16666   0.31612   0.00000  Uiso   1.00
O84    O     0.48361   0.16667   0.18388   0.00000  Uiso   1.00
C85    C     0.46917   0.16661   0.33804   0.00000  Uiso   1.00
C86    C     0.53083   0.16672   0.16196   0.00000  Uiso   1.00
Zn87   Zn    0.44896   0.16667   0.25000   0.00000  Uiso   1.00
Zn88   Zn    0.55104   0.16666   0.25000   0.00000  Uiso   1.00
C89    C     0.44946   0.16336   0.38869   0.00000  Uiso   1.00
C90    C     0.55053   0.16997   0.11131   0.00000  Uiso   1.00
C91    C     0.39180   0.13426   0.46074   0.00000  Uiso   1.00
C92    C     0.60820   0.19907   0.03926   0.00000  Uiso   1.00
C93    C     0.40584   0.14253   0.41321   0.00000  Uiso   1.00
C94    C     0.59416   0.19080   0.08679   0.00000  Uiso   1.00
C95    C     0.47885   0.17667   0.41135   0.00000  Uiso   1.00
C96    C     0.52115   0.15666   0.08865   0.00000  Uiso   1.00
C97    C     0.46975   0.16449   0.45710   0.00000  Uiso   1.00
C98    C     0.53025   0.16884   0.04290   0.00000  Uiso   1.00
C99    C     0.42372   0.14532   0.48381   0.00000  Uiso   1.00
C100   C     0.57628   0.18801   0.01619   0.00000  Uiso   1.00
C101   C     0.50587   0.17095   0.47625   0.00000  Uiso   1.00
C102   C     0.49413   0.16238   0.02375   0.00000  Uiso   1.00
C103   C     0.44596   0.14888   0.05130   0.00000  Uiso   1.00
C104   C     0.55404   0.18445   0.44869   0.00000  Uiso   1.00
C105   C     0.41196   0.13892   0.03202   0.00000  Uiso   1.00
C106   C     0.58804   0.19442   0.46798   0.00000  Uiso   1.00
H107   H     0.49050   0.13716   0.10833   0.00000  Uiso   1.00
H108   H     0.50950   0.19617   0.39167   0.00000  Uiso   1.00
H109   H     0.61681   0.20139   0.10499   0.00000  Uiso   1.00
H110   H     0.38319   0.13194   0.39501   0.00000  Uiso   1.00
H111   H     0.43302   0.14630   0.08877   0.00000  Uiso   1.00
H112   H     0.56698   0.18703   0.41123   0.00000  Uiso   1.00
C113   C     0.53399   0.31194   0.26305   0.00000  Uiso   1.00
C114   C     0.46601   0.02139   0.23696   0.00000  Uiso   1.00
H115   H     0.56015   0.29559   0.27357   0.00000  Uiso   1.00
H116   H     0.43984   0.03775   0.22644   0.00000  Uiso   1.00
C117   C     0.53404   0.02128   0.26299   0.00000  Uiso   1.00
C118   C     0.46595   0.31205   0.23702   0.00000  Uiso   1.00
H119   H     0.56015   0.03756   0.27355   0.00000  Uiso   1.00
H120   H     0.43984   0.29578   0.22647   0.00000  Uiso   1.00
C121   C     0.50007   0.04249   0.24992   0.00000  Uiso   1.00
C122   C     0.49992   0.29084   0.25008   0.00000  Uiso   1.00
C123   C     0.65366   0.13911   0.22245   0.00000  Uiso   1.00
C124   C     0.34634   0.19423   0.27755   0.00000  Uiso   1.00
C125   C     0.36886   0.13980   0.22211   0.00000  Uiso   1.00
C126   C     0.63114   0.19353   0.27789   0.00000  Uiso   1.00
H127   H     0.39707   0.11923   0.19938   0.00000  Uiso   1.00
H128   H     0.60292   0.21410   0.30061   0.00000  Uiso   1.00
N129   N     0.38093   0.16668   0.25001   0.00000  Uiso   1.00
N130   N     0.61907   0.16666   0.24999   0.00000  Uiso   1.00
C131   C     0.36509   0.12341   0.06407   0.00000  Uiso   1.00
N132   N     0.66108   0.11094   0.09001   0.00000  Uiso   1.00
C133   C     0.63492   0.20992   0.43593   0.00000  Uiso   1.00
N134   N     0.33892   0.22239   0.40999   0.00000  Uiso   1.00
C135   C     0.34595   0.11224   0.48269   0.00000  Uiso   1.00
N136   N     0.64249   0.09459   0.49975   0.00000  Uiso   1.00
C137   C     0.65406   0.22109   0.01731   0.00000  Uiso   1.00
N138   N     0.35751   0.23874   0.00024   0.00000  Uiso   1.00
O139   O     0.64078   0.11308   0.19337   0.00000  Uiso   1.00
C140   C     0.65776   0.07200   0.19384   0.00000  Uiso   1.00
H141   H     0.65331   0.06174   0.22951   0.00000  Uiso   1.00
H142   H     0.36325   0.06880   0.16898   0.00000  Uiso   1.00
H143   H     0.63560   0.05067   0.18177   0.00000  Uiso   1.00
O144   O     0.35923   0.22026   0.30662   0.00000  Uiso   1.00
C145   C     0.34219   0.26132   0.30621   0.00000  Uiso   1.00
H146   H     0.63671   0.26449   0.33112   0.00000  Uiso   1.00
H147   H     0.34657   0.27161   0.27057   0.00000  Uiso   1.00
H148   H     0.36436   0.28266   0.31826   0.00000  Uiso   1.00
O149   O     0.79512   0.22775   0.25000   0.00000  Uiso   1.00
O150   O     0.87154   0.10558   0.24999   0.00000  Uiso   1.00
O151   O     0.87157   0.22774   0.25000   0.00000  Uiso   1.00
O152   O     0.79510   0.10559   0.25000   0.00000  Uiso   1.00
C153   C     0.83329   0.24670   0.25006   0.00000  Uiso   1.00
C154   C     0.83338   0.08664   0.24994   0.00000  Uiso   1.00
O155   O     0.77328   0.16667   0.31612   0.00000  Uiso   1.00
O156   O     0.89339   0.16666   0.18387   0.00000  Uiso   1.00
O157   O     0.84972   0.16666   0.31612   0.00000  Uiso   1.00
O158   O     0.81695   0.16667   0.18388   0.00000  Uiso   1.00
C159   C     0.80251   0.16661   0.33804   0.00000  Uiso   1.00
C160   C     0.86416   0.16672   0.16196   0.00000  Uiso   1.00
Zn161  Zn    0.78229   0.16667   0.25000   0.00000  Uiso   1.00
Zn162  Zn    0.88438   0.16666   0.25000   0.00000  Uiso   1.00
C163   C     0.78280   0.16336   0.38869   0.00000  Uiso   1.00
C164   C     0.88387   0.16997   0.11131   0.00000  Uiso   1.00
C165   C     0.72513   0.13426   0.46074   0.00000  Uiso   1.00
C166   C     0.94154   0.19907   0.03926   0.00000  Uiso   1.00
C167   C     0.73917   0.14253   0.41321   0.00000  Uiso   1.00
C168   C     0.92750   0.19080   0.08679   0.00000  Uiso   1.00
C169   C     0.81218   0.17667   0.41135   0.00000  Uiso   1.00
C170   C     0.85449   0.15666   0.08865   0.00000  Uiso   1.00
C171   C     0.80308   0.16449   0.45710   0.00000  Uiso   1.00
C172   C     0.86358   0.16884   0.04290   0.00000  Uiso   1.00
C173   C     0.75705   0.14532   0.48381   0.00000  Uiso   1.00
C174   C     0.90962   0.18801   0.01619   0.00000  Uiso   1.00
C175   C     0.83920   0.17095   0.47625   0.00000  Uiso   1.00
C176   C     0.82746   0.16238   0.02375   0.00000  Uiso   1.00
C177   C     0.77930   0.14888   0.05130   0.00000  Uiso   1.00
C178   C     0.88737   0.18445   0.44869   0.00000  Uiso   1.00
C179   C     0.74530   0.13892   0.03202   0.00000  Uiso   1.00
C180   C     0.92137   0.19442   0.46798   0.00000  Uiso   1.00
H181   H     0.82383   0.13716   0.10833   0.00000  Uiso   1.00
H182   H     0.84284   0.19617   0.39167   0.00000  Uiso   1.00
H183   H     0.95014   0.20139   0.10499   0.00000  Uiso   1.00
H184   H     0.71652   0.13194   0.39501   0.00000  Uiso   1.00
H185   H     0.76636   0.14630   0.08877   0.00000  Uiso   1.00
H186   H     0.90031   0.18703   0.41123   0.00000  Uiso   1.00
C187   C     0.86732   0.31194   0.26305   0.00000  Uiso   1.00
C188   C     0.79934   0.02139   0.23696   0.00000  Uiso   1.00
H189   H     0.89348   0.29559   0.27357   0.00000  Uiso   1.00
H190   H     0.77318   0.03775   0.22644   0.00000  Uiso   1.00
C191   C     0.86737   0.02128   0.26299   0.00000  Uiso   1.00
C192   C     0.79929   0.31205   0.23702   0.00000  Uiso   1.00
H193   H     0.89349   0.03756   0.27355   0.00000  Uiso   1.00
H194   H     0.77317   0.29578   0.22647   0.00000  Uiso   1.00
C195   C     0.83341   0.04249   0.24992   0.00000  Uiso   1.00
C196   C     0.83325   0.29084   0.25008   0.00000  Uiso   1.00
C197   C     0.98699   0.13911   0.22245   0.00000  Uiso   1.00
C198   C     0.67968   0.19423   0.27755   0.00000  Uiso   1.00
C199   C     0.70219   0.13980   0.22211   0.00000  Uiso   1.00
C200   C     0.96447   0.19353   0.27789   0.00000  Uiso   1.00
H201   H     0.73041   0.11923   0.19938   0.00000  Uiso   1.00
H202   H     0.93626   0.21410   0.30061   0.00000  Uiso   1.00
N203   N     0.71426   0.16668   0.25001   0.00000  Uiso   1.00
N204   N     0.95241   0.16666   0.24999   0.00000  Uiso   1.00
C205   C     0.69842   0.12341   0.06407   0.00000  Uiso   1.00
N206   N     0.99442   0.11094   0.09001   0.00000  Uiso   1.00
C207   C     0.96825   0.20992   0.43593   0.00000  Uiso   1.00
N208   N     0.67225   0.22239   0.40999   0.00000  Uiso   1.00
C209   C     0.67928   0.11224   0.48269   0.00000  Uiso   1.00
N210   N     0.97583   0.09459   0.49975   0.00000  Uiso   1.00
C211   C     0.98739   0.22109   0.01731   0.00000  Uiso   1.00
N212   N     0.69084   0.23874   0.00024   0.00000  Uiso   1.00
O213   O     0.97412   0.11308   0.19337   0.00000  Uiso   1.00
C214   C     0.99109   0.07200   0.19384   0.00000  Uiso   1.00
H215   H     0.98664   0.06174   0.22951   0.00000  Uiso   1.00
H216   H     0.69658   0.06880   0.16898   0.00000  Uiso   1.00
H217   H     0.96893   0.05067   0.18177   0.00000  Uiso   1.00
O218   O     0.69256   0.22026   0.30662   0.00000  Uiso   1.00
C219   C     0.67552   0.26132   0.30621   0.00000  Uiso   1.00
H220   H     0.97005   0.26449   0.33112   0.00000  Uiso   1.00
H221   H     0.67991   0.27161   0.27057   0.00000  Uiso   1.00
H222   H     0.69769   0.28266   0.31826   0.00000  Uiso   1.00
O223   O     0.12846   0.56108   0.25000   0.00000  Uiso   1.00
O224   O     0.20488   0.43892   0.24999   0.00000  Uiso   1.00
O225   O     0.20490   0.56107   0.25000   0.00000  Uiso   1.00
O226   O     0.12843   0.43893   0.25000   0.00000  Uiso   1.00
C227   C     0.16662   0.58003   0.25006   0.00000  Uiso   1.00
C228   C     0.16671   0.41997   0.24994   0.00000  Uiso   1.00
O229   O     0.10661   0.50001   0.31612   0.00000  Uiso   1.00
O230   O     0.22672   0.49999   0.18387   0.00000  Uiso   1.00
O231   O     0.18305   0.50000   0.31612   0.00000  Uiso   1.00
O232   O     0.15028   0.50000   0.18388   0.00000  Uiso   1.00
C233   C     0.13584   0.49994   0.33804   0.00000  Uiso   1.00
C234   C     0.19749   0.50006   0.16196   0.00000  Uiso   1.00
Zn235  Zn    0.11562   0.50001   0.25000   0.00000  Uiso   1.00
Zn236  Zn    0.21771   0.49999   0.25000   0.00000  Uiso   1.00
C237   C     0.11613   0.49669   0.38869   0.00000  Uiso   1.00
C238   C     0.21720   0.50331   0.11131   0.00000  Uiso   1.00
C239   C     0.05846   0.46759   0.46074   0.00000  Uiso   1.00
C240   C     0.27487   0.53241   0.03926   0.00000  Uiso   1.00
C241   C     0.07250   0.47586   0.41321   0.00000  Uiso   1.00
C242   C     0.26083   0.52414   0.08679   0.00000  Uiso   1.00
C243   C     0.14551   0.51001   0.41135   0.00000  Uiso   1.00
C244   C     0.18782   0.48999   0.08865   0.00000  Uiso   1.00
C245   C     0.13642   0.49782   0.45710   0.00000  Uiso   1.00
C246   C     0.19692   0.50217   0.04290   0.00000  Uiso   1.00
C247   C     0.09038   0.47866   0.48381   0.00000  Uiso   1.00
C248   C     0.24295   0.52134   0.01619   0.00000  Uiso   1.00
C249   C     0.17254   0.50429   0.47625   0.00000  Uiso   1.00
C250   C     0.16080   0.49571   0.02375   0.00000  Uiso   1.00
C251   C     0.11263   0.48221   0.05130   0.00000  Uiso   1.00
C252   C     0.22070   0.51779   0.44869   0.00000  Uiso   1.00
C253   C     0.07863   0.47225   0.03202   0.00000  Uiso   1.00
C254   C     0.25470   0.52775   0.46798   0.00000  Uiso   1.00
H255   H     0.15716   0.47050   0.10833   0.00000  Uiso   1.00
H256   H     0.17617   0.52950   0.39167   0.00000  Uiso   1.00
H257   H     0.28348   0.53473   0.10499   0.00000  Uiso   1.00
H258   H     0.04986   0.46527   0.39501   0.00000  Uiso   1.00
H259   H     0.09969   0.47963   0.08877   0.00000  Uiso   1.00
H260   H     0.23364   0.52037   0.41123   0.00000  Uiso   1.00
C261   C     0.20066   0.64528   0.26305   0.00000  Uiso   1.00
C262   C     0.13267   0.35472   0.23696   0.00000  Uiso   1.00
H263   H     0.22682   0.62892   0.27357   0.00000  Uiso   1.00
H264   H     0.10651   0.37108   0.22644   0.00000  Uiso   1.00
C265   C     0.20071   0.35461   0.26299   0.00000  Uiso   1.00
C266   C     0.13262   0.64539   0.23702   0.00000  Uiso   1.00
H267   H     0.22682   0.37089   0.27355   0.00000  Uiso   1.00
H268   H     0.10650   0.62911   0.22647   0.00000  Uiso   1.00
C269   C     0.16674   0.37583   0.24992   0.00000  Uiso   1.00
C270   C     0.16659   0.62417   0.25008   0.00000  Uiso   1.00
C271   C     0.32032   0.47244   0.22245   0.00000  Uiso   1.00
C272   C     0.01301   0.52756   0.27755   0.00000  Uiso   1.00
C273   C     0.03553   0.47314   0.22211   0.00000  Uiso   1.00
C274   C     0.29780   0.52686   0.27789   0.00000  Uiso   1.00
H275   H     0.06374   0.45256   0.19938   0.00000  Uiso   1.00
H276   H     0.26959   0.54744   0.30061   0.00000  Uiso   1.00
N277   N     0.04759   0.50001   0.25001   0.00000  Uiso   1.00
N278   N     0.28574   0.49999   0.24999   0.00000  Uiso   1.00
C279   C     0.03175   0.45675   0.06407   0.00000  Uiso   1.00
N280   N     0.32775   0.44427   0.09001   0.00000  Uiso   1.00
C281   C     0.30158   0.54325   0.43593   0.00000  Uiso   1.00
N282   N     0.00558   0.55572   0.40999   0.00000  Uiso   1.00
C283   C     0.01261   0.44558   0.48269   0.00000  Uiso   1.00
N284   N     0.30916   0.42792   0.49975   0.00000  Uiso   1.00
C285   C     0.32072   0.55442   0.01731   0.00000  Uiso   1.00
N286   N     0.02417   0.57208   0.00024   0.00000  Uiso   1.00
O287   O     0.30745   0.44641   0.19337   0.00000  Uiso   1.00
C288   C     0.32443   0.40534   0.19384   0.00000  Uiso   1.00
H289   H     0.31998   0.39507   0.22951   0.00000  Uiso   1.00
H290   H     0.02991   0.40213   0.16898   0.00000  Uiso   1.00
H291   H     0.30226   0.38401   0.18177   0.00000  Uiso   1.00
O292   O     0.02589   0.55359   0.30662   0.00000  Uiso   1.00
C293   C     0.00886   0.59466   0.30621   0.00000  Uiso   1.00
H294   H     0.30338   0.59782   0.33112   0.00000  Uiso   1.00
H295   H     0.01324   0.60494   0.27057   0.00000  Uiso   1.00
H296   H     0.03102   0.61600   0.31826   0.00000  Uiso   1.00
O297   O     0.46179   0.56108   0.25000   0.00000  Uiso   1.00
O298   O     0.53821   0.43892   0.24999   0.00000  Uiso   1.00
O299   O     0.53823   0.56107   0.25000   0.00000  Uiso   1.00
O300   O     0.46177   0.43893   0.25000   0.00000  Uiso   1.00
C301   C     0.49995   0.58003   0.25006   0.00000  Uiso   1.00
C302   C     0.50005   0.41997   0.24994   0.00000  Uiso   1.00
O303   O     0.43994   0.50001   0.31612   0.00000  Uiso   1.00
O304   O     0.56006   0.49999   0.18387   0.00000  Uiso   1.00
O305   O     0.51639   0.50000   0.31612   0.00000  Uiso   1.00
O306   O     0.48361   0.50000   0.18388   0.00000  Uiso   1.00
C307   C     0.46917   0.49994   0.33804   0.00000  Uiso   1.00
C308   C     0.53083   0.50006   0.16196   0.00000  Uiso   1.00
Zn309  Zn    0.44896   0.50001   0.25000   0.00000  Uiso   1.00
Zn310  Zn    0.55104   0.49999   0.25000   0.00000  Uiso   1.00
C311   C     0.44946   0.49669   0.38869   0.00000  Uiso   1.00
C312   C     0.55053   0.50331   0.11131   0.00000  Uiso   1.00
C313   C     0.39180   0.46759   0.46074   0.00000  Uiso   1.00
C314   C     0.60820   0.53241   0.03926   0.00000  Uiso   1.00
C315   C     0.40584   0.47586   0.41321   0.00000  Uiso   1.00
C316   C     0.59416   0.52414   0.08679   0.00000  Uiso   1.00
C317   C     0.47885   0.51001   0.41135   0.00000  Uiso   1.00
C318   C     0.52115   0.48999   0.08865   0.00000  Uiso   1.00
C319   C     0.46975   0.49782   0.45710   0.00000  Uiso   1.00
C320   C     0.53025   0.50217   0.04290   0.00000  Uiso   1.00
C321   C     0.42372   0.47866   0.48381   0.00000  Uiso   1.00
C322   C     0.57628   0.52134   0.01619   0.00000  Uiso   1.00
C323   C     0.50587   0.50429   0.47625   0.00000  Uiso   1.00
C324   C     0.49413   0.49571   0.02375   0.00000  Uiso   1.00
C325   C     0.44596   0.48221   0.05130   0.00000  Uiso   1.00
C326   C     0.55404   0.51779   0.44869   0.00000  Uiso   1.00
C327   C     0.41196   0.47225   0.03202   0.00000  Uiso   1.00
C328   C     0.58804   0.52775   0.46798   0.00000  Uiso   1.00
H329   H     0.49050   0.47050   0.10833   0.00000  Uiso   1.00
H330   H     0.50950   0.52950   0.39167   0.00000  Uiso   1.00
H331   H     0.61681   0.53473   0.10499   0.00000  Uiso   1.00
H332   H     0.38319   0.46527   0.39501   0.00000  Uiso   1.00
H333   H     0.43302   0.47963   0.08877   0.00000  Uiso   1.00
H334   H     0.56698   0.52037   0.41123   0.00000  Uiso   1.00
C335   C     0.53399   0.64528   0.26305   0.00000  Uiso   1.00
C336   C     0.46601   0.35472   0.23696   0.00000  Uiso   1.00
H337   H     0.56015   0.62892   0.27357   0.00000  Uiso   1.00
H338   H     0.43984   0.37108   0.22644   0.00000  Uiso   1.00
C339   C     0.53404   0.35461   0.26299   0.00000  Uiso   1.00
C340   C     0.46595   0.64539   0.23702   0.00000  Uiso   1.00
H341   H     0.56015   0.37089   0.27355   0.00000  Uiso   1.00
H342   H     0.43984   0.62911   0.22647   0.00000  Uiso   1.00
C343   C     0.50007   0.37583   0.24992   0.00000  Uiso   1.00
C344   C     0.49992   0.62417   0.25008   0.00000  Uiso   1.00
C345   C     0.65366   0.47244   0.22245   0.00000  Uiso   1.00
C346   C     0.34634   0.52756   0.27755   0.00000  Uiso   1.00
C347   C     0.36886   0.47314   0.22211   0.00000  Uiso   1.00
C348   C     0.63114   0.52686   0.27789   0.00000  Uiso   1.00
H349   H     0.39707   0.45256   0.19938   0.00000  Uiso   1.00
H350   H     0.60292   0.54744   0.30061   0.00000  Uiso   1.00
N351   N     0.38093   0.50001   0.25001   0.00000  Uiso   1.00
N352   N     0.61907   0.49999   0.24999   0.00000  Uiso   1.00
C353   C     0.36509   0.45675   0.06407   0.00000  Uiso   1.00
N354   N     0.66108   0.44427   0.09001   0.00000  Uiso   1.00
C355   C     0.63492   0.54325   0.43593   0.00000  Uiso   1.00
N356   N     0.33892   0.55572   0.40999   0.00000  Uiso   1.00
C357   C     0.34595   0.44558   0.48269   0.00000  Uiso   1.00
N358   N     0.64249   0.42792   0.49975   0.00000  Uiso   1.00
C359   C     0.65406   0.55442   0.01731   0.00000  Uiso   1.00
N360   N     0.35751   0.57208   0.00024   0.00000  Uiso   1.00
O361   O     0.64078   0.44641   0.19337   0.00000  Uiso   1.00
C362   C     0.65776   0.40534   0.19384   0.00000  Uiso   1.00
H363   H     0.65331   0.39507   0.22951   0.00000  Uiso   1.00
H364   H     0.36325   0.40213   0.16898   0.00000  Uiso   1.00
H365   H     0.63560   0.38401   0.18177   0.00000  Uiso   1.00
O366   O     0.35923   0.55359   0.30662   0.00000  Uiso   1.00
C367   C     0.34219   0.59466   0.30621   0.00000  Uiso   1.00
H368   H     0.63671   0.59782   0.33112   0.00000  Uiso   1.00
H369   H     0.34657   0.60494   0.27057   0.00000  Uiso   1.00
H370   H     0.36436   0.61600   0.31826   0.00000  Uiso   1.00
O371   O     0.79512   0.56108   0.25000   0.00000  Uiso   1.00
O372   O     0.87154   0.43892   0.24999   0.00000  Uiso   1.00
O373   O     0.87157   0.56107   0.25000   0.00000  Uiso   1.00
O374   O     0.79510   0.43893   0.25000   0.00000  Uiso   1.00
C375   C     0.83329   0.58003   0.25006   0.00000  Uiso   1.00
C376   C     0.83338   0.41997   0.24994   0.00000  Uiso   1.00
O377   O     0.77328   0.50001   0.31612   0.00000  Uiso   1.00
O378   O     0.89339   0.49999   0.18387   0.00000  Uiso   1.00
O379   O     0.84972   0.50000   0.31612   0.00000  Uiso   1.00
O380   O     0.81695   0.50000   0.18388   0.00000  Uiso   1.00
C381   C     0.80251   0.49994   0.33804   0.00000  Uiso   1.00
C382   C     0.86416   0.50006   0.16196   0.00000  Uiso   1.00
Zn383  Zn    0.78229   0.50001   0.25000   0.00000  Uiso   1.00
Zn384  Zn    0.88438   0.49999   0.25000   0.00000  Uiso   1.00
C385   C     0.78280   0.49669   0.38869   0.00000  Uiso   1.00
C386   C     0.88387   0.50331   0.11131   0.00000  Uiso   1.00
C387   C     0.72513   0.46759   0.46074   0.00000  Uiso   1.00
C388   C     0.94154   0.53241   0.03926   0.00000  Uiso   1.00
C389   C     0.73917   0.47586   0.41321   0.00000  Uiso   1.00
C390   C     0.92750   0.52414   0.08679   0.00000  Uiso   1.00
C391   C     0.81218   0.51001   0.41135   0.00000  Uiso   1.00
C392   C     0.85449   0.48999   0.08865   0.00000  Uiso   1.00
C393   C     0.80308   0.49782   0.45710   0.00000  Uiso   1.00
C394   C     0.86358   0.50217   0.04290   0.00000  Uiso   1.00
C395   C     0.75705   0.47866   0.48381   0.00000  Uiso   1.00
C396   C     0.90962   0.52134   0.01619   0.00000  Uiso   1.00
C397   C     0.83920   0.50429   0.47625   0.00000  Uiso   1.00
C398   C     0.82746   0.49571   0.02375   0.00000  Uiso   1.00
C399   C     0.77930   0.48221   0.05130   0.00000  Uiso   1.00
C400   C     0.88737   0.51779   0.44869   0.00000  Uiso   1.00
C401   C     0.74530   0.47225   0.03202   0.00000  Uiso   1.00
C402   C     0.92137   0.52775   0.46798   0.00000  Uiso   1.00
H403   H     0.82383   0.47050   0.10833   0.00000  Uiso   1.00
H404   H     0.84284   0.52950   0.39167   0.00000  Uiso   1.00
H405   H     0.95014   0.53473   0.10499   0.00000  Uiso   1.00
H406   H     0.71652   0.46527   0.39501   0.00000  Uiso   1.00
H407   H     0.76636   0.47963   0.08877   0.00000  Uiso   1.00
H408   H     0.90031   0.52037   0.41123   0.00000  Uiso   1.00
C409   C     0.86732   0.64528   0.26305   0.00000  Uiso   1.00
C410   C     0.79934   0.35472   0.23696   0.00000  Uiso   1.00
H411   H     0.89348   0.62892   0.27357   0.00000  Uiso   1.00
H412   H     0.77318   0.37108   0.22644   0.00000  Uiso   1.00
C413   C     0.86737   0.35461   0.26299   0.00000  Uiso   1.00
C414   C     0.79929   0.64539   0.23702   0.00000  Uiso   1.00
H415   H     0.89349   0.37089   0.27355   0.00000  Uiso   1.00
H416   H     0.77317   0.62911   0.22647   0.00000  Uiso   1.00
C417   C     0.83341   0.37583   0.24992   0.00000  Uiso   1.00
C418   C     0.83325   0.62417   0.25008   0.00000  Uiso   1.00
C419   C     0.98699   0.47244   0.22245   0.00000  Uiso   1.00
C420   C     0.67968   0.52756   0.27755   0.00000  Uiso   1.00
C421   C     0.70219   0.47314   0.22211   0.00000  Uiso   1.00
C422   C     0.96447   0.52686   0.27789   0.00000  Uiso   1.00
H423   H     0.73041   0.45256   0.19938   0.00000  Uiso   1.00
H424   H     0.93626   0.54744   0.30061   0.00000  Uiso   1.00
N425   N     0.71426   0.50001   0.25001   0.00000  Uiso   1.00
N426   N     0.95241   0.49999   0.24999   0.00000  Uiso   1.00
C427   C     0.69842   0.45675   0.06407   0.00000  Uiso   1.00
N428   N     0.99442   0.44427   0.09001   0.00000  Uiso   1.00
C429   C     0.96825   0.54325   0.43593   0.00000  Uiso   1.00
N430   N     0.67225   0.55572   0.40999   0.00000  Uiso   1.00
C431   C     0.67928   0.44558   0.48269   0.00000  Uiso   1.00
N432   N     0.97583   0.42792   0.49975   0.00000  Uiso   1.00
C433   C     0.98739   0.55442   0.01731   0.00000  Uiso   1.00
N434   N     0.69084   0.57208   0.00024   0.00000  Uiso   1.00
O435   O     0.97412   0.44641   0.19337   0.00000  Uiso   1.00
C436   C     0.99109   0.40534   0.19384   0.00000  Uiso   1.00
H437   H     0.98664   0.39507   0.22951   0.00000  Uiso   1.00
H438   H     0.69658   0.40213   0.16898   0.00000  Uiso   1.00
H439   H     0.96893   0.38401   0.18177   0.00000  Uiso   1.00
O440   O     0.69256   0.55359   0.30662   0.00000  Uiso   1.00
C441   C     0.67552   0.59466   0.30621   0.00000  Uiso   1.00
H442   H     0.97005   0.59782   0.33112   0.00000  Uiso   1.00
H443   H     0.67991   0.60494   0.27057   0.00000  Uiso   1.00
H444   H     0.69769   0.61600   0.31826   0.00000  Uiso   1.00
O445   O     0.12846   0.89442   0.25000   0.00000  Uiso   1.00
O446   O     0.20488   0.77225   0.24999   0.00000  Uiso   1.00
O447   O     0.20490   0.89441   0.25000   0.00000  Uiso   1.00
O448   O     0.12843   0.77226   0.25000   0.00000  Uiso   1.00
C449   C     0.16662   0.91336   0.25006   0.00000  Uiso   1.00
C450   C     0.16671   0.75330   0.24994   0.00000  Uiso   1.00
O451   O     0.10661   0.83334   0.31612   0.00000  Uiso   1.00
O452   O     0.22672   0.83333   0.18387   0.00000  Uiso   1.00
O453   O     0.18305   0.83333   0.31612   0.00000  Uiso   1.00
O454   O     0.15028   0.83334   0.18388   0.00000  Uiso   1.00
C455   C     0.13584   0.83328   0.33804   0.00000  Uiso   1.00
C456   C     0.19749   0.83339   0.16196   0.00000  Uiso   1.00
Zn457  Zn    0.11562   0.83334   0.25000   0.00000  Uiso   1.00
Zn458  Zn    0.21771   0.83333   0.25000   0.00000  Uiso   1.00
C459   C     0.11613   0.83003   0.38869   0.00000  Uiso   1.00
C460   C     0.21720   0.83664   0.11131   0.00000  Uiso   1.00
C461   C     0.05846   0.80092   0.46074   0.00000  Uiso   1.00
C462   C     0.27487   0.86574   0.03926   0.00000  Uiso   1.00
C463   C     0.07250   0.80920   0.41321   0.00000  Uiso   1.00
C464   C     0.26083   0.85747   0.08679   0.00000  Uiso   1.00
C465   C     0.14551   0.84334   0.41135   0.00000  Uiso   1.00
C466   C     0.18782   0.82333   0.08865   0.00000  Uiso   1.00
C467   C     0.13642   0.83116   0.45710   0.00000  Uiso   1.00
C468   C     0.19692   0.83551   0.04290   0.00000  Uiso   1.00
C469   C     0.09038   0.81199   0.48381   0.00000  Uiso   1.00
C470   C     0.24295   0.85467   0.01619   0.00000  Uiso   1.00
C471   C     0.17254   0.83762   0.47625   0.00000  Uiso   1.00
C472   C     0.16080   0.82904   0.02375   0.00000  Uiso   1.00
C473   C     0.11263   0.81554   0.05130   0.00000  Uiso   1.00
C474   C     0.22070   0.85112   0.44869   0.00000  Uiso   1.00
C475   C     0.07863   0.80558   0.03202   0.00000  Uiso   1.00
C476   C     0.25470   0.86108   0.46798   0.00000  Uiso   1.00
H477   H     0.15716   0.80383   0.10833   0.00000  Uiso   1.00
H478   H     0.17617   0.86284   0.39167   0.00000  Uiso   1.00
H479   H     0.28348   0.86806   0.10499   0.00000  Uiso   1.00
H480   H     0.04986   0.79861   0.39501   0.00000  Uiso   1.00
H481   H     0.09969   0.81296   0.08877   0.00000  Uiso   1.00
H482   H     0.23364   0.85370   0.41123   0.00000  Uiso   1.00
C483   C     0.20066   0.97861   0.26305   0.00000  Uiso   1.00
C484   C     0.13267   0.68806   0.23696   0.00000  Uiso   1.00
H485   H     0.22682   0.96225   0.27357   0.00000  Uiso   1.00
H486   H     0.10651   0.70441   0.22644   0.00000  Uiso   1.00
C487   C     0.20071   0.68795   0.26299   0.00000  Uiso   1.00
C488   C     0.13262   0.97872   0.23702   0.00000  Uiso   1.00
H489   H     0.22682   0.70422   0.27355   0.00000  Uiso   1.00
H490   H     0.10650   0.96245   0.22647   0.00000  Uiso   1.00
C491   C     0.16674   0.70916   0.24992   0.00000  Uiso   1.00
C492   C     0.16659   0.95751   0.25008   0.00000  Uiso   1.00
C493   C     0.32032   0.80577   0.22245   0.00000  Uiso   1.00
C494   C     0.01301   0.86090   0.27755   0.00000  Uiso   1.00
C495   C     0.03553   0.80647   0.22211   0.00000  Uiso   1.00
C496   C     0.29780   0.86020   0.27789   0.00000  Uiso   1.00
H497   H     0.06374   0.78590   0.19938   0.00000  Uiso   1.00
H498   H     0.26959   0.88077   0.30061   0.00000  Uiso   1.00
N499   N     0.04759   0.83334   0.25001   0.00000  Uiso   1.00
N500   N     0.28574   0.83332   0.24999   0.00000  Uiso   1.00
C501   C     0.03175   0.79008   0.06407   0.00000  Uiso   1.00
N502   N     0.32775   0.77760   0.09001   0.00000  Uiso   1.00
C503   C     0.30158   0.87658   0.43593   0.00000  Uiso   1.00
N504   N     0.00558   0.88906   0.40999   0.00000  Uiso   1.00
C505   C     0.01261   0.77891   0.48269   0.00000  Uiso   1.00
N506   N     0.30916   0.76125   0.49975   0.00000  Uiso   1.00
C507   C     0.32072   0.88775   0.01731   0.00000  Uiso   1.00
N508   N     0.02417   0.90541   0.00024   0.00000  Uiso   1.00
O509   O     0.30745   0.77975   0.19337   0.00000  Uiso   1.00
C510   C     0.32443   0.73867   0.19384   0.00000  Uiso   1.00
H511   H     0.31998   0.72840   0.22951   0.00000  Uiso   1.00
H512   H     0.02991   0.73547   0.16898   0.00000  Uiso   1.00
H513   H     0.30226   0.71734   0.18177   0.00000  Uiso   1.00
O514   O     0.02589   0.88692   0.30662   0.00000  Uiso   1.00
C515   C     0.00886   0.92799   0.30621   0.00000  Uiso   1.00
H516   H     0.30338   0.93116   0.33112   0.00000  Uiso   1.00
H517   H     0.01324   0.93827   0.27057   0.00000  Uiso   1.00
H518   H     0.03102   0.94933   0.31826   0.00000  Uiso   1.00
O519   O     0.46179   0.89442   0.25000   0.00000  Uiso   1.00
O520   O     0.53821   0.77225   0.24999   0.00000  Uiso   1.00
O521   O     0.53823   0.89441   0.25000   0.00000  Uiso   1.00
O522   O     0.46177   0.77226   0.25000   0.00000  Uiso   1.00
C523   C     0.49995   0.91336   0.25006   0.00000  Uiso   1.00
C524   C     0.50005   0.75330   0.24994   0.00000  Uiso   1.00
O525   O     0.43994   0.83334   0.31612   0.00000  Uiso   1.00
O526   O     0.56006   0.83333   0.18387   0.00000  Uiso   1.00
O527   O     0.51639   0.83333   0.31612   0.00000  Uiso   1.00
O528   O     0.48361   0.83334   0.18388   0.00000  Uiso   1.00
C529   C     0.46917   0.83328   0.33804   0.00000  Uiso   1.00
C530   C     0.53083   0.83339   0.16196   0.00000  Uiso   1.00
Zn531  Zn    0.44896   0.83334   0.25000   0.00000  Uiso   1.00
Zn532  Zn    0.55104   0.83333   0.25000   0.00000  Uiso   1.00
C533   C     0.44946   0.83003   0.38869   0.00000  Uiso   1.00
C534   C     0.55053   0.83664   0.11131   0.00000  Uiso   1.00
C535   C     0.39180   0.80092   0.46074   0.00000  Uiso   1.00
C536   C     0.60820   0.86574   0.03926   0.00000  Uiso   1.00
C537   C     0.40584   0.80920   0.41321   0.00000  Uiso   1.00
C538   C     0.59416   0.85747   0.08679   0.00000  Uiso   1.00
C539   C     0.47885   0.84334   0.41135   0.00000  Uiso   1.00
C540   C     0.52115   0.82333   0.08865   0.00000  Uiso   1.00
C541   C     0.46975   0.83116   0.45710   0.00000  Uiso   1.00
C542   C     0.53025   0.83551   0.04290   0.00000  Uiso   1.00
C543   C     0.42372   0.81199   0.48381   0.00000  Uiso   1.00
C544   C     0.57628   0.85467   0.01619   0.00000  Uiso   1.00
C545   C     0.50587   0.83762   0.47625   0.00000  Uiso   1.00
C546   C     0.49413   0.82904   0.02375   0.00000  Uiso   1.00
C547   C     0.44596   0.81554   0.05130   0.00000  Uiso   1.00
C548   C     0.55404   0.85112   0.44869   0.00000  Uiso   1.00
C549   C     0.41196   0.80558   0.03202   0.00000  Uiso   1.00
C550   C     0.58804   0.86108   0.46798   0.00000  Uiso   1.00
H551   H     0.49050   0.80383   0.10833   0.00000  Uiso   1.00
H552   H     0.50950   0.86284   0.39167   0.00000  Uiso   1.00
H553   H     0.61681   0.86806   0.10499   0.00000  Uiso   1.00
H554   H     0.38319   0.79861   0.39501   0.00000  Uiso   1.00
H555   H     0.43302   0.81296   0.08877   0.00000  Uiso   1.00
H556   H     0.56698   0.85370   0.41123   0.00000  Uiso   1.00
C557   C     0.53399   0.97861   0.26305   0.00000  Uiso   1.00
C558   C     0.46601   0.68806   0.23696   0.00000  Uiso   1.00
H559   H     0.56015   0.96225   0.27357   0.00000  Uiso   1.00
H560   H     0.43984   0.70441   0.22644   0.00000  Uiso   1.00
C561   C     0.53404   0.68795   0.26299   0.00000  Uiso   1.00
C562   C     0.46595   0.97872   0.23702   0.00000  Uiso   1.00
H563   H     0.56015   0.70422   0.27355   0.00000  Uiso   1.00
H564   H     0.43984   0.96245   0.22647   0.00000  Uiso   1.00
C565   C     0.50007   0.70916   0.24992   0.00000  Uiso   1.00
C566   C     0.49992   0.95751   0.25008   0.00000  Uiso   1.00
C567   C     0.65366   0.80577   0.22245   0.00000  Uiso   1.00
C568   C     0.34634   0.86090   0.27755   0.00000  Uiso   1.00
C569   C     0.36886   0.80647   0.22211   0.00000  Uiso   1.00
C570   C     0.63114   0.86020   0.27789   0.00000  Uiso   1.00
H571   H     0.39707   0.78590   0.19938   0.00000  Uiso   1.00
H572   H     0.60292   0.88077   0.30061   0.00000  Uiso   1.00
N573   N     0.38093   0.83334   0.25001   0.00000  Uiso   1.00
N574   N     0.61907   0.83332   0.24999   0.00000  Uiso   1.00
C575   C     0.36509   0.79008   0.06407   0.00000  Uiso   1.00
N576   N     0.66108   0.77760   0.09001   0.00000  Uiso   1.00
C577   C     0.63492   0.87658   0.43593   0.00000  Uiso   1.00
N578   N     0.33892   0.88906   0.40999   0.00000  Uiso   1.00
C579   C     0.34595   0.77891   0.48269   0.00000  Uiso   1.00
N580   N     0.64249   0.76125   0.49975   0.00000  Uiso   1.00
C581   C     0.65406   0.88775   0.01731   0.00000  Uiso   1.00
N582   N     0.35751   0.90541   0.00024   0.00000  Uiso   1.00
O583   O     0.64078   0.77975   0.19337   0.00000  Uiso   1.00
C584   C     0.65776   0.73867   0.19384   0.00000  Uiso   1.00
H585   H     0.65331   0.72840   0.22951   0.00000  Uiso   1.00
H586   H     0.36325   0.73547   0.16898   0.00000  Uiso   1.00
H587   H     0.63560   0.71734   0.18177   0.00000  Uiso   1.00
O588   O     0.35923   0.88692   0.30662   0.00000  Uiso   1.00
C589   C     0.34219   0.92799   0.30621   0.00000  Uiso   1.00
H590   H     0.63671   0.93116   0.33112   0.00000  Uiso   1.00
H591   H     0.34657   0.93827   0.27057   0.00000  Uiso   1.00
H592   H     0.36436   0.94933   0.31826   0.00000  Uiso   1.00
O593   O     0.79512   0.89442   0.25000   0.00000  Uiso   1.00
O594   O     0.87154   0.77225   0.24999   0.00000  Uiso   1.00
O595   O     0.87157   0.89441   0.25000   0.00000  Uiso   1.00
O596   O     0.79510   0.77226   0.25000   0.00000  Uiso   1.00
C597   C     0.83329   0.91336   0.25006   0.00000  Uiso   1.00
C598   C     0.83338   0.75330   0.24994   0.00000  Uiso   1.00
O599   O     0.77328   0.83334   0.31612   0.00000  Uiso   1.00
O600   O     0.89339   0.83333   0.18387   0.00000  Uiso   1.00
O601   O     0.84972   0.83333   0.31612   0.00000  Uiso   1.00
O602   O     0.81695   0.83334   0.18388   0.00000  Uiso   1.00
C603   C     0.80251   0.83328   0.33804   0.00000  Uiso   1.00
C604   C     0.86416   0.83339   0.16196   0.00000  Uiso   1.00
Zn605  Zn    0.78229   0.83334   0.25000   0.00000  Uiso   1.00
Zn606  Zn    0.88438   0.83333   0.25000   0.00000  Uiso   1.00
C607   C     0.78280   0.83003   0.38869   0.00000  Uiso   1.00
C608   C     0.88387   0.83664   0.11131   0.00000  Uiso   1.00
C609   C     0.72513   0.80092   0.46074   0.00000  Uiso   1.00
C610   C     0.94154   0.86574   0.03926   0.00000  Uiso   1.00
C611   C     0.73917   0.80920   0.41321   0.00000  Uiso   1.00
C612   C     0.92750   0.85747   0.08679   0.00000  Uiso   1.00
C613   C     0.81218   0.84334   0.41135   0.00000  Uiso   1.00
C614   C     0.85449   0.82333   0.08865   0.00000  Uiso   1.00
C615   C     0.80308   0.83116   0.45710   0.00000  Uiso   1.00
C616   C     0.86358   0.83551   0.04290   0.00000  Uiso   1.00
C617   C     0.75705   0.81199   0.48381   0.00000  Uiso   1.00
C618   C     0.90962   0.85467   0.01619   0.00000  Uiso   1.00
C619   C     0.83920   0.83762   0.47625   0.00000  Uiso   1.00
C620   C     0.82746   0.82904   0.02375   0.00000  Uiso   1.00
C621   C     0.77930   0.81554   0.05130   0.00000  Uiso   1.00
C622   C     0.88737   0.85112   0.44869   0.00000  Uiso   1.00
C623   C     0.74530   0.80558   0.03202   0.00000  Uiso   1.00
C624   C     0.92137   0.86108   0.46798   0.00000  Uiso   1.00
H625   H     0.82383   0.80383   0.10833   0.00000  Uiso   1.00
H626   H     0.84284   0.86284   0.39167   0.00000  Uiso   1.00
H627   H     0.95014   0.86806   0.10499   0.00000  Uiso   1.00
H628   H     0.71652   0.79861   0.39501   0.00000  Uiso   1.00
H629   H     0.76636   0.81296   0.08877   0.00000  Uiso   1.00
H630   H     0.90031   0.85370   0.41123   0.00000  Uiso   1.00
C631   C     0.86732   0.97861   0.26305   0.00000  Uiso   1.00
C632   C     0.79934   0.68806   0.23696   0.00000  Uiso   1.00
H633   H     0.89348   0.96225   0.27357   0.00000  Uiso   1.00
H634   H     0.77318   0.70441   0.22644   0.00000  Uiso   1.00
C635   C     0.86737   0.68795   0.26299   0.00000  Uiso   1.00
C636   C     0.79929   0.97872   0.23702   0.00000  Uiso   1.00
H637   H     0.89349   0.70422   0.27355   0.00000  Uiso   1.00
H638   H     0.77317   0.96245   0.22647   0.00000  Uiso   1.00
C639   C     0.83341   0.70916   0.24992   0.00000  Uiso   1.00
C640   C     0.83325   0.95751   0.25008   0.00000  Uiso   1.00
C641   C     0.98699   0.80577   0.22245   0.00000  Uiso   1.00
C642   C     0.67968   0.86090   0.27755   0.00000  Uiso   1.00
C643   C     0.70219   0.80647   0.22211   0.00000  Uiso   1.00
C644   C     0.96447   0.86020   0.27789   0.00000  Uiso   1.00
H645   H     0.73041   0.78590   0.19938   0.00000  Uiso   1.00
H646   H     0.93626   0.88077   0.30061   0.00000  Uiso   1.00
N647   N     0.71426   0.83334   0.25001   0.00000  Uiso   1.00
N648   N     0.95241   0.83332   0.24999   0.00000  Uiso   1.00
C649   C     0.69842   0.79008   0.06407   0.00000  Uiso   1.00
N650   N     0.99442   0.77760   0.09001   0.00000  Uiso   1.00
C651   C     0.96825   0.87658   0.43593   0.00000  Uiso   1.00
N652   N     0.67225   0.88906   0.40999   0.00000  Uiso   1.00
C653   C     0.67928   0.77891   0.48269   0.00000  Uiso   1.00
N654   N     0.97583   0.76125   0.49975   0.00000  Uiso   1.00
C655   C     0.98739   0.88775   0.01731   0.00000  Uiso   1.00
N656   N     0.69084   0.90541   0.00024   0.00000  Uiso   1.00
O657   O     0.97412   0.77975   0.19337   0.00000  Uiso   1.00
C658   C     0.99109   0.73867   0.19384   0.00000  Uiso   1.00
H659   H     0.98664   0.72840   0.22951   0.00000  Uiso   1.00
H660   H     0.69658   0.73547   0.16898   0.00000  Uiso   1.00
H661   H     0.96893   0.71734   0.18177   0.00000  Uiso   1.00
O662   O     0.69256   0.88692   0.30662   0.00000  Uiso   1.00
C663   C     0.67552   0.92799   0.30621   0.00000  Uiso   1.00
H664   H     0.97005   0.93116   0.33112   0.00000  Uiso   1.00
H665   H     0.67991   0.93827   0.27057   0.00000  Uiso   1.00
H666   H     0.69769   0.94933   0.31826   0.00000  Uiso   1.00
O667   O     0.12846   0.22775   0.75000   0.00000  Uiso   1.00
O668   O     0.20488   0.10558   0.74999   0.00000  Uiso   1.00
O669   O     0.20490   0.22774   0.75000   0.00000  Uiso   1.00
O670   O     0.12843   0.10559   0.75000   0.00000  Uiso   1.00
C671   C     0.16662   0.24670   0.75006   0.00000  Uiso   1.00
C672   C     0.16671   0.08664   0.74994   0.00000  Uiso   1.00
O673   O     0.10661   0.16667   0.81612   0.00000  Uiso   1.00
O674   O     0.22672   0.16666   0.68387   0.00000  Uiso   1.00
O675   O     0.18305   0.16666   0.81612   0.00000  Uiso   1.00
O676   O     0.15028   0.16667   0.68388   0.00000  Uiso   1.00
C677   C     0.13584   0.16661   0.83804   0.00000  Uiso   1.00
C678   C     0.19749   0.16672   0.66196   0.00000  Uiso   1.00
Zn679  Zn    0.11562   0.16667   0.75000   0.00000  Uiso   1.00
Zn680  Zn    0.21771   0.16666   0.75000   0.00000  Uiso   1.00
C681   C     0.11613   0.16336   0.88869   0.00000  Uiso   1.00
C682   C     0.21720   0.16997   0.61131   0.00000  Uiso   1.00
C683   C     0.05846   0.13426   0.96074   0.00000  Uiso   1.00
C684   C     0.27487   0.19907   0.53926   0.00000  Uiso   1.00
C685   C     0.07250   0.14253   0.91321   0.00000  Uiso   1.00
C686   C     0.26083   0.19080   0.58679   0.00000  Uiso   1.00
C687   C     0.14551   0.17667   0.91135   0.00000  Uiso   1.00
C688   C     0.18782   0.15666   0.58865   0.00000  Uiso   1.00
C689   C     0.13642   0.16449   0.95710   0.00000  Uiso   1.00
C690   C     0.19692   0.16884   0.54290   0.00000  Uiso   1.00
C691   C     0.09038   0.14532   0.98381   0.00000  Uiso   1.00
C692   C     0.24295   0.18801   0.51619   0.00000  Uiso   1.00
C693   C     0.17254   0.17095   0.97625   0.00000  Uiso   1.00
C694   C     0.16080   0.16238   0.52375   0.00000  Uiso   1.00
C695   C     0.11263   0.14888   0.55130   0.00000  Uiso   1.00
C696   C     0.22070   0.18445   0.94869   0.00000  Uiso   1.00
C697   C     0.07863   0.13892   0.53202   0.00000  Uiso   1.00
C698   C     0.25470   0.19442   0.96798   0.00000  Uiso   1.00
H699   H     0.15716   0.13716   0.60833   0.00000  Uiso   1.00
H700   H     0.17617   0.19617   0.89167   0.00000  Uiso   1.00
H701   H     0.28348   0.20139   0.60499   0.00000  Uiso   1.00
H702   H     0.04986   0.13194   0.89501   0.00000  Uiso   1.00
H703   H     0.09969   0.14630   0.58877   0.00000  Uiso   1.00
H704   H     0.23364   0.18703   0.91123   0.00000  Uiso   1.00
C705   C     0.20066   0.31194   0.76305   0.00000  Uiso   1.00
C706   C     0.13267   0.02139   0.73696   0.00000  Uiso   1.00
H707   H     0.22682   0.29559   0.77357   0.00000  Uiso   1.00
H708   H     0.10651   0.03775   0.72644   0.00000  Uiso   1.00
C709   C     0.20071   0.02128   0.76299   0.00000  Uiso   1.00
C710   C     0.13262   0.31205   0.73702   0.00000  Uiso   1.00
H711   H     0.22682   0.03756   0.77355   0.00000  Uiso   1.00
H712   H     0.10650   0.29578   0.72647   0.00000  Uiso   1.00
C713   C     0.16674   0.04249   0.74992   0.00000  Uiso   1.00
C714   C     0.16659   0.29084   0.75008   0.00000  Uiso   1.00
C715   C     0.32032   0.13911   0.72245   0.00000  Uiso   1.00
C716   C     0.01301   0.19423   0.77755   0.00000  Uiso   1.00
C717   C     0.03553   0.13980   0.72211   0.00000  Uiso   1.00
C718   C     0.29780   0.19353   0.77789   0.00000  Uiso   1.00
H719   H     0.06374   0.11923   0.69938   0.00000  Uiso   1.00
H720   H     0.26959   0.21410   0.80061   0.00000  Uiso   1.00
N721   N     0.04759   0.16668   0.75001   0.00000  Uiso   1.00
N722   N     0.28574   0.16666   0.74999   0.00000  Uiso   1.00
C723   C     0.03175   0.12341   0.56407   0.00000  Uiso   1.00
N724   N     0.32775   0.11094   0.59001   0.00000  Uiso   1.00
C725   C     0.30158   0.20992   0.93593   0.00000  Uiso   1.00
N726   N     0.00558   0.22239   0.90999   0.00000  Uiso   1.00
C727   C     0.01261   0.11224   0.98269   0.00000  Uiso   1.00
N728   N     0.30916   0.09459   0.99975   0.00000  Uiso   1.00
C729   C     0.32072   0.22109   0.51731   0.00000  Uiso   1.00
N730   N     0.02417   0.23874   0.50024   0.00000  Uiso   1.00
O731   O     0.30745   0.11308   0.69337   0.00000  Uiso   1.00
C732   C     0.32443   0.07200   0.69384   0.00000  Uiso   1.00
H733   H     0.31998   0.06174   0.72951   0.00000  Uiso   1.00
H734   H     0.02991   0.06880   0.66898   0.00000  Uiso   1.00
H735   H     0.30226   0.05067   0.68177   0.00000  Uiso   1.00
O736   O     0.02589   0.22026   0.80662   0.00000  Uiso   1.00
C737   C     0.00886   0.26132   0.80621   0.00000  Uiso   1.00
H738   H     0.30338   0.26449   0.83112   0.00000  Uiso   1.00
H739   H     0.01324   0.27161   0.77057   0.00000  Uiso   1.00
H740   H     0.03102   0.28266   0.81826   0.00000  Uiso   1.00
O741   O     0.46179   0.22775   0.75000   0.00000  Uiso   1.00
O742   O     0.53821   0.10558   0.74999   0.00000  Uiso   1.00
O743   O     0.53823   0.22774   0.75000   0.00000  Uiso   1.00
O744   O     0.46177   0.10559   0.75000   0.00000  Uiso   1.00
C745   C     0.49995   0.24670   0.75006   0.00000  Uiso   1.00
C746   C     0.50005   0.08664   0.74994   0.00000  Uiso   1.00
O747   O     0.43994   0.16667   0.81612   0.00000  Uiso   1.00
O748   O     0.56006   0.16666   0.68387   0.00000  Uiso   1.00
O749   O     0.51639   0.16666   0.81612   0.00000  Uiso   1.00
O750   O     0.48361   0.16667   0.68388   0.00000  Uiso   1.00
C751   C     0.46917   0.16661   0.83804   0.00000  Uiso   1.00
C752   C     0.53083   0.16672   0.66196   0.00000  Uiso   1.00
Zn753  Zn    0.44896   0.16667   0.75000   0.00000  Uiso   1.00
Zn754  Zn    0.55104   0.16666   0.75000   0.00000  Uiso   1.00
C755   C     0.44946   0.16336   0.88869   0.00000  Uiso   1.00
C756   C     0.55053   0.16997   0.61131   0.00000  Uiso   1.00
C757   C     0.39180   0.13426   0.96074   0.00000  Uiso   1.00
C758   C     0.60820   0.19907   0.53926   0.00000  Uiso   1.00
C759   C     0.40584   0.14253   0.91321   0.00000  Uiso   1.00
C760   C     0.59416   0.19080   0.58679   0.00000  Uiso   1.00
C761   C     0.47885   0.17667   0.91135   0.00000  Uiso   1.00
C762   C     0.52115   0.15666   0.58865   0.00000  Uiso   1.00
C763   C     0.46975   0.16449   0.95710   0.00000  Uiso   1.00
C764   C     0.53025   0.16884   0.54290   0.00000  Uiso   1.00
C765   C     0.42372   0.14532   0.98381   0.00000  Uiso   1.00
C766   C     0.57628   0.18801   0.51619   0.00000  Uiso   1.00
C767   C     0.50587   0.17095   0.97625   0.00000  Uiso   1.00
C768   C     0.49413   0.16238   0.52375   0.00000  Uiso   1.00
C769   C     0.44596   0.14888   0.55130   0.00000  Uiso   1.00
C770   C     0.55404   0.18445   0.94869   0.00000  Uiso   1.00
C771   C     0.41196   0.13892   0.53202   0.00000  Uiso   1.00
C772   C     0.58804   0.19442   0.96798   0.00000  Uiso   1.00
H773   H     0.49050   0.13716   0.60833   0.00000  Uiso   1.00
H774   H     0.50950   0.19617   0.89167   0.00000  Uiso   1.00
H775   H     0.61681   0.20139   0.60499   0.00000  Uiso   1.00
H776   H     0.38319   0.13194   0.89501   0.00000  Uiso   1.00
H777   H     0.43302   0.14630   0.58877   0.00000  Uiso   1.00
H778   H     0.56698   0.18703   0.91123   0.00000  Uiso   1.00
C779   C     0.53399   0.31194   0.76305   0.00000  Uiso   1.00
C780   C     0.46601   0.02139   0.73696   0.00000  Uiso   1.00
H781   H     0.56015   0.29559   0.77357   0.00000  Uiso   1.00
H782   H     0.43984   0.03775   0.72644   0.00000  Uiso   1.00
C783   C     0.53404   0.02128   0.76299   0.00000  Uiso   1.00
C784   C     0.46595   0.31205   0.73702   0.00000  Uiso   1.00
H785   H     0.56015   0.03756   0.77355   0.00000  Uiso   1.00
H786   H     0.43984   0.29578   0.72647   0.00000  Uiso   1.00
C787   C     0.50007   0.04249   0.74992   0.00000  Uiso   1.00
C788   C     0.49992   0.29084   0.75008   0.00000  Uiso   1.00
C789   C     0.65366   0.13911   0.72245   0.00000  Uiso   1.00
C790   C     0.34634   0.19423   0.77755   0.00000  Uiso   1.00
C791   C     0.36886   0.13980   0.72211   0.00000  Uiso   1.00
C792   C     0.63114   0.19353   0.77789   0.00000  Uiso   1.00
H793   H     0.39707   0.11923   0.69938   0.00000  Uiso   1.00
H794   H     0.60292   0.21410   0.80061   0.00000  Uiso   1.00
N795   N     0.38093   0.16668   0.75001   0.00000  Uiso   1.00
N796   N     0.61907   0.16666   0.74999   0.00000  Uiso   1.00
C797   C     0.36509   0.12341   0.56407   0.00000  Uiso   1.00
N798   N     0.66108   0.11094   0.59001   0.00000  Uiso   1.00
C799   C     0.63492   0.20992   0.93593   0.00000  Uiso   1.00
N800   N     0.33892   0.22239   0.90999   0.00000  Uiso   1.00
C801   C     0.34595   0.11224   0.98269   0.00000  Uiso   1.00
N802   N     0.64249   0.09459   0.99975   0.00000  Uiso   1.00
C803   C     0.65406   0.22109   0.51731   0.00000  Uiso   1.00
N804   N     0.35751   0.23874   0.50024   0.00000  Uiso   1.00
O805   O     0.64078   0.11308   0.69337   0.00000  Uiso   1.00
C806   C     0.65776   0.07200   0.69384   0.00000  Uiso   1.00
H807   H     0.65331   0.06174   0.72951   0.00000  Uiso   1.00
H808   H     0.36325   0.06880   0.66898   0.00000  Uiso   1.00
H809   H     0.63560   0.05067   0.68177   0.00000  Uiso   1.00
O810   O     0.35923   0.22026   0.80662   0.00000  Uiso   1.00
C811   C     0.34219   0.26132   0.80621   0.00000  Uiso   1.00
H812   H     0.63671   0.26449   0.83112   0.00000  Uiso   1.00
H813   H     0.34657   0.27161   0.77057   0.00000  Uiso   1.00
H814   H     0.36436   0.28266   0.81826   0.00000  Uiso   1.00
O815   O     0.79512   0.22775   0.75000   0.00000  Uiso   1.00
O816   O     0.87154   0.10558   0.74999   0.00000  Uiso   1.00
O817   O     0.87157   0.22774   0.75000   0.00000  Uiso   1.00
O818   O     0.79510   0.10559   0.75000   0.00000  Uiso   1.00
C819   C     0.83329   0.24670   0.75006   0.00000  Uiso   1.00
C820   C     0.83338   0.08664   0.74994   0.00000  Uiso   1.00
O821   O     0.77328   0.16667   0.81612   0.00000  Uiso   1.00
O822   O     0.89339   0.16666   0.68387   0.00000  Uiso   1.00
O823   O     0.84972   0.16666   0.81612   0.00000  Uiso   1.00
O824   O     0.81695   0.16667   0.68388   0.00000  Uiso   1.00
C825   C     0.80251   0.16661   0.83804   0.00000  Uiso   1.00
C826   C     0.86416   0.16672   0.66196   0.00000  Uiso   1.00
Zn827  Zn    0.78229   0.16667   0.75000   0.00000  Uiso   1.00
Zn828  Zn    0.88438   0.16666   0.75000   0.00000  Uiso   1.00
C829   C     0.78280   0.16336   0.88869   0.00000  Uiso   1.00
C830   C     0.88387   0.16997   0.61131   0.00000  Uiso   1.00
C831   C     0.72513   0.13426   0.96074   0.00000  Uiso   1.00
C832   C     0.94154   0.19907   0.53926   0.00000  Uiso   1.00
C833   C     0.73917   0.14253   0.91321   0.00000  Uiso   1.00
C834   C     0.92750   0.19080   0.58679   0.00000  Uiso   1.00
C835   C     0.81218   0.17667   0.91135   0.00000  Uiso   1.00
C836   C     0.85449   0.15666   0.58865   0.00000  Uiso   1.00
C837   C     0.80308   0.16449   0.95710   0.00000  Uiso   1.00
C838   C     0.86358   0.16884   0.54290   0.00000  Uiso   1.00
C839   C     0.75705   0.14532   0.98381   0.00000  Uiso   1.00
C840   C     0.90962   0.18801   0.51619   0.00000  Uiso   1.00
C841   C     0.83920   0.17095   0.97625   0.00000  Uiso   1.00
C842   C     0.82746   0.16238   0.52375   0.00000  Uiso   1.00
C843   C     0.77930   0.14888   0.55130   0.00000  Uiso   1.00
C844   C     0.88737   0.18445   0.94869   0.00000  Uiso   1.00
C845   C     0.74530   0.13892   0.53202   0.00000  Uiso   1.00
C846   C     0.92137   0.19442   0.96798   0.00000  Uiso   1.00
H847   H     0.82383   0.13716   0.60833   0.00000  Uiso   1.00
H848   H     0.84284   0.19617   0.89167   0.00000  Uiso   1.00
H849   H     0.95014   0.20139   0.60499   0.00000  Uiso   1.00
H850   H     0.71652   0.13194   0.89501   0.00000  Uiso   1.00
H851   H     0.76636   0.14630   0.58877   0.00000  Uiso   1.00
H852   H     0.90031   0.18703   0.91123   0.00000  Uiso   1.00
C853   C     0.86732   0.31194   0.76305   0.00000  Uiso   1.00
C854   C     0.79934   0.02139   0.73696   0.00000  Uiso   1.00
H855   H     0.89348   0.29559   0.77357   0.00000  Uiso   1.00
H856   H     0.77318   0.03775   0.72644   0.00000  Uiso   1.00
C857   C     0.86737   0.02128   0.76299   0.00000  Uiso   1.00
C858   C     0.79929   0.31205   0.73702   0.00000  Uiso   1.00
H859   H     0.89349   0.03756   0.77355   0.00000  Uiso   1.00
H860   H     0.77317   0.29578   0.72647   0.00000  Uiso   1.00
C861   C     0.83341   0.04249   0.74992   0.00000  Uiso   1.00
C862   C     0.83325   0.29084   0.75008   0.00000  Uiso   1.00
C863   C     0.98699   0.13911   0.72245   0.00000  Uiso   1.00
C864   C     0.67968   0.19423   0.77755   0.00000  Uiso   1.00
C865   C     0.70219   0.13980   0.72211   0.00000  Uiso   1.00
C866   C     0.96447   0.19353   0.77789   0.00000  Uiso   1.00
H867   H     0.73041   0.11923   0.69938   0.00000  Uiso   1.00
H868   H     0.93626   0.21410   0.80061   0.00000  Uiso   1.00
N869   N     0.71426   0.16668   0.75001   0.00000  Uiso   1.00
N870   N     0.95241   0.16666   0.74999   0.00000  Uiso   1.00
C871   C     0.69842   0.12341   0.56407   0.00000  Uiso   1.00
N872   N     0.99442   0.11094   0.59001   0.00000  Uiso   1.00
C873   C     0.96825   0.20992   0.93593   0.00000  Uiso   1.00
N874   N     0.67225   0.22239   0.90999   0.00000  Uiso   1.00
C875   C     0.67928   0.11224   0.98269   0.00000  Uiso   1.00
N876   N     0.97583   0.09459   0.99975   0.00000  Uiso   1.00
C877   C     0.98739   0.22109   0.51731   0.00000  Uiso   1.00
N878   N     0.69084   0.23874   0.50024   0.00000  Uiso   1.00
O879   O     0.97412   0.11308   0.69337   0.00000  Uiso   1.00
C880   C     0.99109   0.07200   0.69384   0.00000  Uiso   1.00
H881   H     0.98664   0.06174   0.72951   0.00000  Uiso   1.00
H882   H     0.69658   0.06880   0.66898   0.00000  Uiso   1.00
H883   H     0.96893   0.05067   0.68177   0.00000  Uiso   1.00
O884   O     0.69256   0.22026   0.80662   0.00000  Uiso   1.00
C885   C     0.67552   0.26132   0.80621   0.00000  Uiso   1.00
H886   H     0.97005   0.26449   0.83112   0.00000  Uiso   1.00
H887   H     0.67991   0.27161   0.77057   0.00000  Uiso   1.00
H888   H     0.69769   0.28266   0.81826   0.00000  Uiso   1.00
O889   O     0.12846   0.56108   0.75000   0.00000  Uiso   1.00
O890   O     0.20488   0.43892   0.74999   0.00000  Uiso   1.00
O891   O     0.20490   0.56107   0.75000   0.00000  Uiso   1.00
O892   O     0.12843   0.43893   0.75000   0.00000  Uiso   1.00
C893   C     0.16662   0.58003   0.75006   0.00000  Uiso   1.00
C894   C     0.16671   0.41997   0.74994   0.00000  Uiso   1.00
O895   O     0.10661   0.50001   0.81612   0.00000  Uiso   1.00
O896   O     0.22672   0.49999   0.68387   0.00000  Uiso   1.00
O897   O     0.18305   0.50000   0.81612   0.00000  Uiso   1.00
O898   O     0.15028   0.50000   0.68388   0.00000  Uiso   1.00
C899   C     0.13584   0.49994   0.83804   0.00000  Uiso   1.00
C900   C     0.19749   0.50006   0.66196   0.00000  Uiso   1.00
Zn901  Zn    0.11562   0.50001   0.75000   0.00000  Uiso   1.00
Zn902  Zn    0.21771   0.49999   0.75000   0.00000  Uiso   1.00
C903   C     0.11613   0.49669   0.88869   0.00000  Uiso   1.00
C904   C     0.21720   0.50331   0.61131   0.00000  Uiso   1.00
C905   C     0.05846   0.46759   0.96074   0.00000  Uiso   1.00
C906   C     0.27487   0.53241   0.53926   0.00000  Uiso   1.00
C907   C     0.07250   0.47586   0.91321   0.00000  Uiso   1.00
C908   C     0.26083   0.52414   0.58679   0.00000  Uiso   1.00
C909   C     0.14551   0.51001   0.91135   0.00000  Uiso   1.00
C910   C     0.18782   0.48999   0.58865   0.00000  Uiso   1.00
C911   C     0.13642   0.49782   0.95710   0.00000  Uiso   1.00
C912   C     0.19692   0.50217   0.54290   0.00000  Uiso   1.00
C913   C     0.09038   0.47866   0.98381   0.00000  Uiso   1.00
C914   C     0.24295   0.52134   0.51619   0.00000  Uiso   1.00
C915   C     0.17254   0.50429   0.97625   0.00000  Uiso   1.00
C916   C     0.16080   0.49571   0.52375   0.00000  Uiso   1.00
C917   C     0.11263   0.48221   0.55130   0.00000  Uiso   1.00
C918   C     0.22070   0.51779   0.94869   0.00000  Uiso   1.00
C919   C     0.07863   0.47225   0.53202   0.00000  Uiso   1.00
C920   C     0.25470   0.52775   0.96798   0.00000  Uiso   1.00
H921   H     0.15716   0.47050   0.60833   0.00000  Uiso   1.00
H922   H     0.17617   0.52950   0.89167   0.00000  Uiso   1.00
H923   H     0.28348   0.53473   0.60499   0.00000  Uiso   1.00
H924   H     0.04986   0.46527   0.89501   0.00000  Uiso   1.00
H925   H     0.09969   0.47963   0.58877   0.00000  Uiso   1.00
H926   H     0.23364   0.52037   0.91123   0.00000  Uiso   1.00
C927   C     0.20066   0.64528   0.76305   0.00000  Uiso   1.00
C928   C     0.13267   0.35472   0.73696   0.00000  Uiso   1.00
H929   H     0.22682   0.62892   0.77357   0.00000  Uiso   1.00
H930   H     0.10651   0.37108   0.72644   0.00000  Uiso   1.00
C931   C     0.20071   0.35461   0.76299   0.00000  Uiso   1.00
C932   C     0.13262   0.64539   0.73702   0.00000  Uiso   1.00
H933   H     0.22682   0.37089   0.77355   0.00000  Uiso   1.00
H934   H     0.10650   0.62911   0.72647   0.00000  Uiso   1.00
C935   C     0.16674   0.37583   0.74992   0.00000  Uiso   1.00
C936   C     0.16659   0.62417   0.75008   0.00000  Uiso   1.00
C937   C     0.32032   0.47244   0.72245   0.00000  Uiso   1.00
C938   C     0.01301   0.52756   0.77755   0.00000  Uiso   1.00
C939   C     0.03553   0.47314   0.72211   0.00000  Uiso   1.00
C940   C     0.29780   0.52686   0.77789   0.00000  Uiso   1.00
H941   H     0.06374   0.45256   0.69938   0.00000  Uiso   1.00
H942   H     0.26959   0.54744   0.80061   0.00000  Uiso   1.00
N943   N     0.04759   0.50001   0.75001   0.00000  Uiso   1.00
N944   N     0.28574   0.49999   0.74999   0.00000  Uiso   1.00
C945   C     0.03175   0.45675   0.56407   0.00000  Uiso   1.00
N946   N     0.32775   0.44427   0.59001   0.00000  Uiso   1.00
C947   C     0.30158   0.54325   0.93593   0.00000  Uiso   1.00
N948   N     0.00558   0.55572   0.90999   0.00000  Uiso   1.00
C949   C     0.01261   0.44558   0.98269   0.00000  Uiso   1.00
N950   N     0.30916   0.42792   0.99975   0.00000  Uiso   1.00
C951   C     0.32072   0.55442   0.51731   0.00000  Uiso   1.00
N952   N     0.02417   0.57208   0.50024   0.00000  Uiso   1.00
O953   O     0.30745   0.44641   0.69337   0.00000  Uiso   1.00
C954   C     0.32443   0.40534   0.69384   0.00000  Uiso   1.00
H955   H     0.31998   0.39507   0.72951   0.00000  Uiso   1.00
H956   H     0.02991   0.40213   0.66898   0.00000  Uiso   1.00
H957   H     0.30226   0.38401   0.68177   0.00000  Uiso   1.00
O958   O     0.02589   0.55359   0.80662   0.00000  Uiso   1.00
C959   C     0.00886   0.59466   0.80621   0.00000  Uiso   1.00
H960   H     0.30338   0.59782   0.83112   0.00000  Uiso   1.00
H961   H     0.01324   0.60494   0.77057   0.00000  Uiso   1.00
H962   H     0.03102   0.61600   0.81826   0.00000  Uiso   1.00
O963   O     0.46179   0.56108   0.75000   0.00000  Uiso   1.00
O964   O     0.53821   0.43892   0.74999   0.00000  Uiso   1.00
O965   O     0.53823   0.56107   0.75000   0.00000  Uiso   1.00
O966   O     0.46177   0.43893   0.75000   0.00000  Uiso   1.00
C967   C     0.49995   0.58003   0.75006   0.00000  Uiso   1.00
C968   C     0.50005   0.41997   0.74994   0.00000  Uiso   1.00
O969   O     0.43994   0.50001   0.81612   0.00000  Uiso   1.00
O970   O     0.56006   0.49999   0.68387   0.00000  Uiso   1.00
O971   O     0.51639   0.50000   0.81612   0.00000  Uiso   1.00
O972   O     0.48361   0.50000   0.68388   0.00000  Uiso   1.00
C973   C     0.46917   0.49994   0.83804   0.00000  Uiso   1.00
C974   C     0.53083   0.50006   0.66196   0.00000  Uiso   1.00
Zn975  Zn    0.44896   0.50001   0.75000   0.00000  Uiso   1.00
Zn976  Zn    0.55104   0.49999   0.75000   0.00000  Uiso   1.00
C977   C     0.44946   0.49669   0.88869   0.00000  Uiso   1.00
C978   C     0.55053   0.50331   0.61131   0.00000  Uiso   1.00
C979   C     0.39180   0.46759   0.96074   0.00000  Uiso   1.00
C980   C     0.60820   0.53241   0.53926   0.00000  Uiso   1.00
C981   C     0.40584   0.47586   0.91321   0.00000  Uiso   1.00
C982   C     0.59416   0.52414   0.58679   0.00000  Uiso   1.00
C983   C     0.47885   0.51001   0.91135   0.00000  Uiso   1.00
C984   C     0.52115   0.48999   0.58865   0.00000  Uiso   1.00
C985   C     0.46975   0.49782   0.95710   0.00000  Uiso   1.00
C986   C     0.53025   0.50217   0.54290   0.00000  Uiso   1.00
C987   C     0.42372   0.47866   0.98381   0.00000  Uiso   1.00
C988   C     0.57628   0.52134   0.51619   0.00000  Uiso   1.00
C989   C     0.50587   0.50429   0.97625   0.00000  Uiso   1.00
C990   C     0.49413   0.49571   0.52375   0.00000  Uiso   1.00
C991   C     0.44596   0.48221   0.55130   0.00000  Uiso   1.00
C992   C     0.55404   0.51779   0.94869   0.00000  Uiso   1.00
C993   C     0.41196   0.47225   0.53202   0.00000  Uiso   1.00
C994   C     0.58804   0.52775   0.96798   0.00000  Uiso   1.00
H995   H     0.49050   0.47050   0.60833   0.00000  Uiso   1.00
H996   H     0.50950   0.52950   0.89167   0.00000  Uiso   1.00
H997   H     0.61681   0.53473   0.60499   0.00000  Uiso   1.00
H998   H     0.38319   0.46527   0.89501   0.00000  Uiso   1.00
H999   H     0.43302   0.47963   0.58877   0.00000  Uiso   1.00
H1000  H     0.56698   0.52037   0.91123   0.00000  Uiso   1.00
C1001  C     0.53399   0.64528   0.76305   0.00000  Uiso   1.00
C1002  C     0.46601   0.35472   0.73696   0.00000  Uiso   1.00
H1003  H     0.56015   0.62892   0.77357   0.00000  Uiso   1.00
H1004  H     0.43984   0.37108   0.72644   0.00000  Uiso   1.00
C1005  C     0.53404   0.35461   0.76299   0.00000  Uiso   1.00
C1006  C     0.46595   0.64539   0.73702   0.00000  Uiso   1.00
H1007  H     0.56015   0.37089   0.77355   0.00000  Uiso   1.00
H1008  H     0.43984   0.62911   0.72647   0.00000  Uiso   1.00
C1009  C     0.50007   0.37583   0.74992   0.00000  Uiso   1.00
C1010  C     0.49992   0.62417   0.75008   0.00000  Uiso   1.00
C1011  C     0.65366   0.47244   0.72245   0.00000  Uiso   1.00
C1012  C     0.34634   0.52756   0.77755   0.00000  Uiso   1.00
C1013  C     0.36886   0.47314   0.72211   0.00000  Uiso   1.00
C1014  C     0.63114   0.52686   0.77789   0.00000  Uiso   1.00
H1015  H     0.39707   0.45256   0.69938   0.00000  Uiso   1.00
H1016  H     0.60292   0.54744   0.80061   0.00000  Uiso   1.00
N1017  N     0.38093   0.50001   0.75001   0.00000  Uiso   1.00
N1018  N     0.61907   0.49999   0.74999   0.00000  Uiso   1.00
C1019  C     0.36509   0.45675   0.56407   0.00000  Uiso   1.00
N1020  N     0.66108   0.44427   0.59001   0.00000  Uiso   1.00
C1021  C     0.63492   0.54325   0.93593   0.00000  Uiso   1.00
N1022  N     0.33892   0.55572   0.90999   0.00000  Uiso   1.00
C1023  C     0.34595   0.44558   0.98269   0.00000  Uiso   1.00
N1024  N     0.64249   0.42792   0.99975   0.00000  Uiso   1.00
C1025  C     0.65406   0.55442   0.51731   0.00000  Uiso   1.00
N1026  N     0.35751   0.57208   0.50024   0.00000  Uiso   1.00
O1027  O     0.64078   0.44641   0.69337   0.00000  Uiso   1.00
C1028  C     0.65776   0.40534   0.69384   0.00000  Uiso   1.00
H1029  H     0.65331   0.39507   0.72951   0.00000  Uiso   1.00
H1030  H     0.36325   0.40213   0.66898   0.00000  Uiso   1.00
H1031  H     0.63560   0.38401   0.68177   0.00000  Uiso   1.00
O1032  O     0.35923   0.55359   0.80662   0.00000  Uiso   1.00
C1033  C     0.34219   0.59466   0.80621   0.00000  Uiso   1.00
H1034  H     0.63671   0.59782   0.83112   0.00000  Uiso   1.00
H1035  H     0.34657   0.60494   0.77057   0.00000  Uiso   1.00
H1036  H     0.36436   0.61600   0.81826   0.00000  Uiso   1.00
O1037  O     0.79512   0.56108   0.75000   0.00000  Uiso   1.00
O1038  O     0.87154   0.43892   0.74999   0.00000  Uiso   1.00
O1039  O     0.87157   0.56107   0.75000   0.00000  Uiso   1.00
O1040  O     0.79510   0.43893   0.75000   0.00000  Uiso   1.00
C1041  C     0.83329   0.58003   0.75006   0.00000  Uiso   1.00
C1042  C     0.83338   0.41997   0.74994   0.00000  Uiso   1.00
O1043  O     0.77328   0.50001   0.81612   0.00000  Uiso   1.00
O1044  O     0.89339   0.49999   0.68387   0.00000  Uiso   1.00
O1045  O     0.84972   0.50000   0.81612   0.00000  Uiso   1.00
O1046  O     0.81695   0.50000   0.68388   0.00000  Uiso   1.00
C1047  C     0.80251   0.49994   0.83804   0.00000  Uiso   1.00
C1048  C     0.86416   0.50006   0.66196   0.00000  Uiso   1.00
Zn1049 Zn    0.78229   0.50001   0.75000   0.00000  Uiso   1.00
Zn1050 Zn    0.88438   0.49999   0.75000   0.00000  Uiso   1.00
C1051  C     0.78280   0.49669   0.88869   0.00000  Uiso   1.00
C1052  C     0.88387   0.50331   0.61131   0.00000  Uiso   1.00
C1053  C     0.72513   0.46759   0.96074   0.00000  Uiso   1.00
C1054  C     0.94154   0.53241   0.53926   0.00000  Uiso   1.00
C1055  C     0.73917   0.47586   0.91321   0.00000  Uiso   1.00
C1056  C     0.92750   0.52414   0.58679   0.00000  Uiso   1.00
C1057  C     0.81218   0.51001   0.91135   0.00000  Uiso   1.00
C1058  C     0.85449   0.48999   0.58865   0.00000  Uiso   1.00
C1059  C     0.80308   0.49782   0.95710   0.00000  Uiso   1.00
C1060  C     0.86358   0.50217   0.54290   0.00000  Uiso   1.00
C1061  C     0.75705   0.47866   0.98381   0.00000  Uiso   1.00
C1062  C     0.90962   0.52134   0.51619   0.00000  Uiso   1.00
C1063  C     0.83920   0.50429   0.97625   0.00000  Uiso   1.00
C1064  C     0.82746   0.49571   0.52375   0.00000  Uiso   1.00
C1065  C     0.77930   0.48221   0.55130   0.00000  Uiso   1.00
C1066  C     0.88737   0.51779   0.94869   0.00000  Uiso   1.00
C1067  C     0.74530   0.47225   0.53202   0.00000  Uiso   1.00
C1068  C     0.92137   0.52775   0.96798   0.00000  Uiso   1.00
H1069  H     0.82383   0.47050   0.60833   0.00000  Uiso   1.00
H1070  H     0.84284   0.52950   0.89167   0.00000  Uiso   1.00
H1071  H     0.95014   0.53473   0.60499   0.00000  Uiso   1.00
H1072  H     0.71652   0.46527   0.89501   0.00000  Uiso   1.00
H1073  H     0.76636   0.47963   0.58877   0.00000  Uiso   1.00
H1074  H     0.90031   0.52037   0.91123   0.00000  Uiso   1.00
C1075  C     0.86732   0.64528   0.76305   0.00000  Uiso   1.00
C1076  C     0.79934   0.35472   0.73696   0.00000  Uiso   1.00
H1077  H     0.89348   0.62892   0.77357   0.00000  Uiso   1.00
H1078  H     0.77318   0.37108   0.72644   0.00000  Uiso   1.00
C1079  C     0.86737   0.35461   0.76299   0.00000  Uiso   1.00
C1080  C     0.79929   0.64539   0.73702   0.00000  Uiso   1.00
H1081  H     0.89349   0.37089   0.77355   0.00000  Uiso   1.00
H1082  H     0.77317   0.62911   0.72647   0.00000  Uiso   1.00
C1083  C     0.83341   0.37583   0.74992   0.00000  Uiso   1.00
C1084  C     0.83325   0.62417   0.75008   0.00000  Uiso   1.00
C1085  C     0.98699   0.47244   0.72245   0.00000  Uiso   1.00
C1086  C     0.67968   0.52756   0.77755   0.00000  Uiso   1.00
C1087  C     0.70219   0.47314   0.72211   0.00000  Uiso   1.00
C1088  C     0.96447   0.52686   0.77789   0.00000  Uiso   1.00
H1089  H     0.73041   0.45256   0.69938   0.00000  Uiso   1.00
H1090  H     0.93626   0.54744   0.80061   0.00000  Uiso   1.00
N1091  N     0.71426   0.50001   0.75001   0.00000  Uiso   1.00
N1092  N     0.95241   0.49999   0.74999   0.00000  Uiso   1.00
C1093  C     0.69842   0.45675   0.56407   0.00000  Uiso   1.00
N1094  N     0.99442   0.44427   0.59001   0.00000  Uiso   1.00
C1095  C     0.96825   0.54325   0.93593   0.00000  Uiso   1.00
N1096  N     0.67225   0.55572   0.90999   0.00000  Uiso   1.00
C1097  C     0.67928   0.44558   0.98269   0.00000  Uiso   1.00
N1098  N     0.97583   0.42792   0.99975   0.00000  Uiso   1.00
C1099  C     0.98739   0.55442   0.51731   0.00000  Uiso   1.00
N1100  N     0.69084   0.57208   0.50024   0.00000  Uiso   1.00
O1101  O     0.97412   0.44641   0.69337   0.00000  Uiso   1.00
C1102  C     0.99109   0.40534   0.69384   0.00000  Uiso   1.00
H1103  H     0.98664   0.39507   0.72951   0.00000  Uiso   1.00
H1104  H     0.69658   0.40213   0.66898   0.00000  Uiso   1.00
H1105  H     0.96893   0.38401   0.68177   0.00000  Uiso   1.00
O1106  O     0.69256   0.55359   0.80662   0.00000  Uiso   1.00
C1107  C     0.67552   0.59466   0.80621   0.00000  Uiso   1.00
H1108  H     0.97005   0.59782   0.83112   0.00000  Uiso   1.00
H1109  H     0.67991   0.60494   0.77057   0.00000  Uiso   1.00
H1110  H     0.69769   0.61600   0.81826   0.00000  Uiso   1.00
O1111  O     0.12846   0.89442   0.75000   0.00000  Uiso   1.00
O1112  O     0.20488   0.77225   0.74999   0.00000  Uiso   1.00
O1113  O     0.20490   0.89441   0.75000   0.00000  Uiso   1.00
O1114  O     0.12843   0.77226   0.75000   0.00000  Uiso   1.00
C1115  C     0.16662   0.91336   0.75006   0.00000  Uiso   1.00
C1116  C     0.16671   0.75330   0.74994   0.00000  Uiso   1.00
O1117  O     0.10661   0.83334   0.81612   0.00000  Uiso   1.00
O1118  O     0.22672   0.83333   0.68387   0.00000  Uiso   1.00
O1119  O     0.18305   0.83333   0.81612   0.00000  Uiso   1.00
O1120  O     0.15028   0.83334   0.68388   0.00000  Uiso   1.00
C1121  C     0.13584   0.83328   0.83804   0.00000  Uiso   1.00
C1122  C     0.19749   0.83339   0.66196   0.00000  Uiso   1.00
Zn1123 Zn    0.11562   0.83334   0.75000   0.00000  Uiso   1.00
Zn1124 Zn    0.21771   0.83333   0.75000   0.00000  Uiso   1.00
C1125  C     0.11613   0.83003   0.88869   0.00000  Uiso   1.00
C1126  C     0.21720   0.83664   0.61131   0.00000  Uiso   1.00
C1127  C     0.05846   0.80092   0.96074   0.00000  Uiso   1.00
C1128  C     0.27487   0.86574   0.53926   0.00000  Uiso   1.00
C1129  C     0.07250   0.80920   0.91321   0.00000  Uiso   1.00
C1130  C     0.26083   0.85747   0.58679   0.00000  Uiso   1.00
C1131  C     0.14551   0.84334   0.91135   0.00000  Uiso   1.00
C1132  C     0.18782   0.82333   0.58865   0.00000  Uiso   1.00
C1133  C     0.13642   0.83116   0.95710   0.00000  Uiso   1.00
C1134  C     0.19692   0.83551   0.54290   0.00000  Uiso   1.00
C1135  C     0.09038   0.81199   0.98381   0.00000  Uiso   1.00
C1136  C     0.24295   0.85467   0.51619   0.00000  Uiso   1.00
C1137  C     0.17254   0.83762   0.97625   0.00000  Uiso   1.00
C1138  C     0.16080   0.82904   0.52375   0.00000  Uiso   1.00
C1139  C     0.11263   0.81554   0.55130   0.00000  Uiso   1.00
C1140  C     0.22070   0.85112   0.94869   0.00000  Uiso   1.00
C1141  C     0.07863   0.80558   0.53202   0.00000  Uiso   1.00
C1142  C     0.25470   0.86108   0.96798   0.00000  Uiso   1.00
H1143  H     0.15716   0.80383   0.60833   0.00000  Uiso   1.00
H1144  H     0.17617   0.86284   0.89167   0.00000  Uiso   1.00
H1145  H     0.28348   0.86806   0.60499   0.00000  Uiso   1.00
H1146  H     0.04986   0.79861   0.89501   0.00000  Uiso   1.00
H1147  H     0.09969   0.81296   0.58877   0.00000  Uiso   1.00
H1148  H     0.23364   0.85370   0.91123   0.00000  Uiso   1.00
C1149  C     0.20066   0.97861   0.76305   0.00000  Uiso   1.00
C1150  C     0.13267   0.68806   0.73696   0.00000  Uiso   1.00
H1151  H     0.22682   0.96225   0.77357   0.00000  Uiso   1.00
H1152  H     0.10651   0.70441   0.72644   0.00000  Uiso   1.00
C1153  C     0.20071   0.68795   0.76299   0.00000  Uiso   1.00
C1154  C     0.13262   0.97872   0.73702   0.00000  Uiso   1.00
H1155  H     0.22682   0.70422   0.77355   0.00000  Uiso   1.00
H1156  H     0.10650   0.96245   0.72647   0.00000  Uiso   1.00
C1157  C     0.16674   0.70916   0.74992   0.00000  Uiso   1.00
C1158  C     0.16659   0.95751   0.75008   0.00000  Uiso   1.00
C1159  C     0.32032   0.80577   0.72245   0.00000  Uiso   1.00
C1160  C     0.01301   0.86090   0.77755   0.00000  Uiso   1.00
C1161  C     0.03553   0.80647   0.72211   0.00000  Uiso   1.00
C1162  C     0.29780   0.86020   0.77789   0.00000  Uiso   1.00
H1163  H     0.06374   0.78590   0.69938   0.00000  Uiso   1.00
H1164  H     0.26959   0.88077   0.80061   0.00000  Uiso   1.00
N1165  N     0.04759   0.83334   0.75001   0.00000  Uiso   1.00
N1166  N     0.28574   0.83332   0.74999   0.00000  Uiso   1.00
C1167  C     0.03175   0.79008   0.56407   0.00000  Uiso   1.00
N1168  N     0.32775   0.77760   0.59001   0.00000  Uiso   1.00
C1169  C     0.30158   0.87658   0.93593   0.00000  Uiso   1.00
N1170  N     0.00558   0.88906   0.90999   0.00000  Uiso   1.00
C1171  C     0.01261   0.77891   0.98269   0.00000  Uiso   1.00
N1172  N     0.30916   0.76125   0.99975   0.00000  Uiso   1.00
C1173  C     0.32072   0.88775   0.51731   0.00000  Uiso   1.00
N1174  N     0.02417   0.90541   0.50024   0.00000  Uiso   1.00
O1175  O     0.30745   0.77975   0.69337   0.00000  Uiso   1.00
C1176  C     0.32443   0.73867   0.69384   0.00000  Uiso   1.00
H1177  H     0.31998   0.72840   0.72951   0.00000  Uiso   1.00
H1178  H     0.02991   0.73547   0.66898   0.00000  Uiso   1.00
H1179  H     0.30226   0.71734   0.68177   0.00000  Uiso   1.00
O1180  O     0.02589   0.88692   0.80662   0.00000  Uiso   1.00
C1181  C     0.00886   0.92799   0.80621   0.00000  Uiso   1.00
H1182  H     0.30338   0.93116   0.83112   0.00000  Uiso   1.00
H1183  H     0.01324   0.93827   0.77057   0.00000  Uiso   1.00
H1184  H     0.03102   0.94933   0.81826   0.00000  Uiso   1.00
O1185  O     0.46179   0.89442   0.75000   0.00000  Uiso   1.00
O1186  O     0.53821   0.77225   0.74999   0.00000  Uiso   1.00
O1187  O     0.53823   0.89441   0.75000   0.00000  Uiso   1.00
O1188  O     0.46177   0.77226   0.75000   0.00000  Uiso   1.00
C1189  C     0.49995   0.91336   0.75006   0.00000  Uiso   1.00
C1190  C     0.50005   0.75330   0.74994   0.00000  Uiso   1.00
O1191  O     0.43994   0.83334   0.81612   0.00000  Uiso   1.00
O1192  O     0.56006   0.83333   0.68387   0.00000  Uiso   1.00
O1193  O     0.51639   0.83333   0.81612   0.00000  Uiso   1.00
O1194  O     0.48361   0.83334   0.68388   0.00000  Uiso   1.00
C1195  C     0.46917   0.83328   0.83804   0.00000  Uiso   1.00
C1196  C     0.53083   0.83339   0.66196   0.00000  Uiso   1.00
Zn1197 Zn    0.44896   0.83334   0.75000   0.00000  Uiso   1.00
Zn1198 Zn    0.55104   0.83333   0.75000   0.00000  Uiso   1.00
C1199  C     0.44946   0.83003   0.88869   0.00000  Uiso   1.00
C1200  C     0.55053   0.83664   0.61131   0.00000  Uiso   1.00
C1201  C     0.39180   0.80092   0.96074   0.00000  Uiso   1.00
C1202  C     0.60820   0.86574   0.53926   0.00000  Uiso   1.00
C1203  C     0.40584   0.80920   0.91321   0.00000  Uiso   1.00
C1204  C     0.59416   0.85747   0.58679   0.00000  Uiso   1.00
C1205  C     0.47885   0.84334   0.91135   0.00000  Uiso   1.00
C1206  C     0.52115   0.82333   0.58865   0.00000  Uiso   1.00
C1207  C     0.46975   0.83116   0.95710   0.00000  Uiso   1.00
C1208  C     0.53025   0.83551   0.54290   0.00000  Uiso   1.00
C1209  C     0.42372   0.81199   0.98381   0.00000  Uiso   1.00
C1210  C     0.57628   0.85467   0.51619   0.00000  Uiso   1.00
C1211  C     0.50587   0.83762   0.97625   0.00000  Uiso   1.00
C1212  C     0.49413   0.82904   0.52375   0.00000  Uiso   1.00
C1213  C     0.44596   0.81554   0.55130   0.00000  Uiso   1.00
C1214  C     0.55404   0.85112   0.94869   0.00000  Uiso   1.00
C1215  C     0.41196   0.80558   0.53202   0.00000  Uiso   1.00
C1216  C     0.58804   0.86108   0.96798   0.00000  Uiso   1.00
H1217  H     0.49050   0.80383   0.60833   0.00000  Uiso   1.00
H1218  H     0.50950   0.86284   0.89167   0.00000  Uiso   1.00
H1219  H     0.61681   0.86806   0.60499   0.00000  Uiso   1.00
H1220  H     0.38319   0.79861   0.89501   0.00000  Uiso   1.00
H1221  H     0.43302   0.81296   0.58877   0.00000  Uiso   1.00
H1222  H     0.56698   0.85370   0.91123   0.00000  Uiso   1.00
C1223  C     0.53399   0.97861   0.76305   0.00000  Uiso   1.00
C1224  C     0.46601   0.68806   0.73696   0.00000  Uiso   1.00
H1225  H     0.56015   0.96225   0.77357   0.00000  Uiso   1.00
H1226  H     0.43984   0.70441   0.72644   0.00000  Uiso   1.00
C1227  C     0.53404   0.68795   0.76299   0.00000  Uiso   1.00
C1228  C     0.46595   0.97872   0.73702   0.00000  Uiso   1.00
H1229  H     0.56015   0.70422   0.77355   0.00000  Uiso   1.00
H1230  H     0.43984   0.96245   0.72647   0.00000  Uiso   1.00
C1231  C     0.50007   0.70916   0.74992   0.00000  Uiso   1.00
C1232  C     0.49992   0.95751   0.75008   0.00000  Uiso   1.00
C1233  C     0.65366   0.80577   0.72245   0.00000  Uiso   1.00
C1234  C     0.34634   0.86090   0.77755   0.00000  Uiso   1.00
C1235  C     0.36886   0.80647   0.72211   0.00000  Uiso   1.00
C1236  C     0.63114   0.86020   0.77789   0.00000  Uiso   1.00
H1237  H     0.39707   0.78590   0.69938   0.00000  Uiso   1.00
H1238  H     0.60292   0.88077   0.80061   0.00000  Uiso   1.00
N1239  N     0.38093   0.83334   0.75001   0.00000  Uiso   1.00
N1240  N     0.61907   0.83332   0.74999   0.00000  Uiso   1.00
C1241  C     0.36509   0.79008   0.56407   0.00000  Uiso   1.00
N1242  N     0.66108   0.77760   0.59001   0.00000  Uiso   1.00
C1243  C     0.63492   0.87658   0.93593   0.00000  Uiso   1.00
N1244  N     0.33892   0.88906   0.90999   0.00000  Uiso   1.00
C1245  C     0.34595   0.77891   0.98269   0.00000  Uiso   1.00
N1246  N     0.64249   0.76125   0.99975   0.00000  Uiso   1.00
C1247  C     0.65406   0.88775   0.51731   0.00000  Uiso   1.00
N1248  N     0.35751   0.90541   0.50024   0.00000  Uiso   1.00
O1249  O     0.64078   0.77975   0.69337   0.00000  Uiso   1.00
C1250  C     0.65776   0.73867   0.69384   0.00000  Uiso   1.00
H1251  H     0.65331   0.72840   0.72951   0.00000  Uiso   1.00
H1252  H     0.36325   0.73547   0.66898   0.00000  Uiso   1.00
H1253  H     0.63560   0.71734   0.68177   0.00000  Uiso   1.00
O1254  O     0.35923   0.88692   0.80662   0.00000  Uiso   1.00
C1255  C     0.34219   0.92799   0.80621   0.00000  Uiso   1.00
H1256  H     0.63671   0.93116   0.83112   0.00000  Uiso   1.00
H1257  H     0.34657   0.93827   0.77057   0.00000  Uiso   1.00
H1258  H     0.36436   0.94933   0.81826   0.00000  Uiso   1.00
O1259  O     0.79512   0.89442   0.75000   0.00000  Uiso   1.00
O1260  O     0.87154   0.77225   0.74999   0.00000  Uiso   1.00
O1261  O     0.87157   0.89441   0.75000   0.00000  Uiso   1.00
O1262  O     0.79510   0.77226   0.75000   0.00000  Uiso   1.00
C1263  C     0.83329   0.91336   0.75006   0.00000  Uiso   1.00
C1264  C     0.83338   0.75330   0.74994   0.00000  Uiso   1.00
O1265  O     0.77328   0.83334   0.81612   0.00000  Uiso   1.00
O1266  O     0.89339   0.83333   0.68387   0.00000  Uiso   1.00
O1267  O     0.84972   0.83333   0.81612   0.00000  Uiso   1.00
O1268  O     0.81695   0.83334   0.68388   0.00000  Uiso   1.00
C1269  C     0.80251   0.83328   0.83804   0.00000  Uiso   1.00
C1270  C     0.86416   0.83339   0.66196   0.00000  Uiso   1.00
Zn1271 Zn    0.78229   0.83334   0.75000   0.00000  Uiso   1.00
Zn1272 Zn    0.88438   0.83333   0.75000   0.00000  Uiso   1.00
C1273  C     0.78280   0.83003   0.88869   0.00000  Uiso   1.00
C1274  C     0.88387   0.83664   0.61131   0.00000  Uiso   1.00
C1275  C     0.72513   0.80092   0.96074   0.00000  Uiso   1.00
C1276  C     0.94154   0.86574   0.53926   0.00000  Uiso   1.00
C1277  C     0.73917   0.80920   0.91321   0.00000  Uiso   1.00
C1278  C     0.92750   0.85747   0.58679   0.00000  Uiso   1.00
C1279  C     0.81218   0.84334   0.91135   0.00000  Uiso   1.00
C1280  C     0.85449   0.82333   0.58865   0.00000  Uiso   1.00
C1281  C     0.80308   0.83116   0.95710   0.00000  Uiso   1.00
C1282  C     0.86358   0.83551   0.54290   0.00000  Uiso   1.00
C1283  C     0.75705   0.81199   0.98381   0.00000  Uiso   1.00
C1284  C     0.90962   0.85467   0.51619   0.00000  Uiso   1.00
C1285  C     0.83920   0.83762   0.97625   0.00000  Uiso   1.00
C1286  C     0.82746   0.82904   0.52375   0.00000  Uiso   1.00
C1287  C     0.77930   0.81554   0.55130   0.00000  Uiso   1.00
C1288  C     0.88737   0.85112   0.94869   0.00000  Uiso   1.00
C1289  C     0.74530   0.80558   0.53202   0.00000  Uiso   1.00
C1290  C     0.92137   0.86108   0.96798   0.00000  Uiso   1.00
H1291  H     0.82383   0.80383   0.60833   0.00000  Uiso   1.00
H1292  H     0.84284   0.86284   0.89167   0.00000  Uiso   1.00
H1293  H     0.95014   0.86806   0.60499   0.00000  Uiso   1.00
H1294  H     0.71652   0.79861   0.89501   0.00000  Uiso   1.00
H1295  H     0.76636   0.81296   0.58877   0.00000  Uiso   1.00
H1296  H     0.90031   0.85370   0.91123   0.00000  Uiso   1.00
C1297  C     0.86732   0.97861   0.76305   0.00000  Uiso   1.00
C1298  C     0.79934   0.68806   0.73696   0.00000  Uiso   1.00
H1299  H     0.89348   0.96225   0.77357   0.00000  Uiso   1.00
H1300  H     0.77318   0.70441   0.72644   0.00000  Uiso   1.00
C1301  C     0.86737   0.68795   0.76299   0.00000  Uiso   1.00
C1302  C     0.79929   0.97872   0.73702   0.00000  Uiso   1.00
H1303  H     0.89349   0.70422   0.77355   0.00000  Uiso   1.00
H1304  H     0.77317   0.96245   0.72647   0.00000  Uiso   1.00
C1305  C     0.83341   0.70916   0.74992   0.00000  Uiso   1.00
C1306  C     0.83325   0.95751   0.75008   0.00000  Uiso   1.00
C1307  C     0.98699   0.80577   0.72245   0.00000  Uiso   1.00
C1308  C     0.67968   0.86090   0.77755   0.00000  Uiso   1.00
C1309  C     0.70219   0.80647   0.72211   0.00000  Uiso   1.00
C1310  C     0.96447   0.86020   0.77789   0.00000  Uiso   1.00
H1311  H     0.73041   0.78590   0.69938   0.00000  Uiso   1.00
H1312  H     0.93626   0.88077   0.80061   0.00000  Uiso   1.00
N1313  N     0.71426   0.83334   0.75001   0.00000  Uiso   1.00
N1314  N     0.95241   0.83332   0.74999   0.00000  Uiso   1.00
C1315  C     0.69842   0.79008   0.56407   0.00000  Uiso   1.00
N1316  N     0.99442   0.77760   0.59001   0.00000  Uiso   1.00
C1317  C     0.96825   0.87658   0.93593   0.00000  Uiso   1.00
N1318  N     0.67225   0.88906   0.90999   0.00000  Uiso   1.00
C1319  C     0.67928   0.77891   0.98269   0.00000  Uiso   1.00
N1320  N     0.97583   0.76125   0.99975   0.00000  Uiso   1.00
C1321  C     0.98739   0.88775   0.51731   0.00000  Uiso   1.00
N1322  N     0.69084   0.90541   0.50024   0.00000  Uiso   1.00
O1323  O     0.97412   0.77975   0.69337   0.00000  Uiso   1.00
C1324  C     0.99109   0.73867   0.69384   0.00000  Uiso   1.00
H1325  H     0.98664   0.72840   0.72951   0.00000  Uiso   1.00
H1326  H     0.69658   0.73547   0.66898   0.00000  Uiso   1.00
H1327  H     0.96893   0.71734   0.68177   0.00000  Uiso   1.00
O1328  O     0.69256   0.88692   0.80662   0.00000  Uiso   1.00
C1329  C     0.67552   0.92799   0.80621   0.00000  Uiso   1.00
H1330  H     0.97005   0.93116   0.83112   0.00000  Uiso   1.00
H1331  H     0.67991   0.93827   0.77057   0.00000  Uiso   1.00
H1332  H     0.69769   0.94933   0.81826   0.00000  Uiso   1.00
loop_
_geom_bond_atom_site_label_1
_geom_bond_atom_site_label_2
_geom_bond_distance
_geom_bond_site_symmetry_2
_ccdc_geom_bond_type
O1     C5      1.283   .     A
O1     Zn13    1.998   .     S
O2     C6      1.283   .     A
O2     Zn14    1.998   .     S
O3     C5      1.282   .     A
O3     Zn14    1.996   .     S
O4     C6      1.282   .     A
O4     Zn13    1.996   .     S
C5     C48     1.417   .     S
C6     C47     1.417   .     S
O7     C11     1.291   .     A
O7     Zn13    1.967   .     S
O8     C12     1.291   .     A
O8     Zn14    1.967   .     S
O9     Zn14    1.907   .     S
O9     C11     1.293   .     A
O10    C12     1.293   .     A
O10    Zn13    1.907   .     S
C11    C15     1.455   .     S
C12    C16     1.455   .     S
Zn13   N55     2.010   .     S
Zn14   N56     2.010   .     S
C15    C21     1.381   .     A
C15    C19     1.390   .     A
C16    C20     1.390   .     A
C16    C22     1.381   .     A
C17    C25     1.434   .     A
C17    C19     1.396   .     A
C17    C61     1.445   .     S
C18    C26     1.434   .     A
C18    C63     1.445   .     S
C18    C20     1.396   .     A
C19    H36     1.085   .     S
C20    H35     1.085   .     S
C21    C23     1.397   .     A
C21    H34     1.077   .     S
C22    C24     1.397   .     A
C22    H33     1.077   .     S
C23    C27     1.425   .     A
C23    C25     1.431   .     A
C24    C26     1.431   .     A
C24    C28     1.425   .     A
C25    C697    1.416   .     S
C26    C698    1.416   1_554 S
C27    C30     1.416   .     A
C27    C694    1.407   .     S
C28    C29     1.416   .     A
C28    C693    1.407   1_554 S
C29    C31     1.393   .     A
C29    H37     1.078   .     S
C30    C32     1.393   .     A
C30    H38     1.078   .     S
C31    C57     1.446   .     S
C31    C691    1.416   1_554 S
C32    C59     1.446   .     S
C32    C692    1.416   .     S
C39    H41     1.084   .     S
C39    C48     1.397   .     A
C39    C265    1.370   .     S
C40    C47     1.397   .     A
C40    H42     1.084   .     S
C40    C488    1.370   1_545 S
C43    H45     1.084   .     S
C43    C47     1.396   .     A
C43    C483    1.370   1_545 S
C44    H46     1.084   .     S
C44    C48     1.396   .     A
C44    C262    1.370   .     S
C49    N56     1.368   .     A
C49    O65     1.388   .     S
C49    C125    1.430   .     S
C50    N55     1.368   .     A
C50    O70     1.388   .     S
C50    C200    1.430   1_455 S
C51    N55     1.364   .     A
C51    H53     1.081   .     S
C51    C197    1.430   1_455 S
C52    N56     1.364   .     A
C52    H54     1.081   .     S
C52    C124    1.430   .     S
C57    N206    1.157   1_455 S
N58    C131    1.157   .     S
C59    N134    1.157   .     S
N60    C207    1.157   1_455 S
C61    N210    1.158   1_455 S
N62    C135    1.158   .     S
C63    N138    1.158   .     S
N64    C211    1.158   1_455 S
O65    C66     1.412   .     S
C66    H67     1.115   .     S
C66    H69     1.109   .     S
C66    H142    1.111   .     S
H68    C214    1.111   1_455 S
O70    C71     1.412   .     S
C71    H74     1.109   .     S
C71    H73     1.115   .     S
C71    H220    1.111   1_455 S
H72    C145    1.111   .     S
O75    C79     1.283   .     A
O75    Zn87    1.998   .     S
O76    C80     1.283   .     A
O76    Zn88    1.998   .     S
O77    C79     1.282   .     A
O77    Zn88    1.996   .     S
O78    C80     1.282   .     A
O78    Zn87    1.996   .     S
C79    C122    1.417   .     S
C80    C121    1.417   .     S
O81    C85     1.291   .     A
O81    Zn87    1.967   .     S
O82    C86     1.291   .     A
O82    Zn88    1.967   .     S
O83    Zn88    1.907   .     S
O83    C85     1.293   .     A
O84    C86     1.293   .     A
O84    Zn87    1.907   .     S
C85    C89     1.455   .     S
C86    C90     1.455   .     S
Zn87   N129    2.010   .     S
Zn88   N130    2.010   .     S
C89    C95     1.381   .     A
C89    C93     1.390   .     A
C90    C94     1.390   .     A
C90    C96     1.381   .     A
C91    C99     1.434   .     A
C91    C93     1.396   .     A
C91    C135    1.445   .     S
C92    C100    1.434   .     A
C92    C137    1.445   .     S
C92    C94     1.396   .     A
C93    H110    1.085   .     S
C94    H109    1.085   .     S
C95    C97     1.397   .     A
C95    H108    1.077   .     S
C96    C98     1.397   .     A
C96    H107    1.077   .     S
C97    C101    1.425   .     A
C97    C99     1.431   .     A
C98    C100    1.431   .     A
C98    C102    1.425   .     A
C99    C771    1.416   .     S
C100   C772    1.416   1_554 S
C101   C104    1.416   .     A
C101   C768    1.407   .     S
C102   C103    1.416   .     A
C102   C767    1.407   1_554 S
C103   C105    1.393   .     A
C103   H111    1.078   .     S
C104   C106    1.393   .     A
C104   H112    1.078   .     S
C105   C131    1.446   .     S
C105   C765    1.416   1_554 S
C106   C133    1.446   .     S
C106   C766    1.416   .     S
C113   H115    1.084   .     S
C113   C122    1.397   .     A
C113   C339    1.370   .     S
C114   C121    1.397   .     A
C114   H116    1.084   .     S
C114   C562    1.370   1_545 S
C117   H119    1.084   .     S
C117   C121    1.396   .     A
C117   C557    1.370   1_545 S
C118   H120    1.084   .     S
C118   C122    1.396   .     A
C118   C336    1.370   .     S
C123   N130    1.368   .     A
C123   O139    1.388   .     S
C123   C199    1.430   .     S
C124   N129    1.368   .     A
C124   O144    1.388   .     S
C125   N129    1.364   .     A
C125   H127    1.081   .     S
C126   N130    1.364   .     A
C126   H128    1.081   .     S
C126   C198    1.430   .     S
N132   C205    1.157   .     S
C133   N208    1.157   .     S
N136   C209    1.158   .     S
C137   N212    1.158   .     S
O139   C140    1.412   .     S
C140   H141    1.115   .     S
C140   H143    1.109   .     S
C140   H216    1.111   .     S
O144   C145    1.412   .     S
C145   H148    1.109   .     S
C145   H147    1.115   .     S
H146   C219    1.111   .     S
O149   C153    1.283   .     A
O149   Zn161   1.998   .     S
O150   C154    1.283   .     A
O150   Zn162   1.998   .     S
O151   C153    1.282   .     A
O151   Zn162   1.996   .     S
O152   C154    1.282   .     A
O152   Zn161   1.996   .     S
C153   C196    1.417   .     S
C154   C195    1.417   .     S
O155   C159    1.291   .     A
O155   Zn161   1.967   .     S
O156   C160    1.291   .     A
O156   Zn162   1.967   .     S
O157   Zn162   1.907   .     S
O157   C159    1.293   .     A
O158   C160    1.293   .     A
O158   Zn161   1.907   .     S
C159   C163    1.455   .     S
C160   C164    1.455   .     S
Zn161  N203    2.010   .     S
Zn162  N204    2.010   .     S
C163   C169    1.381   .     A
C163   C167    1.390   .     A
C164   C168    1.390   .     A
C164   C170    1.381   .     A
C165   C173    1.434   .     A
C165   C167    1.396   .     A
C165   C209    1.445   .     S
C166   C174    1.434   .     A
C166   C211    1.445   .     S
C166   C168    1.396   .     A
C167   H184    1.085   .     S
C168   H183    1.085   .     S
C169   C171    1.397   .     A
C169   H182    1.077   .     S
C170   C172    1.397   .     A
C170   H181    1.077   .     S
C171   C175    1.425   .     A
C171   C173    1.431   .     A
C172   C174    1.431   .     A
C172   C176    1.425   .     A
C173   C845    1.416   .     S
C174   C846    1.416   1_554 S
C175   C178    1.416   .     A
C175   C842    1.407   .     S
C176   C177    1.416   .     A
C176   C841    1.407   1_554 S
C177   C179    1.393   .     A
C177   H185    1.078   .     S
C178   C180    1.393   .     A
C178   H186    1.078   .     S
C179   C205    1.446   .     S
C179   C839    1.416   1_554 S
C180   C207    1.446   .     S
C180   C840    1.416   .     S
C187   H189    1.084   .     S
C187   C196    1.397   .     A
C187   C413    1.370   .     S
C188   C195    1.397   .     A
C188   H190    1.084   .     S
C188   C636    1.370   1_545 S
C191   H193    1.084   .     S
C191   C195    1.396   .     A
C191   C631    1.370   1_545 S
C192   H194    1.084   .     S
C192   C196    1.396   .     A
C192   C410    1.370   .     S
C197   N204    1.368   .     A
C197   O213    1.388   .     S
C197   C51     1.430   1_655 S
C198   N203    1.368   .     A
C198   O218    1.388   .     S
C199   N203    1.364   .     A
C199   H201    1.081   .     S
C200   N204    1.364   .     A
C200   H202    1.081   .     S
C200   C50     1.430   1_655 S
N206   C57     1.157   1_655 S
C207   N60     1.157   1_655 S
N210   C61     1.158   1_655 S
C211   N64     1.158   1_655 S
O213   C214    1.412   .     S
C214   H215    1.115   .     S
C214   H217    1.109   .     S
C214   H68     1.111   1_655 S
O218   C219    1.412   .     S
C219   H222    1.109   .     S
C219   H221    1.115   .     S
H220   C71     1.111   1_655 S
O223   C227    1.283   .     A
O223   Zn235   1.998   .     S
O224   C228    1.283   .     A
O224   Zn236   1.998   .     S
O225   C227    1.282   .     A
O225   Zn236   1.996   .     S
O226   C228    1.282   .     A
O226   Zn235   1.996   .     S
C227   C270    1.417   .     S
C228   C269    1.417   .     S
O229   C233    1.291   .     A
O229   Zn235   1.967   .     S
O230   C234    1.291   .     A
O230   Zn236   1.967   .     S
O231   Zn236   1.907   .     S
O231   C233    1.293   .     A
O232   C234    1.293   .     A
O232   Zn235   1.907   .     S
C233   C237    1.455   .     S
C234   C238    1.455   .     S
Zn235  N277    2.010   .     S
Zn236  N278    2.010   .     S
C237   C243    1.381   .     A
C237   C241    1.390   .     A
C238   C242    1.390   .     A
C238   C244    1.381   .     A
C239   C247    1.434   .     A
C239   C241    1.396   .     A
C239   C283    1.445   .     S
C240   C248    1.434   .     A
C240   C285    1.445   .     S
C240   C242    1.396   .     A
C241   H258    1.085   .     S
C242   H257    1.085   .     S
C243   C245    1.397   .     A
C243   H256    1.077   .     S
C244   C246    1.397   .     A
C244   H255    1.077   .     S
C245   C249    1.425   .     A
C245   C247    1.431   .     A
C246   C248    1.431   .     A
C246   C250    1.425   .     A
C247   C919    1.416   .     S
C248   C920    1.416   1_554 S
C249   C252    1.416   .     A
C249   C916    1.407   .     S
C250   C251    1.416   .     A
C250   C915    1.407   1_554 S
C251   C253    1.393   .     A
C251   H259    1.078   .     S
C252   C254    1.393   .     A
C252   H260    1.078   .     S
C253   C279    1.446   .     S
C253   C913    1.416   1_554 S
C254   C281    1.446   .     S
C254   C914    1.416   .     S
C261   H263    1.084   .     S
C261   C270    1.397   .     A
C261   C487    1.370   .     S
C262   C269    1.397   .     A
C262   H264    1.084   .     S
C265   H267    1.084   .     S
C265   C269    1.396   .     A
C266   H268    1.084   .     S
C266   C270    1.396   .     A
C266   C484    1.370   .     S
C271   N278    1.368   .     A
C271   O287    1.388   .     S
C271   C347    1.430   .     S
C272   N277    1.368   .     A
C272   O292    1.388   .     S
C272   C422    1.430   1_455 S
C273   N277    1.364   .     A
C273   H275    1.081   .     S
C273   C419    1.430   1_455 S
C274   N278    1.364   .     A
C274   H276    1.081   .     S
C274   C346    1.430   .     S
C279   N428    1.157   1_455 S
N280   C353    1.157   .     S
C281   N356    1.157   .     S
N282   C429    1.157   1_455 S
C283   N432    1.158   1_455 S
N284   C357    1.158   .     S
C285   N360    1.158   .     S
N286   C433    1.158   1_455 S
O287   C288    1.412   .     S
C288   H289    1.115   .     S
C288   H291    1.109   .     S
C288   H364    1.111   .     S
H290   C436    1.111   1_455 S
O292   C293    1.412   .     S
C293   H296    1.109   .     S
C293   H295    1.115   .     S
C293   H442    1.111   1_455 S
H294   C367    1.111   .     S
O297   C301    1.283   .     A
O297   Zn309   1.998   .     S
O298   C302    1.283   .     A
O298   Zn310   1.998   .     S
O299   C301    1.282   .     A
O299   Zn310   1.996   .     S
O300   C302    1.282   .     A
O300   Zn309   1.996   .     S
C301   C344    1.417   .     S
C302   C343    1.417   .     S
O303   C307    1.291   .     A
O303   Zn309   1.967   .     S
O304   C308    1.291   .     A
O304   Zn310   1.967   .     S
O305   Zn310   1.907   .     S
O305   C307    1.293   .     A
O306   C308    1.293   .     A
O306   Zn309   1.907   .     S
C307   C311    1.455   .     S
C308   C312    1.455   .     S
Zn309  N351    2.010   .     S
Zn310  N352    2.010   .     S
C311   C317    1.381   .     A
C311   C315    1.390   .     A
C312   C316    1.390   .     A
C312   C318    1.381   .     A
C313   C321    1.434   .     A
C313   C315    1.396   .     A
C313   C357    1.445   .     S
C314   C322    1.434   .     A
C314   C359    1.445   .     S
C314   C316    1.396   .     A
C315   H332    1.085   .     S
C316   H331    1.085   .     S
C317   C319    1.397   .     A
C317   H330    1.077   .     S
C318   C320    1.397   .     A
C318   H329    1.077   .     S
C319   C323    1.425   .     A
C319   C321    1.431   .     A
C320   C322    1.431   .     A
C320   C324    1.425   .     A
C321   C993    1.416   .     S
C322   C994    1.416   1_554 S
C323   C326    1.416   .     A
C323   C990    1.407   .     S
C324   C325    1.416   .     A
C324   C989    1.407   1_554 S
C325   C327    1.393   .     A
C325   H333    1.078   .     S
C326   C328    1.393   .     A
C326   H334    1.078   .     S
C327   C353    1.446   .     S
C327   C987    1.416   1_554 S
C328   C355    1.446   .     S
C328   C988    1.416   .     S
C335   H337    1.084   .     S
C335   C344    1.397   .     A
C335   C561    1.370   .     S
C336   C343    1.397   .     A
C336   H338    1.084   .     S
C339   H341    1.084   .     S
C339   C343    1.396   .     A
C340   H342    1.084   .     S
C340   C344    1.396   .     A
C340   C558    1.370   .     S
C345   N352    1.368   .     A
C345   O361    1.388   .     S
C345   C421    1.430   .     S
C346   N351    1.368   .     A
C346   O366    1.388   .     S
C347   N351    1.364   .     A
C347   H349    1.081   .     S
C348   N352    1.364   .     A
C348   H350    1.081   .     S
C348   C420    1.430   .     S
N354   C427    1.157   .     S
C355   N430    1.157   .     S
N358   C431    1.158   .     S
C359   N434    1.158   .     S
O361   C362    1.412   .     S
C362   H363    1.115   .     S
C362   H365    1.109   .     S
C362   H438    1.111   .     S
O366   C367    1.412   .     S
C367   H370    1.109   .     S
C367   H369    1.115   .     S
H368   C441    1.111   .     S
O371   C375    1.283   .     A
O371   Zn383   1.998   .     S
O372   C376    1.283   .     A
O372   Zn384   1.998   .     S
O373   C375    1.282   .     A
O373   Zn384   1.996   .     S
O374   C376    1.282   .     A
O374   Zn383   1.996   .     S
C375   C418    1.417   .     S
C376   C417    1.417   .     S
O377   C381    1.291   .     A
O377   Zn383   1.967   .     S
O378   C382    1.291   .     A
O378   Zn384   1.967   .     S
O379   Zn384   1.907   .     S
O379   C381    1.293   .     A
O380   C382    1.293   .     A
O380   Zn383   1.907   .     S
C381   C385    1.455   .     S
C382   C386    1.455   .     S
Zn383  N425    2.010   .     S
Zn384  N426    2.010   .     S
C385   C391    1.381   .     A
C385   C389    1.390   .     A
C386   C390    1.390   .     A
C386   C392    1.381   .     A
C387   C395    1.434   .     A
C387   C389    1.396   .     A
C387   C431    1.445   .     S
C388   C396    1.434   .     A
C388   C433    1.445   .     S
C388   C390    1.396   .     A
C389   H406    1.085   .     S
C390   H405    1.085   .     S
C391   C393    1.397   .     A
C391   H404    1.077   .     S
C392   C394    1.397   .     A
C392   H403    1.077   .     S
C393   C397    1.425   .     A
C393   C395    1.431   .     A
C394   C396    1.431   .     A
C394   C398    1.425   .     A
C395   C1067   1.416   .     S
C396   C1068   1.416   1_554 S
C397   C400    1.416   .     A
C397   C1064   1.407   .     S
C398   C399    1.416   .     A
C398   C1063   1.407   1_554 S
C399   C401    1.393   .     A
C399   H407    1.078   .     S
C400   C402    1.393   .     A
C400   H408    1.078   .     S
C401   C427    1.446   .     S
C401   C1061   1.416   1_554 S
C402   C429    1.446   .     S
C402   C1062   1.416   .     S
C409   H411    1.084   .     S
C409   C418    1.397   .     A
C409   C635    1.370   .     S
C410   C417    1.397   .     A
C410   H412    1.084   .     S
C413   H415    1.084   .     S
C413   C417    1.396   .     A
C414   H416    1.084   .     S
C414   C418    1.396   .     A
C414   C632    1.370   .     S
C419   N426    1.368   .     A
C419   O435    1.388   .     S
C419   C273    1.430   1_655 S
C420   N425    1.368   .     A
C420   O440    1.388   .     S
C421   N425    1.364   .     A
C421   H423    1.081   .     S
C422   N426    1.364   .     A
C422   H424    1.081   .     S
C422   C272    1.430   1_655 S
N428   C279    1.157   1_655 S
C429   N282    1.157   1_655 S
N432   C283    1.158   1_655 S
C433   N286    1.158   1_655 S
O435   C436    1.412   .     S
C436   H437    1.115   .     S
C436   H439    1.109   .     S
C436   H290    1.111   1_655 S
O440   C441    1.412   .     S
C441   H444    1.109   .     S
C441   H443    1.115   .     S
H442   C293    1.111   1_655 S
O445   C449    1.283   .     A
O445   Zn457   1.998   .     S
O446   C450    1.283   .     A
O446   Zn458   1.998   .     S
O447   C449    1.282   .     A
O447   Zn458   1.996   .     S
O448   C450    1.282   .     A
O448   Zn457   1.996   .     S
C449   C492    1.417   .     S
C450   C491    1.417   .     S
O451   C455    1.291   .     A
O451   Zn457   1.967   .     S
O452   C456    1.291   .     A
O452   Zn458   1.967   .     S
O453   Zn458   1.907   .     S
O453   C455    1.293   .     A
O454   C456    1.293   .     A
O454   Zn457   1.907   .     S
C455   C459    1.455   .     S
C456   C460    1.455   .     S
Zn457  N499    2.010   .     S
Zn458  N500    2.010   .     S
C459   C465    1.381   .     A
C459   C463    1.390   .     A
C460   C464    1.390   .     A
C460   C466    1.381   .     A
C461   C469    1.434   .     A
C461   C463    1.396   .     A
C461   C505    1.445   .     S
C462   C470    1.434   .     A
C462   C507    1.445   .     S
C462   C464    1.396   .     A
C463   H480    1.085   .     S
C464   H479    1.085   .     S
C465   C467    1.397   .     A
C465   H478    1.077   .     S
C466   C468    1.397   .     A
C466   H477    1.077   .     S
C467   C471    1.425   .     A
C467   C469    1.431   .     A
C468   C470    1.431   .     A
C468   C472    1.425   .     A
C469   C1141   1.416   .     S
C470   C1142   1.416   1_554 S
C471   C474    1.416   .     A
C471   C1138   1.407   .     S
C472   C473    1.416   .     A
C472   C1137   1.407   1_554 S
C473   C475    1.393   .     A
C473   H481    1.078   .     S
C474   C476    1.393   .     A
C474   H482    1.078   .     S
C475   C501    1.446   .     S
C475   C1135   1.416   1_554 S
C476   C503    1.446   .     S
C476   C1136   1.416   .     S
C483   H485    1.084   .     S
C483   C492    1.397   .     A
C483   C43     1.370   1_565 S
C484   C491    1.397   .     A
C484   H486    1.084   .     S
C487   H489    1.084   .     S
C487   C491    1.396   .     A
C488   H490    1.084   .     S
C488   C492    1.396   .     A
C488   C40     1.370   1_565 S
C493   N500    1.368   .     A
C493   O509    1.388   .     S
C493   C569    1.430   .     S
C494   N499    1.368   .     A
C494   O514    1.388   .     S
C494   C644    1.430   1_455 S
C495   N499    1.364   .     A
C495   H497    1.081   .     S
C495   C641    1.430   1_455 S
C496   N500    1.364   .     A
C496   H498    1.081   .     S
C496   C568    1.430   .     S
C501   N650    1.157   1_455 S
N502   C575    1.157   .     S
C503   N578    1.157   .     S
N504   C651    1.157   1_455 S
C505   N654    1.158   1_455 S
N506   C579    1.158   .     S
C507   N582    1.158   .     S
N508   C655    1.158   1_455 S
O509   C510    1.412   .     S
C510   H511    1.115   .     S
C510   H513    1.109   .     S
C510   H586    1.111   .     S
H512   C658    1.111   1_455 S
O514   C515    1.412   .     S
C515   H518    1.109   .     S
C515   H517    1.115   .     S
C515   H664    1.111   1_455 S
H516   C589    1.111   .     S
O519   C523    1.283   .     A
O519   Zn531   1.998   .     S
O520   C524    1.283   .     A
O520   Zn532   1.998   .     S
O521   C523    1.282   .     A
O521   Zn532   1.996   .     S
O522   C524    1.282   .     A
O522   Zn531   1.996   .     S
C523   C566    1.417   .     S
C524   C565    1.417   .     S
O525   C529    1.291   .     A
O525   Zn531   1.967   .     S
O526   C530    1.291   .     A
O526   Zn532   1.967   .     S
O527   Zn532   1.907   .     S
O527   C529    1.293   .     A
O528   C530    1.293   .     A
O528   Zn531   1.907   .     S
C529   C533    1.455   .     S
C530   C534    1.455   .     S
Zn531  N573    2.010   .     S
Zn532  N574    2.010   .     S
C533   C539    1.381   .     A
C533   C537    1.390   .     A
C534   C538    1.390   .     A
C534   C540    1.381   .     A
C535   C543    1.434   .     A
C535   C537    1.396   .     A
C535   C579    1.445   .     S
C536   C544    1.434   .     A
C536   C581    1.445   .     S
C536   C538    1.396   .     A
C537   H554    1.085   .     S
C538   H553    1.085   .     S
C539   C541    1.397   .     A
C539   H552    1.077   .     S
C540   C542    1.397   .     A
C540   H551    1.077   .     S
C541   C545    1.425   .     A
C541   C543    1.431   .     A
C542   C544    1.431   .     A
C542   C546    1.425   .     A
C543   C1215   1.416   .     S
C544   C1216   1.416   1_554 S
C545   C548    1.416   .     A
C545   C1212   1.407   .     S
C546   C547    1.416   .     A
C546   C1211   1.407   1_554 S
C547   C549    1.393   .     A
C547   H555    1.078   .     S
C548   C550    1.393   .     A
C548   H556    1.078   .     S
C549   C575    1.446   .     S
C549   C1209   1.416   1_554 S
C550   C577    1.446   .     S
C550   C1210   1.416   .     S
C557   H559    1.084   .     S
C557   C566    1.397   .     A
C557   C117    1.370   1_565 S
C558   C565    1.397   .     A
C558   H560    1.084   .     S
C561   H563    1.084   .     S
C561   C565    1.396   .     A
C562   H564    1.084   .     S
C562   C566    1.396   .     A
C562   C114    1.370   1_565 S
C567   N574    1.368   .     A
C567   O583    1.388   .     S
C567   C643    1.430   .     S
C568   N573    1.368   .     A
C568   O588    1.388   .     S
C569   N573    1.364   .     A
C569   H571    1.081   .     S
C570   N574    1.364   .     A
C570   H572    1.081   .     S
C570   C642    1.430   .     S
N576   C649    1.157   .     S
C577   N652    1.157   .     S
N580   C653    1.158   .     S
C581   N656    1.158   .     S
O583   C584    1.412   .     S
C584   H585    1.115   .     S
C584   H587    1.109   .     S
C584   H660    1.111   .     S
O588   C589    1.412   .     S
C589   H592    1.109   .     S
C589   H591    1.115   .     S
H590   C663    1.111   .     S
O593   C597    1.283   .     A
O593   Zn605   1.998   .     S
O594   C598    1.283   .     A
O594   Zn606   1.998   .     S
O595   C597    1.282   .     A
O595   Zn606   1.996   .     S
O596   C598    1.282   .     A
O596   Zn605   1.996   .     S
C597   C640    1.417   .     S
C598   C639    1.417   .     S
O599   C603    1.291   .     A
O599   Zn605   1.967   .     S
O600   C604    1.291   .     A
O600   Zn606   1.967   .     S
O601   Zn606   1.907   .     S
O601   C603    1.293   .     A
O602   C604    1.293   .     A
O602   Zn605   1.907   .     S
C603   C607    1.455   .     S
C604   C608    1.455   .     S
Zn605  N647    2.010   .     S
Zn606  N648    2.010   .     S
C607   C613    1.381   .     A
C607   C611    1.390   .     A
C608   C612    1.390   .     A
C608   C614    1.381   .     A
C609   C617    1.434   .     A
C609   C611    1.396   .     A
C609   C653    1.445   .     S
C610   C618    1.434   .     A
C610   C655    1.445   .     S
C610   C612    1.396   .     A
C611   H628    1.085   .     S
C612   H627    1.085   .     S
C613   C615    1.397   .     A
C613   H626    1.077   .     S
C614   C616    1.397   .     A
C614   H625    1.077   .     S
C615   C619    1.425   .     A
C615   C617    1.431   .     A
C616   C618    1.431   .     A
C616   C620    1.425   .     A
C617   C1289   1.416   .     S
C618   C1290   1.416   1_554 S
C619   C622    1.416   .     A
C619   C1286   1.407   .     S
C620   C621    1.416   .     A
C620   C1285   1.407   1_554 S
C621   C623    1.393   .     A
C621   H629    1.078   .     S
C622   C624    1.393   .     A
C622   H630    1.078   .     S
C623   C649    1.446   .     S
C623   C1283   1.416   1_554 S
C624   C651    1.446   .     S
C624   C1284   1.416   .     S
C631   H633    1.084   .     S
C631   C640    1.397   .     A
C631   C191    1.370   1_565 S
C632   C639    1.397   .     A
C632   H634    1.084   .     S
C635   H637    1.084   .     S
C635   C639    1.396   .     A
C636   H638    1.084   .     S
C636   C640    1.396   .     A
C636   C188    1.370   1_565 S
C641   N648    1.368   .     A
C641   O657    1.388   .     S
C641   C495    1.430   1_655 S
C642   N647    1.368   .     A
C642   O662    1.388   .     S
C643   N647    1.364   .     A
C643   H645    1.081   .     S
C644   N648    1.364   .     A
C644   H646    1.081   .     S
C644   C494    1.430   1_655 S
N650   C501    1.157   1_655 S
C651   N504    1.157   1_655 S
N654   C505    1.158   1_655 S
C655   N508    1.158   1_655 S
O657   C658    1.412   .     S
C658   H659    1.115   .     S
C658   H661    1.109   .     S
C658   H512    1.111   1_655 S
O662   C663    1.412   .     S
C663   H666    1.109   .     S
C663   H665    1.115   .     S
H664   C515    1.111   1_655 S
O667   C671    1.283   .     A
O667   Zn679   1.998   .     S
O668   C672    1.283   .     A
O668   Zn680   1.998   .     S
O669   C671    1.282   .     A
O669   Zn680   1.996   .     S
O670   C672    1.282   .     A
O670   Zn679   1.996   .     S
C671   C714    1.417   .     S
C672   C713    1.417   .     S
O673   C677    1.291   .     A
O673   Zn679   1.967   .     S
O674   C678    1.291   .     A
O674   Zn680   1.967   .     S
O675   Zn680   1.907   .     S
O675   C677    1.293   .     A
O676   C678    1.293   .     A
O676   Zn679   1.907   .     S
C677   C681    1.455   .     S
C678   C682    1.455   .     S
Zn679  N721    2.010   .     S
Zn680  N722    2.010   .     S
C681   C687    1.381   .     A
C681   C685    1.390   .     A
C682   C686    1.390   .     A
C682   C688    1.381   .     A
C683   C691    1.434   .     A
C683   C685    1.396   .     A
C683   C727    1.445   .     S
C684   C692    1.434   .     A
C684   C729    1.445   .     S
C684   C686    1.396   .     A
C685   H702    1.085   .     S
C686   H701    1.085   .     S
C687   C689    1.397   .     A
C687   H700    1.077   .     S
C688   C690    1.397   .     A
C688   H699    1.077   .     S
C689   C693    1.425   .     A
C689   C691    1.431   .     A
C690   C692    1.431   .     A
C690   C694    1.425   .     A
C691   C31     1.416   1_556 S
C693   C696    1.416   .     A
C693   C28     1.407   1_556 S
C694   C695    1.416   .     A
C695   C697    1.393   .     A
C695   H703    1.078   .     S
C696   C698    1.393   .     A
C696   H704    1.078   .     S
C697   C723    1.446   .     S
C698   C725    1.446   .     S
C698   C26     1.416   1_556 S
C705   H707    1.084   .     S
C705   C714    1.397   .     A
C705   C931    1.370   .     S
C706   C713    1.397   .     A
C706   H708    1.084   .     S
C706   C1154   1.370   1_545 S
C709   H711    1.084   .     S
C709   C713    1.396   .     A
C709   C1149   1.370   1_545 S
C710   H712    1.084   .     S
C710   C714    1.396   .     A
C710   C928    1.370   .     S
C715   N722    1.368   .     A
C715   O731    1.388   .     S
C715   C791    1.430   .     S
C716   N721    1.368   .     A
C716   O736    1.388   .     S
C716   C866    1.430   1_455 S
C717   N721    1.364   .     A
C717   H719    1.081   .     S
C717   C863    1.430   1_455 S
C718   N722    1.364   .     A
C718   H720    1.081   .     S
C718   C790    1.430   .     S
C723   N872    1.157   1_455 S
N724   C797    1.157   .     S
C725   N800    1.157   .     S
N726   C873    1.157   1_455 S
C727   N876    1.158   1_455 S
N728   C801    1.158   .     S
C729   N804    1.158   .     S
N730   C877    1.158   1_455 S
O731   C732    1.412   .     S
C732   H733    1.115   .     S
C732   H735    1.109   .     S
C732   H808    1.111   .     S
H734   C880    1.111   1_455 S
O736   C737    1.412   .     S
C737   H740    1.109   .     S
C737   H739    1.115   .     S
C737   H886    1.111   1_455 S
H738   C811    1.111   .     S
O741   C745    1.283   .     A
O741   Zn753   1.998   .     S
O742   C746    1.283   .     A
O742   Zn754   1.998   .     S
O743   C745    1.282   .     A
O743   Zn754   1.996   .     S
O744   C746    1.282   .     A
O744   Zn753   1.996   .     S
C745   C788    1.417   .     S
C746   C787    1.417   .     S
O747   C751    1.291   .     A
O747   Zn753   1.967   .     S
O748   C752    1.291   .     A
O748   Zn754   1.967   .     S
O749   Zn754   1.907   .     S
O749   C751    1.293   .     A
O750   C752    1.293   .     A
O750   Zn753   1.907   .     S
C751   C755    1.455   .     S
C752   C756    1.455   .     S
Zn753  N795    2.010   .     S
Zn754  N796    2.010   .     S
C755   C761    1.381   .     A
C755   C759    1.390   .     A
C756   C760    1.390   .     A
C756   C762    1.381   .     A
C757   C765    1.434   .     A
C757   C759    1.396   .     A
C757   C801    1.445   .     S
C758   C766    1.434   .     A
C758   C803    1.445   .     S
C758   C760    1.396   .     A
C759   H776    1.085   .     S
C760   H775    1.085   .     S
C761   C763    1.397   .     A
C761   H774    1.077   .     S
C762   C764    1.397   .     A
C762   H773    1.077   .     S
C763   C767    1.425   .     A
C763   C765    1.431   .     A
C764   C766    1.431   .     A
C764   C768    1.425   .     A
C765   C105    1.416   1_556 S
C767   C770    1.416   .     A
C767   C102    1.407   1_556 S
C768   C769    1.416   .     A
C769   C771    1.393   .     A
C769   H777    1.078   .     S
C770   C772    1.393   .     A
C770   H778    1.078   .     S
C771   C797    1.446   .     S
C772   C799    1.446   .     S
C772   C100    1.416   1_556 S
C779   H781    1.084   .     S
C779   C788    1.397   .     A
C779   C1005   1.370   .     S
C780   C787    1.397   .     A
C780   H782    1.084   .     S
C780   C1228   1.370   1_545 S
C783   H785    1.084   .     S
C783   C787    1.396   .     A
C783   C1223   1.370   1_545 S
C784   H786    1.084   .     S
C784   C788    1.396   .     A
C784   C1002   1.370   .     S
C789   N796    1.368   .     A
C789   O805    1.388   .     S
C789   C865    1.430   .     S
C790   N795    1.368   .     A
C790   O810    1.388   .     S
C791   N795    1.364   .     A
C791   H793    1.081   .     S
C792   N796    1.364   .     A
C792   H794    1.081   .     S
C792   C864    1.430   .     S
N798   C871    1.157   .     S
C799   N874    1.157   .     S
N802   C875    1.158   .     S
C803   N878    1.158   .     S
O805   C806    1.412   .     S
C806   H807    1.115   .     S
C806   H809    1.109   .     S
C806   H882    1.111   .     S
O810   C811    1.412   .     S
C811   H814    1.109   .     S
C811   H813    1.115   .     S
H812   C885    1.111   .     S
O815   C819    1.283   .     A
O815   Zn827   1.998   .     S
O816   C820    1.283   .     A
O816   Zn828   1.998   .     S
O817   C819    1.282   .     A
O817   Zn828   1.996   .     S
O818   C820    1.282   .     A
O818   Zn827   1.996   .     S
C819   C862    1.417   .     S
C820   C861    1.417   .     S
O821   C825    1.291   .     A
O821   Zn827   1.967   .     S
O822   C826    1.291   .     A
O822   Zn828   1.967   .     S
O823   Zn828   1.907   .     S
O823   C825    1.293   .     A
O824   C826    1.293   .     A
O824   Zn827   1.907   .     S
C825   C829    1.455   .     S
C826   C830    1.455   .     S
Zn827  N869    2.010   .     S
Zn828  N870    2.010   .     S
C829   C835    1.381   .     A
C829   C833    1.390   .     A
C830   C834    1.390   .     A
C830   C836    1.381   .     A
C831   C839    1.434   .     A
C831   C833    1.396   .     A
C831   C875    1.445   .     S
C832   C840    1.434   .     A
C832   C877    1.445   .     S
C832   C834    1.396   .     A
C833   H850    1.085   .     S
C834   H849    1.085   .     S
C835   C837    1.397   .     A
C835   H848    1.077   .     S
C836   C838    1.397   .     A
C836   H847    1.077   .     S
C837   C841    1.425   .     A
C837   C839    1.431   .     A
C838   C840    1.431   .     A
C838   C842    1.425   .     A
C839   C179    1.416   1_556 S
C841   C844    1.416   .     A
C841   C176    1.407   1_556 S
C842   C843    1.416   .     A
C843   C845    1.393   .     A
C843   H851    1.078   .     S
C844   C846    1.393   .     A
C844   H852    1.078   .     S
C845   C871    1.446   .     S
C846   C873    1.446   .     S
C846   C174    1.416   1_556 S
C853   H855    1.084   .     S
C853   C862    1.397   .     A
C853   C1079   1.370   .     S
C854   C861    1.397   .     A
C854   H856    1.084   .     S
C854   C1302   1.370   1_545 S
C857   H859    1.084   .     S
C857   C861    1.396   .     A
C857   C1297   1.370   1_545 S
C858   H860    1.084   .     S
C858   C862    1.396   .     A
C858   C1076   1.370   .     S
C863   N870    1.368   .     A
C863   O879    1.388   .     S
C863   C717    1.430   1_655 S
C864   N869    1.368   .     A
C864   O884    1.388   .     S
C865   N869    1.364   .     A
C865   H867    1.081   .     S
C866   N870    1.364   .     A
C866   H868    1.081   .     S
C866   C716    1.430   1_655 S
N872   C723    1.157   1_655 S
C873   N726    1.157   1_655 S
N876   C727    1.158   1_655 S
C877   N730    1.158   1_655 S
O879   C880    1.412   .     S
C880   H881    1.115   .     S
C880   H883    1.109   .     S
C880   H734    1.111   1_655 S
O884   C885    1.412   .     S
C885   H888    1.109   .     S
C885   H887    1.115   .     S
H886   C737    1.111   1_655 S
O889   C893    1.283   .     A
O889   Zn901   1.998   .     S
O890   C894    1.283   .     A
O890   Zn902   1.998   .     S
O891   C893    1.282   .     A
O891   Zn902   1.996   .     S
O892   C894    1.282   .     A
O892   Zn901   1.996   .     S
C893   C936    1.417   .     S
C894   C935    1.417   .     S
O895   C899    1.291   .     A
O895   Zn901   1.967   .     S
O896   C900    1.291   .     A
O896   Zn902   1.967   .     S
O897   Zn902   1.907   .     S
O897   C899    1.293   .     A
O898   C900    1.293   .     A
O898   Zn901   1.907   .     S
C899   C903    1.455   .     S
C900   C904    1.455   .     S
Zn901  N943    2.010   .     S
Zn902  N944    2.010   .     S
C903   C909    1.381   .     A
C903   C907    1.390   .     A
C904   C908    1.390   .     A
C904   C910    1.381   .     A
C905   C913    1.434   .     A
C905   C907    1.396   .     A
C905   C949    1.445   .     S
C906   C914    1.434   .     A
C906   C951    1.445   .     S
C906   C908    1.396   .     A
C907   H924    1.085   .     S
C908   H923    1.085   .     S
C909   C911    1.397   .     A
C909   H922    1.077   .     S
C910   C912    1.397   .     A
C910   H921    1.077   .     S
C911   C915    1.425   .     A
C911   C913    1.431   .     A
C912   C914    1.431   .     A
C912   C916    1.425   .     A
C913   C253    1.416   1_556 S
C915   C918    1.416   .     A
C915   C250    1.407   1_556 S
C916   C917    1.416   .     A
C917   C919    1.393   .     A
C917   H925    1.078   .     S
C918   C920    1.393   .     A
C918   H926    1.078   .     S
C919   C945    1.446   .     S
C920   C947    1.446   .     S
C920   C248    1.416   1_556 S
C927   H929    1.084   .     S
C927   C936    1.397   .     A
C927   C1153   1.370   .     S
C928   C935    1.397   .     A
C928   H930    1.084   .     S
C931   H933    1.084   .     S
C931   C935    1.396   .     A
C932   H934    1.084   .     S
C932   C936    1.396   .     A
C932   C1150   1.370   .     S
C937   N944    1.368   .     A
C937   O953    1.388   .     S
C937   C1013   1.430   .     S
C938   N943    1.368   .     A
C938   O958    1.388   .     S
C938   C1088   1.430   1_455 S
C939   N943    1.364   .     A
C939   H941    1.081   .     S
C939   C1085   1.430   1_455 S
C940   N944    1.364   .     A
C940   H942    1.081   .     S
C940   C1012   1.430   .     S
C945   N1094   1.157   1_455 S
N946   C1019   1.157   .     S
C947   N1022   1.157   .     S
N948   C1095   1.157   1_455 S
C949   N1098   1.158   1_455 S
N950   C1023   1.158   .     S
C951   N1026   1.158   .     S
N952   C1099   1.158   1_455 S
O953   C954    1.412   .     S
C954   H955    1.115   .     S
C954   H957    1.109   .     S
C954   H1030   1.111   .     S
H956   C1102   1.111   1_455 S
O958   C959    1.412   .     S
C959   H962    1.109   .     S
C959   H961    1.115   .     S
C959   H1108   1.111   1_455 S
H960   C1033   1.111   .     S
O963   C967    1.283   .     A
O963   Zn975   1.998   .     S
O964   C968    1.283   .     A
O964   Zn976   1.998   .     S
O965   C967    1.282   .     A
O965   Zn976   1.996   .     S
O966   C968    1.282   .     A
O966   Zn975   1.996   .     S
C967   C1010   1.417   .     S
C968   C1009   1.417   .     S
O969   C973    1.291   .     A
O969   Zn975   1.967   .     S
O970   C974    1.291   .     A
O970   Zn976   1.967   .     S
O971   Zn976   1.907   .     S
O971   C973    1.293   .     A
O972   C974    1.293   .     A
O972   Zn975   1.907   .     S
C973   C977    1.455   .     S
C974   C978    1.455   .     S
Zn975  N1017   2.010   .     S
Zn976  N1018   2.010   .     S
C977   C983    1.381   .     A
C977   C981    1.390   .     A
C978   C982    1.390   .     A
C978   C984    1.381   .     A
C979   C987    1.434   .     A
C979   C981    1.396   .     A
C979   C1023   1.445   .     S
C980   C988    1.434   .     A
C980   C1025   1.445   .     S
C980   C982    1.396   .     A
C981   H998    1.085   .     S
C982   H997    1.085   .     S
C983   C985    1.397   .     A
C983   H996    1.077   .     S
C984   C986    1.397   .     A
C984   H995    1.077   .     S
C985   C989    1.425   .     A
C985   C987    1.431   .     A
C986   C988    1.431   .     A
C986   C990    1.425   .     A
C987   C327    1.416   1_556 S
C989   C992    1.416   .     A
C989   C324    1.407   1_556 S
C990   C991    1.416   .     A
C991   C993    1.393   .     A
C991   H999    1.078   .     S
C992   C994    1.393   .     A
C992   H1000   1.078   .     S
C993   C1019   1.446   .     S
C994   C1021   1.446   .     S
C994   C322    1.416   1_556 S
C1001  H1003   1.084   .     S
C1001  C1010   1.397   .     A
C1001  C1227   1.370   .     S
C1002  C1009   1.397   .     A
C1002  H1004   1.084   .     S
C1005  H1007   1.084   .     S
C1005  C1009   1.396   .     A
C1006  H1008   1.084   .     S
C1006  C1010   1.396   .     A
C1006  C1224   1.370   .     S
C1011  N1018   1.368   .     A
C1011  O1027   1.388   .     S
C1011  C1087   1.430   .     S
C1012  N1017   1.368   .     A
C1012  O1032   1.388   .     S
C1013  N1017   1.364   .     A
C1013  H1015   1.081   .     S
C1014  N1018   1.364   .     A
C1014  H1016   1.081   .     S
C1014  C1086   1.430   .     S
N1020  C1093   1.157   .     S
C1021  N1096   1.157   .     S
N1024  C1097   1.158   .     S
C1025  N1100   1.158   .     S
O1027  C1028   1.412   .     S
C1028  H1029   1.115   .     S
C1028  H1031   1.109   .     S
C1028  H1104   1.111   .     S
O1032  C1033   1.412   .     S
C1033  H1036   1.109   .     S
C1033  H1035   1.115   .     S
H1034  C1107   1.111   .     S
O1037  C1041   1.283   .     A
O1037  Zn1049  1.998   .     S
O1038  C1042   1.283   .     A
O1038  Zn1050  1.998   .     S
O1039  C1041   1.282   .     A
O1039  Zn1050  1.996   .     S
O1040  C1042   1.282   .     A
O1040  Zn1049  1.996   .     S
C1041  C1084   1.417   .     S
C1042  C1083   1.417   .     S
O1043  C1047   1.291   .     A
O1043  Zn1049  1.967   .     S
O1044  C1048   1.291   .     A
O1044  Zn1050  1.967   .     S
O1045  Zn1050  1.907   .     S
O1045  C1047   1.293   .     A
O1046  C1048   1.293   .     A
O1046  Zn1049  1.907   .     S
C1047  C1051   1.455   .     S
C1048  C1052   1.455   .     S
Zn1049 N1091   2.010   .     S
Zn1050 N1092   2.010   .     S
C1051  C1057   1.381   .     A
C1051  C1055   1.390   .     A
C1052  C1056   1.390   .     A
C1052  C1058   1.381   .     A
C1053  C1061   1.434   .     A
C1053  C1055   1.396   .     A
C1053  C1097   1.445   .     S
C1054  C1062   1.434   .     A
C1054  C1099   1.445   .     S
C1054  C1056   1.396   .     A
C1055  H1072   1.085   .     S
C1056  H1071   1.085   .     S
C1057  C1059   1.397   .     A
C1057  H1070   1.077   .     S
C1058  C1060   1.397   .     A
C1058  H1069   1.077   .     S
C1059  C1063   1.425   .     A
C1059  C1061   1.431   .     A
C1060  C1062   1.431   .     A
C1060  C1064   1.425   .     A
C1061  C401    1.416   1_556 S
C1063  C1066   1.416   .     A
C1063  C398    1.407   1_556 S
C1064  C1065   1.416   .     A
C1065  C1067   1.393   .     A
C1065  H1073   1.078   .     S
C1066  C1068   1.393   .     A
C1066  H1074   1.078   .     S
C1067  C1093   1.446   .     S
C1068  C1095   1.446   .     S
C1068  C396    1.416   1_556 S
C1075  H1077   1.084   .     S
C1075  C1084   1.397   .     A
C1075  C1301   1.370   .     S
C1076  C1083   1.397   .     A
C1076  H1078   1.084   .     S
C1079  H1081   1.084   .     S
C1079  C1083   1.396   .     A
C1080  H1082   1.084   .     S
C1080  C1084   1.396   .     A
C1080  C1298   1.370   .     S
C1085  N1092   1.368   .     A
C1085  O1101   1.388   .     S
C1085  C939    1.430   1_655 S
C1086  N1091   1.368   .     A
C1086  O1106   1.388   .     S
C1087  N1091   1.364   .     A
C1087  H1089   1.081   .     S
C1088  N1092   1.364   .     A
C1088  H1090   1.081   .     S
C1088  C938    1.430   1_655 S
N1094  C945    1.157   1_655 S
C1095  N948    1.157   1_655 S
N1098  C949    1.158   1_655 S
C1099  N952    1.158   1_655 S
O1101  C1102   1.412   .     S
C1102  H1103   1.115   .     S
C1102  H1105   1.109   .     S
C1102  H956    1.111   1_655 S
O1106  C1107   1.412   .     S
C1107  H1110   1.109   .     S
C1107  H1109   1.115   .     S
H1108  C959    1.111   1_655 S
O1111  C1115   1.283   .     A
O1111  Zn1123  1.998   .     S
O1112  C1116   1.283   .     A
O1112  Zn1124  1.998   .     S
O1113  C1115   1.282   .     A
O1113  Zn1124  1.996   .     S
O1114  C1116   1.282   .     A
O1114  Zn1123  1.996   .     S
C1115  C1158   1.417   .     S
C1116  C1157   1.417   .     S
O1117  C1121   1.291   .     A
O1117  Zn1123  1.967   .     S
O1118  C1122   1.291   .     A
O1118  Zn1124  1.967   .     S
O1119  Zn1124  1.907   .     S
O1119  C1121   1.293   .     A
O1120  C1122   1.293   .     A
O1120  Zn1123  1.907   .     S
C1121  C1125   1.455   .     S
C1122  C1126   1.455   .     S
Zn1123 N1165   2.010   .     S
Zn1124 N1166   2.010   .     S
C1125  C1131   1.381   .     A
C1125  C1129   1.390   .     A
C1126  C1130   1.390   .     A
C1126  C1132   1.381   .     A
C1127  C1135   1.434   .     A
C1127  C1129   1.396   .     A
C1127  C1171   1.445   .     S
C1128  C1136   1.434   .     A
C1128  C1173   1.445   .     S
C1128  C1130   1.396   .     A
C1129  H1146   1.085   .     S
C1130  H1145   1.085   .     S
C1131  C1133   1.397   .     A
C1131  H1144   1.077   .     S
C1132  C1134   1.397   .     A
C1132  H1143   1.077   .     S
C1133  C1137   1.425   .     A
C1133  C1135   1.431   .     A
C1134  C1136   1.431   .     A
C1134  C1138   1.425   .     A
C1135  C475    1.416   1_556 S
C1137  C1140   1.416   .     A
C1137  C472    1.407   1_556 S
C1138  C1139   1.416   .     A
C1139  C1141   1.393   .     A
C1139  H1147   1.078   .     S
C1140  C1142   1.393   .     A
C1140  H1148   1.078   .     S
C1141  C1167   1.446   .     S
C1142  C1169   1.446   .     S
C1142  C470    1.416   1_556 S
C1149  H1151   1.084   .     S
C1149  C1158   1.397   .     A
C1149  C709    1.370   1_565 S
C1150  C1157   1.397   .     A
C1150  H1152   1.084   .     S
C1153  H1155   1.084   .     S
C1153  C1157   1.396   .     A
C1154  H1156   1.084   .     S
C1154  C1158   1.396   .     A
C1154  C706    1.370   1_565 S
C1159  N1166   1.368   .     A
C1159  O1175   1.388   .     S
C1159  C1235   1.430   .     S
C1160  N1165   1.368   .     A
C1160  O1180   1.388   .     S
C1160  C1310   1.430   1_455 S
C1161  N1165   1.364   .     A
C1161  H1163   1.081   .     S
C1161  C1307   1.430   1_455 S
C1162  N1166   1.364   .     A
C1162  H1164   1.081   .     S
C1162  C1234   1.430   .     S
C1167  N1316   1.157   1_455 S
N1168  C1241   1.157   .     S
C1169  N1244   1.157   .     S
N1170  C1317   1.157   1_455 S
C1171  N1320   1.158   1_455 S
N1172  C1245   1.158   .     S
C1173  N1248   1.158   .     S
N1174  C1321   1.158   1_455 S
O1175  C1176   1.412   .     S
C1176  H1177   1.115   .     S
C1176  H1179   1.109   .     S
C1176  H1252   1.111   .     S
H1178  C1324   1.111   1_455 S
O1180  C1181   1.412   .     S
C1181  H1184   1.109   .     S
C1181  H1183   1.115   .     S
C1181  H1330   1.111   1_455 S
H1182  C1255   1.111   .     S
O1185  C1189   1.283   .     A
O1185  Zn1197  1.998   .     S
O1186  C1190   1.283   .     A
O1186  Zn1198  1.998   .     S
O1187  C1189   1.282   .     A
O1187  Zn1198  1.996   .     S
O1188  C1190   1.282   .     A
O1188  Zn1197  1.996   .     S
C1189  C1232   1.417   .     S
C1190  C1231   1.417   .     S
O1191  C1195   1.291   .     A
O1191  Zn1197  1.967   .     S
O1192  C1196   1.291   .     A
O1192  Zn1198  1.967   .     S
O1193  Zn1198  1.907   .     S
O1193  C1195   1.293   .     A
O1194  C1196   1.293   .     A
O1194  Zn1197  1.907   .     S
C1195  C1199   1.455   .     S
C1196  C1200   1.455   .     S
Zn1197 N1239   2.010   .     S
Zn1198 N1240   2.010   .     S
C1199  C1205   1.381   .     A
C1199  C1203   1.390   .     A
C1200  C1204   1.390   .     A
C1200  C1206   1.381   .     A
C1201  C1209   1.434   .     A
C1201  C1203   1.396   .     A
C1201  C1245   1.445   .     S
C1202  C1210   1.434   .     A
C1202  C1247   1.445   .     S
C1202  C1204   1.396   .     A
C1203  H1220   1.085   .     S
C1204  H1219   1.085   .     S
C1205  C1207   1.397   .     A
C1205  H1218   1.077   .     S
C1206  C1208   1.397   .     A
C1206  H1217   1.077   .     S
C1207  C1211   1.425   .     A
C1207  C1209   1.431   .     A
C1208  C1210   1.431   .     A
C1208  C1212   1.425   .     A
C1209  C549    1.416   1_556 S
C1211  C1214   1.416   .     A
C1211  C546    1.407   1_556 S
C1212  C1213   1.416   .     A
C1213  C1215   1.393   .     A
C1213  H1221   1.078   .     S
C1214  C1216   1.393   .     A
C1214  H1222   1.078   .     S
C1215  C1241   1.446   .     S
C1216  C1243   1.446   .     S
C1216  C544    1.416   1_556 S
C1223  H1225   1.084   .     S
C1223  C1232   1.397   .     A
C1223  C783    1.370   1_565 S
C1224  C1231   1.397   .     A
C1224  H1226   1.084   .     S
C1227  H1229   1.084   .     S
C1227  C1231   1.396   .     A
C1228  H1230   1.084   .     S
C1228  C1232   1.396   .     A
C1228  C780    1.370   1_565 S
C1233  N1240   1.368   .     A
C1233  O1249   1.388   .     S
C1233  C1309   1.430   .     S
C1234  N1239   1.368   .     A
C1234  O1254   1.388   .     S
C1235  N1239   1.364   .     A
C1235  H1237   1.081   .     S
C1236  N1240   1.364   .     A
C1236  H1238   1.081   .     S
C1236  C1308   1.430   .     S
N1242  C1315   1.157   .     S
C1243  N1318   1.157   .     S
N1246  C1319   1.158   .     S
C1247  N1322   1.158   .     S
O1249  C1250   1.412   .     S
C1250  H1251   1.115   .     S
C1250  H1253   1.109   .     S
C1250  H1326   1.111   .     S
O1254  C1255   1.412   .     S
C1255  H1258   1.109   .     S
C1255  H1257   1.115   .     S
H1256  C1329   1.111   .     S
O1259  C1263   1.283   .     A
O1259  Zn1271  1.998   .     S
O1260  C1264   1.283   .     A
O1260  Zn1272  1.998   .     S
O1261  C1263   1.282   .     A
O1261  Zn1272  1.996   .     S
O1262  C1264   1.282   .     A
O1262  Zn1271  1.996   .     S
C1263  C1306   1.417   .     S
C1264  C1305   1.417   .     S
O1265  C1269   1.291   .     A
O1265  Zn1271  1.967   .     S
O1266  C1270   1.291   .     A
O1266  Zn1272  1.967   .     S
O1267  Zn1272  1.907   .     S
O1267  C1269   1.293   .     A
O1268  C1270   1.293   .     A
O1268  Zn1271  1.907   .     S
C1269  C1273   1.455   .     S
C1270  C1274   1.455   .     S
Zn1271 N1313   2.010   .     S
Zn1272 N1314   2.010   .     S
C1273  C1279   1.381   .     A
C1273  C1277   1.390   .     A
C1274  C1278   1.390   .     A
C1274  C1280   1.381   .     A
C1275  C1283   1.434   .     A
C1275  C1277   1.396   .     A
C1275  C1319   1.445   .     S
C1276  C1284   1.434   .     A
C1276  C1321   1.445   .     S
C1276  C1278   1.396   .     A
C1277  H1294   1.085   .     S
C1278  H1293   1.085   .     S
C1279  C1281   1.397   .     A
C1279  H1292   1.077   .     S
C1280  C1282   1.397   .     A
C1280  H1291   1.077   .     S
C1281  C1285   1.425   .     A
C1281  C1283   1.431   .     A
C1282  C1284   1.431   .     A
C1282  C1286   1.425   .     A
C1283  C623    1.416   1_556 S
C1285  C1288   1.416   .     A
C1285  C620    1.407   1_556 S
C1286  C1287   1.416   .     A
C1287  C1289   1.393   .     A
C1287  H1295   1.078   .     S
C1288  C1290   1.393   .     A
C1288  H1296   1.078   .     S
C1289  C1315   1.446   .     S
C1290  C1317   1.446   .     S
C1290  C618    1.416   1_556 S
C1297  H1299   1.084   .     S
C1297  C1306   1.397   .     A
C1297  C857    1.370   1_565 S
C1298  C1305   1.397   .     A
C1298  H1300   1.084   .     S
C1301  H1303   1.084   .     S
C1301  C1305   1.396   .     A
C1302  H1304   1.084   .     S
C1302  C1306   1.396   .     A
C1302  C854    1.370   1_565 S
C1307  N1314   1.368   .     A
C1307  O1323   1.388   .     S
C1307  C1161   1.430   1_655 S
C1308  N1313   1.368   .     A
C1308  O1328   1.388   .     S
C1309  N1313   1.364   .     A
C1309  H1311   1.081   .     S
C1310  N1314   1.364   .     A
C1310  H1312   1.081   .     S
C1310  C1160   1.430   1_655 S
N1316  C1167   1.157   1_655 S
C1317  N1170   1.157   1_655 S
N1320  C1171   1.158   1_655 S
C1321  N1174   1.158   1_655 S
O1323  C1324   1.412   .     S
C1324  H1325   1.115   .     S
C1324  H1327   1.109   .     S
C1324  H1178   1.111   1_655 S
O1328  C1329   1.412   .     S
C1329  H1332   1.109   .     S
C1329  H1331   1.115   .     S
H1330  C1181   1.111   1_655 S
