data_str_m3_o1_o17_pcu_sym.107
_audit_creation_date              2020-01-03
_audit_creation_method            'Materials Studio'
_symmetry_space_group_name_H-M    'P1'
_symmetry_Int_Tables_number       1
_symmetry_cell_setting            triclinic
loop_
_symmetry_equiv_pos_as_xyz
  x,y,z
_cell_length_a                    32.0070
_cell_length_b                    29.5317
_cell_length_c                    30.0504
_cell_angle_alpha                 90.3121
_cell_angle_beta                  89.3368
_cell_angle_gamma                 90.1783
loop_
_atom_site_label
_atom_site_type_symbol
_atom_site_fract_x
_atom_site_fract_y
_atom_site_fract_z
_atom_site_U_iso_or_equiv
_atom_site_adp_type
_atom_site_occupancy
C1     C     0.08684   0.16658   0.25023   0.00000  Uiso   1.00
C2     C     0.24649   0.16675   0.24977   0.00000  Uiso   1.00
C3     C     0.12945   0.09265   0.02004   0.00000  Uiso   1.00
C4     C     0.20387   0.24069   0.47995   0.00000  Uiso   1.00
C5     C     0.02101   0.14556   0.28537   0.00000  Uiso   1.00
C6     C     0.31232   0.18777   0.21463   0.00000  Uiso   1.00
C7     C     0.31108   0.14600   0.28544   0.00000  Uiso   1.00
C8     C     0.02225   0.18734   0.21456   0.00000  Uiso   1.00
C9     C     0.29067   0.16694   0.24997   0.00000  Uiso   1.00
C10    C     0.04267   0.16639   0.25003   0.00000  Uiso   1.00
C11    C     0.19898   0.02418   0.26815   0.00000  Uiso   1.00
C12    C     0.13436   0.30915   0.23185   0.00000  Uiso   1.00
C13    C     0.13432   0.02375   0.23194   0.00000  Uiso   1.00
C14    C     0.19901   0.30959   0.26806   0.00000  Uiso   1.00
C15    C     0.16512   0.16654   0.16346   0.00000  Uiso   1.00
C16    C     0.16822   0.16679   0.33654   0.00000  Uiso   1.00
C17    C     0.19191   0.20150   0.40743   0.00000  Uiso   1.00
C18    C     0.14142   0.13184   0.09257   0.00000  Uiso   1.00
C19    C     0.17059   0.16702   0.38441   0.00000  Uiso   1.00
C20    C     0.16275   0.16632   0.11559   0.00000  Uiso   1.00
C21    C     0.15106   0.13174   0.40681   0.00000  Uiso   1.00
C22    C     0.18227   0.20159   0.09319   0.00000  Uiso   1.00
C23    C     0.15027   0.13103   0.45255   0.00000  Uiso   1.00
C24    C     0.18306   0.20231   0.04745   0.00000  Uiso   1.00
C25    C     0.16797   0.16710   0.47672   0.00000  Uiso   1.00
C26    C     0.16535   0.16624   0.02328   0.00000  Uiso   1.00
C27    C     0.18835   0.20373   0.45432   0.00000  Uiso   1.00
C28    C     0.14497   0.12961   0.04568   0.00000  Uiso   1.00
C29    C     0.13171   0.09433   0.47399   0.00000  Uiso   1.00
C30    C     0.20161   0.23901   0.02601   0.00000  Uiso   1.00
H31    H     0.13627   0.10450   0.38839   0.00000  Uiso   1.00
H32    H     0.19706   0.22884   0.11161   0.00000  Uiso   1.00
H33    H     0.11940   0.06628   0.45455   0.00000  Uiso   1.00
H34    H     0.21393   0.26706   0.04545   0.00000  Uiso   1.00
H35    H     0.22480   0.04245   0.28275   0.00000  Uiso   1.00
H36    H     0.10853   0.29088   0.21725   0.00000  Uiso   1.00
H37    H     0.10838   0.04166   0.21763   0.00000  Uiso   1.00
H38    H     0.22495   0.29167   0.28237   0.00000  Uiso   1.00
N39    N     0.16667   0.28573   0.25000   0.00000  Uiso   1.00
N40    N     0.16667   0.04760   0.25000   0.00000  Uiso   1.00
O41    O     0.10559   0.20487   0.25000   0.00000  Uiso   1.00
O42    O     0.22774   0.12846   0.25001   0.00000  Uiso   1.00
O43    O     0.22774   0.20487   0.25001   0.00000  Uiso   1.00
O44    O     0.10559   0.12846   0.25000   0.00000  Uiso   1.00
O45    O     0.16666   0.20489   0.18393   0.00000  Uiso   1.00
O46    O     0.16667   0.12844   0.31608   0.00000  Uiso   1.00
O47    O     0.16667   0.20489   0.31608   0.00000  Uiso   1.00
O48    O     0.16666   0.12844   0.18393   0.00000  Uiso   1.00
Zn49   Zn    0.16667   0.21771   0.25000   0.00000  Uiso   1.00
Zn50   Zn    0.16667   0.11563   0.25000   0.00000  Uiso   1.00
C51    C     0.22089   0.23012   0.38279   0.00000  Uiso   1.00
N52    N     0.24417   0.25251   0.36292   0.00000  Uiso   1.00
C53    C     0.11244   0.10322   0.11721   0.00000  Uiso   1.00
N54    N     0.08916   0.08083   0.13709   0.00000  Uiso   1.00
C55    C     0.11373   0.05082   0.03876   0.00000  Uiso   1.00
N56    N     0.10124   0.01711   0.05332   0.00000  Uiso   1.00
C57    C     0.21958   0.28253   0.46124   0.00000  Uiso   1.00
N58    N     0.23205   0.31625   0.44668   0.00000  Uiso   1.00
C59    C     0.04303   0.12470   0.32193   0.00000  Uiso   1.00
N60    N     0.06038   0.10797   0.35110   0.00000  Uiso   1.00
C61    C     0.29030   0.20863   0.17807   0.00000  Uiso   1.00
N62    N     0.27296   0.22536   0.14890   0.00000  Uiso   1.00
C63    C     0.28768   0.12631   0.32240   0.00000  Uiso   1.00
N64    N     0.26904   0.11069   0.35180   0.00000  Uiso   1.00
C65    C     0.04566   0.20702   0.17760   0.00000  Uiso   1.00
N66    N     0.06429   0.22265   0.14820   0.00000  Uiso   1.00
C67    C     0.42017   0.16658   0.25023   0.00000  Uiso   1.00
C68    C     0.57983   0.16675   0.24977   0.00000  Uiso   1.00
C69    C     0.46278   0.09265   0.02004   0.00000  Uiso   1.00
C70    C     0.53720   0.24069   0.47995   0.00000  Uiso   1.00
C71    C     0.35435   0.14556   0.28537   0.00000  Uiso   1.00
C72    C     0.64565   0.18777   0.21463   0.00000  Uiso   1.00
C73    C     0.64442   0.14600   0.28544   0.00000  Uiso   1.00
C74    C     0.35558   0.18734   0.21456   0.00000  Uiso   1.00
C75    C     0.62400   0.16694   0.24997   0.00000  Uiso   1.00
C76    C     0.37600   0.16639   0.25003   0.00000  Uiso   1.00
C77    C     0.53231   0.02418   0.26815   0.00000  Uiso   1.00
C78    C     0.46769   0.30915   0.23185   0.00000  Uiso   1.00
C79    C     0.46766   0.02375   0.23194   0.00000  Uiso   1.00
C80    C     0.53234   0.30959   0.26806   0.00000  Uiso   1.00
C81    C     0.49845   0.16654   0.16346   0.00000  Uiso   1.00
C82    C     0.50155   0.16679   0.33654   0.00000  Uiso   1.00
C83    C     0.52524   0.20150   0.40743   0.00000  Uiso   1.00
C84    C     0.47476   0.13184   0.09257   0.00000  Uiso   1.00
C85    C     0.50392   0.16702   0.38441   0.00000  Uiso   1.00
C86    C     0.49608   0.16632   0.11559   0.00000  Uiso   1.00
C87    C     0.48440   0.13174   0.40681   0.00000  Uiso   1.00
C88    C     0.51560   0.20159   0.09319   0.00000  Uiso   1.00
C89    C     0.48361   0.13103   0.45255   0.00000  Uiso   1.00
C90    C     0.51639   0.20231   0.04745   0.00000  Uiso   1.00
C91    C     0.50131   0.16710   0.47672   0.00000  Uiso   1.00
C92    C     0.49869   0.16624   0.02328   0.00000  Uiso   1.00
C93    C     0.52169   0.20373   0.45432   0.00000  Uiso   1.00
C94    C     0.47831   0.12961   0.04568   0.00000  Uiso   1.00
C95    C     0.46505   0.09433   0.47399   0.00000  Uiso   1.00
C96    C     0.53495   0.23901   0.02601   0.00000  Uiso   1.00
H97    H     0.46961   0.10450   0.38839   0.00000  Uiso   1.00
H98    H     0.53039   0.22884   0.11161   0.00000  Uiso   1.00
H99    H     0.45273   0.06628   0.45455   0.00000  Uiso   1.00
H100   H     0.54726   0.26706   0.04545   0.00000  Uiso   1.00
H101   H     0.55814   0.04245   0.28275   0.00000  Uiso   1.00
H102   H     0.44186   0.29088   0.21725   0.00000  Uiso   1.00
H103   H     0.44172   0.04166   0.21763   0.00000  Uiso   1.00
H104   H     0.55828   0.29167   0.28237   0.00000  Uiso   1.00
N105   N     0.50000   0.28573   0.25000   0.00000  Uiso   1.00
N106   N     0.50000   0.04760   0.25000   0.00000  Uiso   1.00
O107   O     0.43892   0.20487   0.25000   0.00000  Uiso   1.00
O108   O     0.56108   0.12846   0.25001   0.00000  Uiso   1.00
O109   O     0.56108   0.20487   0.25001   0.00000  Uiso   1.00
O110   O     0.43892   0.12846   0.25000   0.00000  Uiso   1.00
O111   O     0.49999   0.20489   0.18393   0.00000  Uiso   1.00
O112   O     0.50001   0.12844   0.31608   0.00000  Uiso   1.00
O113   O     0.50001   0.20489   0.31608   0.00000  Uiso   1.00
O114   O     0.49999   0.12844   0.18393   0.00000  Uiso   1.00
Zn115  Zn    0.50000   0.21771   0.25000   0.00000  Uiso   1.00
Zn116  Zn    0.50000   0.11563   0.25000   0.00000  Uiso   1.00
C117   C     0.55422   0.23012   0.38279   0.00000  Uiso   1.00
N118   N     0.57751   0.25251   0.36292   0.00000  Uiso   1.00
C119   C     0.44577   0.10322   0.11721   0.00000  Uiso   1.00
N120   N     0.42249   0.08083   0.13709   0.00000  Uiso   1.00
C121   C     0.44706   0.05082   0.03876   0.00000  Uiso   1.00
N122   N     0.43457   0.01711   0.05332   0.00000  Uiso   1.00
C123   C     0.55291   0.28253   0.46124   0.00000  Uiso   1.00
N124   N     0.56538   0.31625   0.44668   0.00000  Uiso   1.00
C125   C     0.37637   0.12470   0.32193   0.00000  Uiso   1.00
N126   N     0.39371   0.10797   0.35110   0.00000  Uiso   1.00
C127   C     0.62363   0.20863   0.17807   0.00000  Uiso   1.00
N128   N     0.60629   0.22536   0.14890   0.00000  Uiso   1.00
C129   C     0.62101   0.12631   0.32240   0.00000  Uiso   1.00
N130   N     0.60237   0.11069   0.35180   0.00000  Uiso   1.00
C131   C     0.37899   0.20702   0.17760   0.00000  Uiso   1.00
N132   N     0.39763   0.22265   0.14820   0.00000  Uiso   1.00
C133   C     0.75351   0.16658   0.25023   0.00000  Uiso   1.00
C134   C     0.91316   0.16675   0.24977   0.00000  Uiso   1.00
C135   C     0.79612   0.09265   0.02004   0.00000  Uiso   1.00
C136   C     0.87054   0.24069   0.47995   0.00000  Uiso   1.00
C137   C     0.68768   0.14556   0.28537   0.00000  Uiso   1.00
C138   C     0.97899   0.18777   0.21463   0.00000  Uiso   1.00
C139   C     0.97775   0.14600   0.28544   0.00000  Uiso   1.00
C140   C     0.68892   0.18734   0.21456   0.00000  Uiso   1.00
C141   C     0.95733   0.16694   0.24997   0.00000  Uiso   1.00
C142   C     0.70933   0.16639   0.25003   0.00000  Uiso   1.00
C143   C     0.86564   0.02418   0.26815   0.00000  Uiso   1.00
C144   C     0.80102   0.30915   0.23185   0.00000  Uiso   1.00
C145   C     0.80099   0.02375   0.23194   0.00000  Uiso   1.00
C146   C     0.86568   0.30959   0.26806   0.00000  Uiso   1.00
C147   C     0.83179   0.16654   0.16346   0.00000  Uiso   1.00
C148   C     0.83488   0.16679   0.33654   0.00000  Uiso   1.00
C149   C     0.85857   0.20150   0.40743   0.00000  Uiso   1.00
C150   C     0.80809   0.13184   0.09257   0.00000  Uiso   1.00
C151   C     0.83725   0.16702   0.38441   0.00000  Uiso   1.00
C152   C     0.82941   0.16632   0.11559   0.00000  Uiso   1.00
C153   C     0.81773   0.13174   0.40681   0.00000  Uiso   1.00
C154   C     0.84894   0.20159   0.09319   0.00000  Uiso   1.00
C155   C     0.81694   0.13103   0.45255   0.00000  Uiso   1.00
C156   C     0.84973   0.20231   0.04745   0.00000  Uiso   1.00
C157   C     0.83464   0.16710   0.47672   0.00000  Uiso   1.00
C158   C     0.83202   0.16624   0.02328   0.00000  Uiso   1.00
C159   C     0.85502   0.20373   0.45432   0.00000  Uiso   1.00
C160   C     0.81164   0.12961   0.04568   0.00000  Uiso   1.00
C161   C     0.79838   0.09433   0.47399   0.00000  Uiso   1.00
C162   C     0.86828   0.23901   0.02601   0.00000  Uiso   1.00
H163   H     0.80294   0.10450   0.38839   0.00000  Uiso   1.00
H164   H     0.86373   0.22884   0.11161   0.00000  Uiso   1.00
H165   H     0.78606   0.06628   0.45455   0.00000  Uiso   1.00
H166   H     0.88059   0.26706   0.04545   0.00000  Uiso   1.00
H167   H     0.89147   0.04245   0.28275   0.00000  Uiso   1.00
H168   H     0.77520   0.29088   0.21725   0.00000  Uiso   1.00
H169   H     0.77505   0.04166   0.21763   0.00000  Uiso   1.00
H170   H     0.89162   0.29167   0.28237   0.00000  Uiso   1.00
N171   N     0.83333   0.28573   0.25000   0.00000  Uiso   1.00
N172   N     0.83333   0.04760   0.25000   0.00000  Uiso   1.00
O173   O     0.77226   0.20487   0.25000   0.00000  Uiso   1.00
O174   O     0.89441   0.12846   0.25001   0.00000  Uiso   1.00
O175   O     0.89441   0.20487   0.25001   0.00000  Uiso   1.00
O176   O     0.77226   0.12846   0.25000   0.00000  Uiso   1.00
O177   O     0.83333   0.20489   0.18393   0.00000  Uiso   1.00
O178   O     0.83334   0.12844   0.31608   0.00000  Uiso   1.00
O179   O     0.83334   0.20489   0.31608   0.00000  Uiso   1.00
O180   O     0.83333   0.12844   0.18393   0.00000  Uiso   1.00
Zn181  Zn    0.83333   0.21771   0.25000   0.00000  Uiso   1.00
Zn182  Zn    0.83333   0.11563   0.25000   0.00000  Uiso   1.00
C183   C     0.88756   0.23012   0.38279   0.00000  Uiso   1.00
N184   N     0.91084   0.25251   0.36292   0.00000  Uiso   1.00
C185   C     0.77911   0.10322   0.11721   0.00000  Uiso   1.00
N186   N     0.75583   0.08083   0.13709   0.00000  Uiso   1.00
C187   C     0.78039   0.05082   0.03876   0.00000  Uiso   1.00
N188   N     0.76791   0.01711   0.05332   0.00000  Uiso   1.00
C189   C     0.88624   0.28253   0.46124   0.00000  Uiso   1.00
N190   N     0.89871   0.31625   0.44668   0.00000  Uiso   1.00
C191   C     0.70970   0.12470   0.32193   0.00000  Uiso   1.00
N192   N     0.72704   0.10797   0.35110   0.00000  Uiso   1.00
C193   C     0.95697   0.20863   0.17807   0.00000  Uiso   1.00
N194   N     0.93962   0.22536   0.14890   0.00000  Uiso   1.00
C195   C     0.95434   0.12631   0.32240   0.00000  Uiso   1.00
N196   N     0.93571   0.11069   0.35180   0.00000  Uiso   1.00
C197   C     0.71232   0.20702   0.17760   0.00000  Uiso   1.00
N198   N     0.73096   0.22265   0.14820   0.00000  Uiso   1.00
C199   C     0.08684   0.49991   0.25023   0.00000  Uiso   1.00
C200   C     0.24649   0.50009   0.24977   0.00000  Uiso   1.00
C201   C     0.12945   0.42598   0.02004   0.00000  Uiso   1.00
C202   C     0.20387   0.57403   0.47995   0.00000  Uiso   1.00
C203   C     0.02101   0.47889   0.28537   0.00000  Uiso   1.00
C204   C     0.31232   0.52111   0.21463   0.00000  Uiso   1.00
C205   C     0.31108   0.47933   0.28544   0.00000  Uiso   1.00
C206   C     0.02225   0.52067   0.21456   0.00000  Uiso   1.00
C207   C     0.29067   0.50028   0.24997   0.00000  Uiso   1.00
C208   C     0.04267   0.49972   0.25003   0.00000  Uiso   1.00
C209   C     0.19898   0.35752   0.26815   0.00000  Uiso   1.00
C210   C     0.13436   0.64248   0.23185   0.00000  Uiso   1.00
C211   C     0.13432   0.35708   0.23194   0.00000  Uiso   1.00
C212   C     0.19901   0.64292   0.26806   0.00000  Uiso   1.00
C213   C     0.16512   0.49988   0.16346   0.00000  Uiso   1.00
C214   C     0.16822   0.50012   0.33654   0.00000  Uiso   1.00
C215   C     0.19191   0.53483   0.40743   0.00000  Uiso   1.00
C216   C     0.14142   0.46517   0.09257   0.00000  Uiso   1.00
C217   C     0.17059   0.50035   0.38441   0.00000  Uiso   1.00
C218   C     0.16275   0.49965   0.11559   0.00000  Uiso   1.00
C219   C     0.15106   0.46508   0.40681   0.00000  Uiso   1.00
C220   C     0.18227   0.53493   0.09319   0.00000  Uiso   1.00
C221   C     0.15027   0.46436   0.45255   0.00000  Uiso   1.00
C222   C     0.18306   0.53565   0.04745   0.00000  Uiso   1.00
C223   C     0.16797   0.50043   0.47672   0.00000  Uiso   1.00
C224   C     0.16535   0.49957   0.02328   0.00000  Uiso   1.00
C225   C     0.18835   0.53707   0.45432   0.00000  Uiso   1.00
C226   C     0.14497   0.46294   0.04568   0.00000  Uiso   1.00
C227   C     0.13171   0.42766   0.47399   0.00000  Uiso   1.00
C228   C     0.20161   0.57234   0.02601   0.00000  Uiso   1.00
H229   H     0.13627   0.43783   0.38839   0.00000  Uiso   1.00
H230   H     0.19706   0.56217   0.11161   0.00000  Uiso   1.00
H231   H     0.11940   0.39962   0.45455   0.00000  Uiso   1.00
H232   H     0.21393   0.60039   0.04545   0.00000  Uiso   1.00
H233   H     0.22480   0.37578   0.28275   0.00000  Uiso   1.00
H234   H     0.10853   0.62422   0.21725   0.00000  Uiso   1.00
H235   H     0.10838   0.37499   0.21763   0.00000  Uiso   1.00
H236   H     0.22495   0.62501   0.28237   0.00000  Uiso   1.00
N237   N     0.16667   0.61907   0.25000   0.00000  Uiso   1.00
N238   N     0.16667   0.38093   0.25000   0.00000  Uiso   1.00
O239   O     0.10559   0.53821   0.25000   0.00000  Uiso   1.00
O240   O     0.22774   0.46179   0.25001   0.00000  Uiso   1.00
O241   O     0.22774   0.53821   0.25001   0.00000  Uiso   1.00
O242   O     0.10559   0.46179   0.25000   0.00000  Uiso   1.00
O243   O     0.16666   0.53823   0.18393   0.00000  Uiso   1.00
O244   O     0.16667   0.46177   0.31608   0.00000  Uiso   1.00
O245   O     0.16667   0.53823   0.31608   0.00000  Uiso   1.00
O246   O     0.16666   0.46177   0.18393   0.00000  Uiso   1.00
Zn247  Zn    0.16667   0.55104   0.25000   0.00000  Uiso   1.00
Zn248  Zn    0.16667   0.44896   0.25000   0.00000  Uiso   1.00
C249   C     0.22089   0.56345   0.38279   0.00000  Uiso   1.00
N250   N     0.24417   0.58584   0.36292   0.00000  Uiso   1.00
C251   C     0.11244   0.43655   0.11721   0.00000  Uiso   1.00
N252   N     0.08916   0.41417   0.13709   0.00000  Uiso   1.00
C253   C     0.11373   0.38415   0.03876   0.00000  Uiso   1.00
N254   N     0.10124   0.35044   0.05332   0.00000  Uiso   1.00
C255   C     0.21958   0.61586   0.46124   0.00000  Uiso   1.00
N256   N     0.23205   0.64958   0.44668   0.00000  Uiso   1.00
C257   C     0.04303   0.45803   0.32193   0.00000  Uiso   1.00
N258   N     0.06038   0.44130   0.35110   0.00000  Uiso   1.00
C259   C     0.29030   0.54197   0.17807   0.00000  Uiso   1.00
N260   N     0.27296   0.55870   0.14890   0.00000  Uiso   1.00
C261   C     0.28768   0.45964   0.32240   0.00000  Uiso   1.00
N262   N     0.26904   0.44402   0.35180   0.00000  Uiso   1.00
C263   C     0.04566   0.54036   0.17760   0.00000  Uiso   1.00
N264   N     0.06429   0.55598   0.14820   0.00000  Uiso   1.00
C265   C     0.42017   0.49991   0.25023   0.00000  Uiso   1.00
C266   C     0.57983   0.50009   0.24977   0.00000  Uiso   1.00
C267   C     0.46278   0.42598   0.02004   0.00000  Uiso   1.00
C268   C     0.53720   0.57403   0.47995   0.00000  Uiso   1.00
C269   C     0.35435   0.47889   0.28537   0.00000  Uiso   1.00
C270   C     0.64565   0.52111   0.21463   0.00000  Uiso   1.00
C271   C     0.64442   0.47933   0.28544   0.00000  Uiso   1.00
C272   C     0.35558   0.52067   0.21456   0.00000  Uiso   1.00
C273   C     0.62400   0.50028   0.24997   0.00000  Uiso   1.00
C274   C     0.37600   0.49972   0.25003   0.00000  Uiso   1.00
C275   C     0.53231   0.35752   0.26815   0.00000  Uiso   1.00
C276   C     0.46769   0.64248   0.23185   0.00000  Uiso   1.00
C277   C     0.46766   0.35708   0.23194   0.00000  Uiso   1.00
C278   C     0.53234   0.64292   0.26806   0.00000  Uiso   1.00
C279   C     0.49845   0.49988   0.16346   0.00000  Uiso   1.00
C280   C     0.50155   0.50012   0.33654   0.00000  Uiso   1.00
C281   C     0.52524   0.53483   0.40743   0.00000  Uiso   1.00
C282   C     0.47476   0.46517   0.09257   0.00000  Uiso   1.00
C283   C     0.50392   0.50035   0.38441   0.00000  Uiso   1.00
C284   C     0.49608   0.49965   0.11559   0.00000  Uiso   1.00
C285   C     0.48440   0.46508   0.40681   0.00000  Uiso   1.00
C286   C     0.51560   0.53493   0.09319   0.00000  Uiso   1.00
C287   C     0.48361   0.46436   0.45255   0.00000  Uiso   1.00
C288   C     0.51639   0.53565   0.04745   0.00000  Uiso   1.00
C289   C     0.50131   0.50043   0.47672   0.00000  Uiso   1.00
C290   C     0.49869   0.49957   0.02328   0.00000  Uiso   1.00
C291   C     0.52169   0.53707   0.45432   0.00000  Uiso   1.00
C292   C     0.47831   0.46294   0.04568   0.00000  Uiso   1.00
C293   C     0.46505   0.42766   0.47399   0.00000  Uiso   1.00
C294   C     0.53495   0.57234   0.02601   0.00000  Uiso   1.00
H295   H     0.46961   0.43783   0.38839   0.00000  Uiso   1.00
H296   H     0.53039   0.56217   0.11161   0.00000  Uiso   1.00
H297   H     0.45273   0.39962   0.45455   0.00000  Uiso   1.00
H298   H     0.54726   0.60039   0.04545   0.00000  Uiso   1.00
H299   H     0.55814   0.37578   0.28275   0.00000  Uiso   1.00
H300   H     0.44186   0.62422   0.21725   0.00000  Uiso   1.00
H301   H     0.44172   0.37499   0.21763   0.00000  Uiso   1.00
H302   H     0.55828   0.62501   0.28237   0.00000  Uiso   1.00
N303   N     0.50000   0.61907   0.25000   0.00000  Uiso   1.00
N304   N     0.50000   0.38093   0.25000   0.00000  Uiso   1.00
O305   O     0.43892   0.53821   0.25000   0.00000  Uiso   1.00
O306   O     0.56108   0.46179   0.25001   0.00000  Uiso   1.00
O307   O     0.56108   0.53821   0.25001   0.00000  Uiso   1.00
O308   O     0.43892   0.46179   0.25000   0.00000  Uiso   1.00
O309   O     0.49999   0.53823   0.18393   0.00000  Uiso   1.00
O310   O     0.50001   0.46177   0.31608   0.00000  Uiso   1.00
O311   O     0.50001   0.53823   0.31608   0.00000  Uiso   1.00
O312   O     0.49999   0.46177   0.18393   0.00000  Uiso   1.00
Zn313  Zn    0.50000   0.55104   0.25000   0.00000  Uiso   1.00
Zn314  Zn    0.50000   0.44896   0.25000   0.00000  Uiso   1.00
C315   C     0.55422   0.56345   0.38279   0.00000  Uiso   1.00
N316   N     0.57751   0.58584   0.36292   0.00000  Uiso   1.00
C317   C     0.44577   0.43655   0.11721   0.00000  Uiso   1.00
N318   N     0.42249   0.41417   0.13709   0.00000  Uiso   1.00
C319   C     0.44706   0.38415   0.03876   0.00000  Uiso   1.00
N320   N     0.43457   0.35044   0.05332   0.00000  Uiso   1.00
C321   C     0.55291   0.61586   0.46124   0.00000  Uiso   1.00
N322   N     0.56538   0.64958   0.44668   0.00000  Uiso   1.00
C323   C     0.37637   0.45803   0.32193   0.00000  Uiso   1.00
N324   N     0.39371   0.44130   0.35110   0.00000  Uiso   1.00
C325   C     0.62363   0.54197   0.17807   0.00000  Uiso   1.00
N326   N     0.60629   0.55870   0.14890   0.00000  Uiso   1.00
C327   C     0.62101   0.45964   0.32240   0.00000  Uiso   1.00
N328   N     0.60237   0.44402   0.35180   0.00000  Uiso   1.00
C329   C     0.37899   0.54036   0.17760   0.00000  Uiso   1.00
N330   N     0.39763   0.55598   0.14820   0.00000  Uiso   1.00
C331   C     0.75351   0.49991   0.25023   0.00000  Uiso   1.00
C332   C     0.91316   0.50009   0.24977   0.00000  Uiso   1.00
C333   C     0.79612   0.42598   0.02004   0.00000  Uiso   1.00
C334   C     0.87054   0.57403   0.47995   0.00000  Uiso   1.00
C335   C     0.68768   0.47889   0.28537   0.00000  Uiso   1.00
C336   C     0.97899   0.52111   0.21463   0.00000  Uiso   1.00
C337   C     0.97775   0.47933   0.28544   0.00000  Uiso   1.00
C338   C     0.68892   0.52067   0.21456   0.00000  Uiso   1.00
C339   C     0.95733   0.50028   0.24997   0.00000  Uiso   1.00
C340   C     0.70933   0.49972   0.25003   0.00000  Uiso   1.00
C341   C     0.86564   0.35752   0.26815   0.00000  Uiso   1.00
C342   C     0.80102   0.64248   0.23185   0.00000  Uiso   1.00
C343   C     0.80099   0.35708   0.23194   0.00000  Uiso   1.00
C344   C     0.86568   0.64292   0.26806   0.00000  Uiso   1.00
C345   C     0.83179   0.49988   0.16346   0.00000  Uiso   1.00
C346   C     0.83488   0.50012   0.33654   0.00000  Uiso   1.00
C347   C     0.85857   0.53483   0.40743   0.00000  Uiso   1.00
C348   C     0.80809   0.46517   0.09257   0.00000  Uiso   1.00
C349   C     0.83725   0.50035   0.38441   0.00000  Uiso   1.00
C350   C     0.82941   0.49965   0.11559   0.00000  Uiso   1.00
C351   C     0.81773   0.46508   0.40681   0.00000  Uiso   1.00
C352   C     0.84894   0.53493   0.09319   0.00000  Uiso   1.00
C353   C     0.81694   0.46436   0.45255   0.00000  Uiso   1.00
C354   C     0.84973   0.53565   0.04745   0.00000  Uiso   1.00
C355   C     0.83464   0.50043   0.47672   0.00000  Uiso   1.00
C356   C     0.83202   0.49957   0.02328   0.00000  Uiso   1.00
C357   C     0.85502   0.53707   0.45432   0.00000  Uiso   1.00
C358   C     0.81164   0.46294   0.04568   0.00000  Uiso   1.00
C359   C     0.79838   0.42766   0.47399   0.00000  Uiso   1.00
C360   C     0.86828   0.57234   0.02601   0.00000  Uiso   1.00
H361   H     0.80294   0.43783   0.38839   0.00000  Uiso   1.00
H362   H     0.86373   0.56217   0.11161   0.00000  Uiso   1.00
H363   H     0.78606   0.39962   0.45455   0.00000  Uiso   1.00
H364   H     0.88059   0.60039   0.04545   0.00000  Uiso   1.00
H365   H     0.89147   0.37578   0.28275   0.00000  Uiso   1.00
H366   H     0.77520   0.62422   0.21725   0.00000  Uiso   1.00
H367   H     0.77505   0.37499   0.21763   0.00000  Uiso   1.00
H368   H     0.89162   0.62501   0.28237   0.00000  Uiso   1.00
N369   N     0.83333   0.61907   0.25000   0.00000  Uiso   1.00
N370   N     0.83333   0.38093   0.25000   0.00000  Uiso   1.00
O371   O     0.77226   0.53821   0.25000   0.00000  Uiso   1.00
O372   O     0.89441   0.46179   0.25001   0.00000  Uiso   1.00
O373   O     0.89441   0.53821   0.25001   0.00000  Uiso   1.00
O374   O     0.77226   0.46179   0.25000   0.00000  Uiso   1.00
O375   O     0.83333   0.53823   0.18393   0.00000  Uiso   1.00
O376   O     0.83334   0.46177   0.31608   0.00000  Uiso   1.00
O377   O     0.83334   0.53823   0.31608   0.00000  Uiso   1.00
O378   O     0.83333   0.46177   0.18393   0.00000  Uiso   1.00
Zn379  Zn    0.83333   0.55104   0.25000   0.00000  Uiso   1.00
Zn380  Zn    0.83333   0.44896   0.25000   0.00000  Uiso   1.00
C381   C     0.88756   0.56345   0.38279   0.00000  Uiso   1.00
N382   N     0.91084   0.58584   0.36292   0.00000  Uiso   1.00
C383   C     0.77911   0.43655   0.11721   0.00000  Uiso   1.00
N384   N     0.75583   0.41417   0.13709   0.00000  Uiso   1.00
C385   C     0.78039   0.38415   0.03876   0.00000  Uiso   1.00
N386   N     0.76791   0.35044   0.05332   0.00000  Uiso   1.00
C387   C     0.88624   0.61586   0.46124   0.00000  Uiso   1.00
N388   N     0.89871   0.64958   0.44668   0.00000  Uiso   1.00
C389   C     0.70970   0.45803   0.32193   0.00000  Uiso   1.00
N390   N     0.72704   0.44130   0.35110   0.00000  Uiso   1.00
C391   C     0.95697   0.54197   0.17807   0.00000  Uiso   1.00
N392   N     0.93962   0.55870   0.14890   0.00000  Uiso   1.00
C393   C     0.95434   0.45964   0.32240   0.00000  Uiso   1.00
N394   N     0.93571   0.44402   0.35180   0.00000  Uiso   1.00
C395   C     0.71232   0.54036   0.17760   0.00000  Uiso   1.00
N396   N     0.73096   0.55598   0.14820   0.00000  Uiso   1.00
C397   C     0.08684   0.83325   0.25023   0.00000  Uiso   1.00
C398   C     0.24649   0.83342   0.24977   0.00000  Uiso   1.00
C399   C     0.12945   0.75932   0.02004   0.00000  Uiso   1.00
C400   C     0.20387   0.90736   0.47995   0.00000  Uiso   1.00
C401   C     0.02101   0.81222   0.28537   0.00000  Uiso   1.00
C402   C     0.31232   0.85444   0.21463   0.00000  Uiso   1.00
C403   C     0.31108   0.81266   0.28544   0.00000  Uiso   1.00
C404   C     0.02225   0.85400   0.21456   0.00000  Uiso   1.00
C405   C     0.29067   0.83361   0.24997   0.00000  Uiso   1.00
C406   C     0.04267   0.83306   0.25003   0.00000  Uiso   1.00
C407   C     0.19898   0.69085   0.26815   0.00000  Uiso   1.00
C408   C     0.13436   0.97582   0.23185   0.00000  Uiso   1.00
C409   C     0.13432   0.69041   0.23194   0.00000  Uiso   1.00
C410   C     0.19901   0.97625   0.26806   0.00000  Uiso   1.00
C411   C     0.16512   0.83321   0.16346   0.00000  Uiso   1.00
C412   C     0.16822   0.83346   0.33654   0.00000  Uiso   1.00
C413   C     0.19191   0.86817   0.40743   0.00000  Uiso   1.00
C414   C     0.14142   0.79851   0.09257   0.00000  Uiso   1.00
C415   C     0.17059   0.83368   0.38441   0.00000  Uiso   1.00
C416   C     0.16275   0.83299   0.11559   0.00000  Uiso   1.00
C417   C     0.15106   0.79841   0.40681   0.00000  Uiso   1.00
C418   C     0.18227   0.86826   0.09319   0.00000  Uiso   1.00
C419   C     0.15027   0.79769   0.45255   0.00000  Uiso   1.00
C420   C     0.18306   0.86898   0.04745   0.00000  Uiso   1.00
C421   C     0.16797   0.83376   0.47672   0.00000  Uiso   1.00
C422   C     0.16535   0.83291   0.02328   0.00000  Uiso   1.00
C423   C     0.18835   0.87040   0.45432   0.00000  Uiso   1.00
C424   C     0.14497   0.79627   0.04568   0.00000  Uiso   1.00
C425   C     0.13171   0.76100   0.47399   0.00000  Uiso   1.00
C426   C     0.20161   0.90568   0.02601   0.00000  Uiso   1.00
H427   H     0.13627   0.77116   0.38839   0.00000  Uiso   1.00
H428   H     0.19706   0.89550   0.11161   0.00000  Uiso   1.00
H429   H     0.11940   0.73295   0.45455   0.00000  Uiso   1.00
H430   H     0.21393   0.93373   0.04545   0.00000  Uiso   1.00
H431   H     0.22480   0.70912   0.28275   0.00000  Uiso   1.00
H432   H     0.10853   0.95755   0.21725   0.00000  Uiso   1.00
H433   H     0.10838   0.70833   0.21763   0.00000  Uiso   1.00
H434   H     0.22495   0.95834   0.28237   0.00000  Uiso   1.00
N435   N     0.16667   0.95240   0.25000   0.00000  Uiso   1.00
N436   N     0.16667   0.71427   0.25000   0.00000  Uiso   1.00
O437   O     0.10559   0.87154   0.25000   0.00000  Uiso   1.00
O438   O     0.22774   0.79513   0.25001   0.00000  Uiso   1.00
O439   O     0.22774   0.87154   0.25001   0.00000  Uiso   1.00
O440   O     0.10559   0.79513   0.25000   0.00000  Uiso   1.00
O441   O     0.16666   0.87156   0.18393   0.00000  Uiso   1.00
O442   O     0.16667   0.79511   0.31608   0.00000  Uiso   1.00
O443   O     0.16667   0.87156   0.31608   0.00000  Uiso   1.00
O444   O     0.16666   0.79511   0.18393   0.00000  Uiso   1.00
Zn445  Zn    0.16667   0.88437   0.25000   0.00000  Uiso   1.00
Zn446  Zn    0.16667   0.78229   0.25000   0.00000  Uiso   1.00
C447   C     0.22089   0.89678   0.38279   0.00000  Uiso   1.00
N448   N     0.24417   0.91917   0.36292   0.00000  Uiso   1.00
C449   C     0.11244   0.76989   0.11721   0.00000  Uiso   1.00
N450   N     0.08916   0.74750   0.13709   0.00000  Uiso   1.00
C451   C     0.11373   0.71749   0.03876   0.00000  Uiso   1.00
N452   N     0.10124   0.68378   0.05332   0.00000  Uiso   1.00
C453   C     0.21958   0.94920   0.46124   0.00000  Uiso   1.00
N454   N     0.23205   0.98291   0.44668   0.00000  Uiso   1.00
C455   C     0.04303   0.79137   0.32193   0.00000  Uiso   1.00
N456   N     0.06038   0.77464   0.35110   0.00000  Uiso   1.00
C457   C     0.29030   0.87530   0.17807   0.00000  Uiso   1.00
N458   N     0.27296   0.89203   0.14890   0.00000  Uiso   1.00
C459   C     0.28768   0.79298   0.32240   0.00000  Uiso   1.00
N460   N     0.26904   0.77735   0.35180   0.00000  Uiso   1.00
C461   C     0.04566   0.87369   0.17760   0.00000  Uiso   1.00
N462   N     0.06429   0.88931   0.14820   0.00000  Uiso   1.00
C463   C     0.42017   0.83325   0.25023   0.00000  Uiso   1.00
C464   C     0.57983   0.83342   0.24977   0.00000  Uiso   1.00
C465   C     0.46278   0.75932   0.02004   0.00000  Uiso   1.00
C466   C     0.53720   0.90736   0.47995   0.00000  Uiso   1.00
C467   C     0.35435   0.81222   0.28537   0.00000  Uiso   1.00
C468   C     0.64565   0.85444   0.21463   0.00000  Uiso   1.00
C469   C     0.64442   0.81266   0.28544   0.00000  Uiso   1.00
C470   C     0.35558   0.85400   0.21456   0.00000  Uiso   1.00
C471   C     0.62400   0.83361   0.24997   0.00000  Uiso   1.00
C472   C     0.37600   0.83306   0.25003   0.00000  Uiso   1.00
C473   C     0.53231   0.69085   0.26815   0.00000  Uiso   1.00
C474   C     0.46769   0.97582   0.23185   0.00000  Uiso   1.00
C475   C     0.46766   0.69041   0.23194   0.00000  Uiso   1.00
C476   C     0.53234   0.97625   0.26806   0.00000  Uiso   1.00
C477   C     0.49845   0.83321   0.16346   0.00000  Uiso   1.00
C478   C     0.50155   0.83346   0.33654   0.00000  Uiso   1.00
C479   C     0.52524   0.86817   0.40743   0.00000  Uiso   1.00
C480   C     0.47476   0.79851   0.09257   0.00000  Uiso   1.00
C481   C     0.50392   0.83368   0.38441   0.00000  Uiso   1.00
C482   C     0.49608   0.83299   0.11559   0.00000  Uiso   1.00
C483   C     0.48440   0.79841   0.40681   0.00000  Uiso   1.00
C484   C     0.51560   0.86826   0.09319   0.00000  Uiso   1.00
C485   C     0.48361   0.79769   0.45255   0.00000  Uiso   1.00
C486   C     0.51639   0.86898   0.04745   0.00000  Uiso   1.00
C487   C     0.50131   0.83376   0.47672   0.00000  Uiso   1.00
C488   C     0.49869   0.83291   0.02328   0.00000  Uiso   1.00
C489   C     0.52169   0.87040   0.45432   0.00000  Uiso   1.00
C490   C     0.47831   0.79627   0.04568   0.00000  Uiso   1.00
C491   C     0.46505   0.76100   0.47399   0.00000  Uiso   1.00
C492   C     0.53495   0.90568   0.02601   0.00000  Uiso   1.00
H493   H     0.46961   0.77116   0.38839   0.00000  Uiso   1.00
H494   H     0.53039   0.89550   0.11161   0.00000  Uiso   1.00
H495   H     0.45273   0.73295   0.45455   0.00000  Uiso   1.00
H496   H     0.54726   0.93373   0.04545   0.00000  Uiso   1.00
H497   H     0.55814   0.70912   0.28275   0.00000  Uiso   1.00
H498   H     0.44186   0.95755   0.21725   0.00000  Uiso   1.00
H499   H     0.44172   0.70833   0.21763   0.00000  Uiso   1.00
H500   H     0.55828   0.95834   0.28237   0.00000  Uiso   1.00
N501   N     0.50000   0.95240   0.25000   0.00000  Uiso   1.00
N502   N     0.50000   0.71427   0.25000   0.00000  Uiso   1.00
O503   O     0.43892   0.87154   0.25000   0.00000  Uiso   1.00
O504   O     0.56108   0.79513   0.25001   0.00000  Uiso   1.00
O505   O     0.56108   0.87154   0.25001   0.00000  Uiso   1.00
O506   O     0.43892   0.79513   0.25000   0.00000  Uiso   1.00
O507   O     0.49999   0.87156   0.18393   0.00000  Uiso   1.00
O508   O     0.50001   0.79511   0.31608   0.00000  Uiso   1.00
O509   O     0.50001   0.87156   0.31608   0.00000  Uiso   1.00
O510   O     0.49999   0.79511   0.18393   0.00000  Uiso   1.00
Zn511  Zn    0.50000   0.88437   0.25000   0.00000  Uiso   1.00
Zn512  Zn    0.50000   0.78229   0.25000   0.00000  Uiso   1.00
C513   C     0.55422   0.89678   0.38279   0.00000  Uiso   1.00
N514   N     0.57751   0.91917   0.36292   0.00000  Uiso   1.00
C515   C     0.44577   0.76989   0.11721   0.00000  Uiso   1.00
N516   N     0.42249   0.74750   0.13709   0.00000  Uiso   1.00
C517   C     0.44706   0.71749   0.03876   0.00000  Uiso   1.00
N518   N     0.43457   0.68378   0.05332   0.00000  Uiso   1.00
C519   C     0.55291   0.94920   0.46124   0.00000  Uiso   1.00
N520   N     0.56538   0.98291   0.44668   0.00000  Uiso   1.00
C521   C     0.37637   0.79137   0.32193   0.00000  Uiso   1.00
N522   N     0.39371   0.77464   0.35110   0.00000  Uiso   1.00
C523   C     0.62363   0.87530   0.17807   0.00000  Uiso   1.00
N524   N     0.60629   0.89203   0.14890   0.00000  Uiso   1.00
C525   C     0.62101   0.79298   0.32240   0.00000  Uiso   1.00
N526   N     0.60237   0.77735   0.35180   0.00000  Uiso   1.00
C527   C     0.37899   0.87369   0.17760   0.00000  Uiso   1.00
N528   N     0.39763   0.88931   0.14820   0.00000  Uiso   1.00
C529   C     0.75351   0.83325   0.25023   0.00000  Uiso   1.00
C530   C     0.91316   0.83342   0.24977   0.00000  Uiso   1.00
C531   C     0.79612   0.75932   0.02004   0.00000  Uiso   1.00
C532   C     0.87054   0.90736   0.47995   0.00000  Uiso   1.00
C533   C     0.68768   0.81222   0.28537   0.00000  Uiso   1.00
C534   C     0.97899   0.85444   0.21463   0.00000  Uiso   1.00
C535   C     0.97775   0.81266   0.28544   0.00000  Uiso   1.00
C536   C     0.68892   0.85400   0.21456   0.00000  Uiso   1.00
C537   C     0.95733   0.83361   0.24997   0.00000  Uiso   1.00
C538   C     0.70933   0.83306   0.25003   0.00000  Uiso   1.00
C539   C     0.86564   0.69085   0.26815   0.00000  Uiso   1.00
C540   C     0.80102   0.97582   0.23185   0.00000  Uiso   1.00
C541   C     0.80099   0.69041   0.23194   0.00000  Uiso   1.00
C542   C     0.86568   0.97625   0.26806   0.00000  Uiso   1.00
C543   C     0.83179   0.83321   0.16346   0.00000  Uiso   1.00
C544   C     0.83488   0.83346   0.33654   0.00000  Uiso   1.00
C545   C     0.85857   0.86817   0.40743   0.00000  Uiso   1.00
C546   C     0.80809   0.79851   0.09257   0.00000  Uiso   1.00
C547   C     0.83725   0.83368   0.38441   0.00000  Uiso   1.00
C548   C     0.82941   0.83299   0.11559   0.00000  Uiso   1.00
C549   C     0.81773   0.79841   0.40681   0.00000  Uiso   1.00
C550   C     0.84894   0.86826   0.09319   0.00000  Uiso   1.00
C551   C     0.81694   0.79769   0.45255   0.00000  Uiso   1.00
C552   C     0.84973   0.86898   0.04745   0.00000  Uiso   1.00
C553   C     0.83464   0.83376   0.47672   0.00000  Uiso   1.00
C554   C     0.83202   0.83291   0.02328   0.00000  Uiso   1.00
C555   C     0.85502   0.87040   0.45432   0.00000  Uiso   1.00
C556   C     0.81164   0.79627   0.04568   0.00000  Uiso   1.00
C557   C     0.79838   0.76100   0.47399   0.00000  Uiso   1.00
C558   C     0.86828   0.90568   0.02601   0.00000  Uiso   1.00
H559   H     0.80294   0.77116   0.38839   0.00000  Uiso   1.00
H560   H     0.86373   0.89550   0.11161   0.00000  Uiso   1.00
H561   H     0.78606   0.73295   0.45455   0.00000  Uiso   1.00
H562   H     0.88059   0.93373   0.04545   0.00000  Uiso   1.00
H563   H     0.89147   0.70912   0.28275   0.00000  Uiso   1.00
H564   H     0.77520   0.95755   0.21725   0.00000  Uiso   1.00
H565   H     0.77505   0.70833   0.21763   0.00000  Uiso   1.00
H566   H     0.89162   0.95834   0.28237   0.00000  Uiso   1.00
N567   N     0.83333   0.95240   0.25000   0.00000  Uiso   1.00
N568   N     0.83333   0.71427   0.25000   0.00000  Uiso   1.00
O569   O     0.77226   0.87154   0.25000   0.00000  Uiso   1.00
O570   O     0.89441   0.79513   0.25001   0.00000  Uiso   1.00
O571   O     0.89441   0.87154   0.25001   0.00000  Uiso   1.00
O572   O     0.77226   0.79513   0.25000   0.00000  Uiso   1.00
O573   O     0.83333   0.87156   0.18393   0.00000  Uiso   1.00
O574   O     0.83334   0.79511   0.31608   0.00000  Uiso   1.00
O575   O     0.83334   0.87156   0.31608   0.00000  Uiso   1.00
O576   O     0.83333   0.79511   0.18393   0.00000  Uiso   1.00
Zn577  Zn    0.83333   0.88437   0.25000   0.00000  Uiso   1.00
Zn578  Zn    0.83333   0.78229   0.25000   0.00000  Uiso   1.00
C579   C     0.88756   0.89678   0.38279   0.00000  Uiso   1.00
N580   N     0.91084   0.91917   0.36292   0.00000  Uiso   1.00
C581   C     0.77911   0.76989   0.11721   0.00000  Uiso   1.00
N582   N     0.75583   0.74750   0.13709   0.00000  Uiso   1.00
C583   C     0.78039   0.71749   0.03876   0.00000  Uiso   1.00
N584   N     0.76791   0.68378   0.05332   0.00000  Uiso   1.00
C585   C     0.88624   0.94920   0.46124   0.00000  Uiso   1.00
N586   N     0.89871   0.98291   0.44668   0.00000  Uiso   1.00
C587   C     0.70970   0.79137   0.32193   0.00000  Uiso   1.00
N588   N     0.72704   0.77464   0.35110   0.00000  Uiso   1.00
C589   C     0.95697   0.87530   0.17807   0.00000  Uiso   1.00
N590   N     0.93962   0.89203   0.14890   0.00000  Uiso   1.00
C591   C     0.95434   0.79298   0.32240   0.00000  Uiso   1.00
N592   N     0.93571   0.77735   0.35180   0.00000  Uiso   1.00
C593   C     0.71232   0.87369   0.17760   0.00000  Uiso   1.00
N594   N     0.73096   0.88931   0.14820   0.00000  Uiso   1.00
C595   C     0.08684   0.16658   0.75023   0.00000  Uiso   1.00
C596   C     0.24649   0.16675   0.74977   0.00000  Uiso   1.00
C597   C     0.12945   0.09265   0.52004   0.00000  Uiso   1.00
C598   C     0.20387   0.24069   0.97995   0.00000  Uiso   1.00
C599   C     0.02101   0.14556   0.78537   0.00000  Uiso   1.00
C600   C     0.31232   0.18777   0.71463   0.00000  Uiso   1.00
C601   C     0.31108   0.14600   0.78544   0.00000  Uiso   1.00
C602   C     0.02225   0.18734   0.71456   0.00000  Uiso   1.00
C603   C     0.29067   0.16694   0.74997   0.00000  Uiso   1.00
C604   C     0.04267   0.16639   0.75003   0.00000  Uiso   1.00
C605   C     0.19898   0.02418   0.76815   0.00000  Uiso   1.00
C606   C     0.13436   0.30915   0.73185   0.00000  Uiso   1.00
C607   C     0.13432   0.02375   0.73194   0.00000  Uiso   1.00
C608   C     0.19901   0.30959   0.76806   0.00000  Uiso   1.00
C609   C     0.16512   0.16654   0.66346   0.00000  Uiso   1.00
C610   C     0.16822   0.16679   0.83654   0.00000  Uiso   1.00
C611   C     0.19191   0.20150   0.90743   0.00000  Uiso   1.00
C612   C     0.14142   0.13184   0.59257   0.00000  Uiso   1.00
C613   C     0.17059   0.16702   0.88441   0.00000  Uiso   1.00
C614   C     0.16275   0.16632   0.61559   0.00000  Uiso   1.00
C615   C     0.15106   0.13174   0.90681   0.00000  Uiso   1.00
C616   C     0.18227   0.20159   0.59319   0.00000  Uiso   1.00
C617   C     0.15027   0.13103   0.95255   0.00000  Uiso   1.00
C618   C     0.18306   0.20231   0.54745   0.00000  Uiso   1.00
C619   C     0.16797   0.16710   0.97672   0.00000  Uiso   1.00
C620   C     0.16535   0.16624   0.52328   0.00000  Uiso   1.00
C621   C     0.18835   0.20373   0.95432   0.00000  Uiso   1.00
C622   C     0.14497   0.12961   0.54568   0.00000  Uiso   1.00
C623   C     0.13171   0.09433   0.97399   0.00000  Uiso   1.00
C624   C     0.20161   0.23901   0.52601   0.00000  Uiso   1.00
H625   H     0.13627   0.10450   0.88839   0.00000  Uiso   1.00
H626   H     0.19706   0.22884   0.61161   0.00000  Uiso   1.00
H627   H     0.11940   0.06628   0.95455   0.00000  Uiso   1.00
H628   H     0.21393   0.26706   0.54545   0.00000  Uiso   1.00
H629   H     0.22480   0.04245   0.78275   0.00000  Uiso   1.00
H630   H     0.10853   0.29088   0.71725   0.00000  Uiso   1.00
H631   H     0.10838   0.04166   0.71763   0.00000  Uiso   1.00
H632   H     0.22495   0.29167   0.78237   0.00000  Uiso   1.00
N633   N     0.16667   0.28573   0.75000   0.00000  Uiso   1.00
N634   N     0.16667   0.04760   0.75000   0.00000  Uiso   1.00
O635   O     0.10559   0.20487   0.75000   0.00000  Uiso   1.00
O636   O     0.22774   0.12846   0.75001   0.00000  Uiso   1.00
O637   O     0.22774   0.20487   0.75001   0.00000  Uiso   1.00
O638   O     0.10559   0.12846   0.75000   0.00000  Uiso   1.00
O639   O     0.16666   0.20489   0.68393   0.00000  Uiso   1.00
O640   O     0.16667   0.12844   0.81608   0.00000  Uiso   1.00
O641   O     0.16667   0.20489   0.81608   0.00000  Uiso   1.00
O642   O     0.16666   0.12844   0.68393   0.00000  Uiso   1.00
Zn643  Zn    0.16667   0.21771   0.75000   0.00000  Uiso   1.00
Zn644  Zn    0.16667   0.11563   0.75000   0.00000  Uiso   1.00
C645   C     0.22089   0.23012   0.88279   0.00000  Uiso   1.00
N646   N     0.24417   0.25251   0.86292   0.00000  Uiso   1.00
C647   C     0.11244   0.10322   0.61721   0.00000  Uiso   1.00
N648   N     0.08916   0.08083   0.63709   0.00000  Uiso   1.00
C649   C     0.11373   0.05082   0.53876   0.00000  Uiso   1.00
N650   N     0.10124   0.01711   0.55332   0.00000  Uiso   1.00
C651   C     0.21958   0.28253   0.96124   0.00000  Uiso   1.00
N652   N     0.23205   0.31625   0.94668   0.00000  Uiso   1.00
C653   C     0.04303   0.12470   0.82193   0.00000  Uiso   1.00
N654   N     0.06038   0.10797   0.85110   0.00000  Uiso   1.00
C655   C     0.29030   0.20863   0.67807   0.00000  Uiso   1.00
N656   N     0.27296   0.22536   0.64890   0.00000  Uiso   1.00
C657   C     0.28768   0.12631   0.82240   0.00000  Uiso   1.00
N658   N     0.26904   0.11069   0.85180   0.00000  Uiso   1.00
C659   C     0.04566   0.20702   0.67760   0.00000  Uiso   1.00
N660   N     0.06429   0.22265   0.64820   0.00000  Uiso   1.00
C661   C     0.42017   0.16658   0.75023   0.00000  Uiso   1.00
C662   C     0.57983   0.16675   0.74977   0.00000  Uiso   1.00
C663   C     0.46278   0.09265   0.52004   0.00000  Uiso   1.00
C664   C     0.53720   0.24069   0.97995   0.00000  Uiso   1.00
C665   C     0.35435   0.14556   0.78537   0.00000  Uiso   1.00
C666   C     0.64565   0.18777   0.71463   0.00000  Uiso   1.00
C667   C     0.64442   0.14600   0.78544   0.00000  Uiso   1.00
C668   C     0.35558   0.18734   0.71456   0.00000  Uiso   1.00
C669   C     0.62400   0.16694   0.74997   0.00000  Uiso   1.00
C670   C     0.37600   0.16639   0.75003   0.00000  Uiso   1.00
C671   C     0.53231   0.02418   0.76815   0.00000  Uiso   1.00
C672   C     0.46769   0.30915   0.73185   0.00000  Uiso   1.00
C673   C     0.46766   0.02375   0.73194   0.00000  Uiso   1.00
C674   C     0.53234   0.30959   0.76806   0.00000  Uiso   1.00
C675   C     0.49845   0.16654   0.66346   0.00000  Uiso   1.00
C676   C     0.50155   0.16679   0.83654   0.00000  Uiso   1.00
C677   C     0.52524   0.20150   0.90743   0.00000  Uiso   1.00
C678   C     0.47476   0.13184   0.59257   0.00000  Uiso   1.00
C679   C     0.50392   0.16702   0.88441   0.00000  Uiso   1.00
C680   C     0.49608   0.16632   0.61559   0.00000  Uiso   1.00
C681   C     0.48440   0.13174   0.90681   0.00000  Uiso   1.00
C682   C     0.51560   0.20159   0.59319   0.00000  Uiso   1.00
C683   C     0.48361   0.13103   0.95255   0.00000  Uiso   1.00
C684   C     0.51639   0.20231   0.54745   0.00000  Uiso   1.00
C685   C     0.50131   0.16710   0.97672   0.00000  Uiso   1.00
C686   C     0.49869   0.16624   0.52328   0.00000  Uiso   1.00
C687   C     0.52169   0.20373   0.95432   0.00000  Uiso   1.00
C688   C     0.47831   0.12961   0.54568   0.00000  Uiso   1.00
C689   C     0.46505   0.09433   0.97399   0.00000  Uiso   1.00
C690   C     0.53495   0.23901   0.52601   0.00000  Uiso   1.00
H691   H     0.46961   0.10450   0.88839   0.00000  Uiso   1.00
H692   H     0.53039   0.22884   0.61161   0.00000  Uiso   1.00
H693   H     0.45273   0.06628   0.95455   0.00000  Uiso   1.00
H694   H     0.54726   0.26706   0.54545   0.00000  Uiso   1.00
H695   H     0.55814   0.04245   0.78275   0.00000  Uiso   1.00
H696   H     0.44186   0.29088   0.71725   0.00000  Uiso   1.00
H697   H     0.44172   0.04166   0.71763   0.00000  Uiso   1.00
H698   H     0.55828   0.29167   0.78237   0.00000  Uiso   1.00
N699   N     0.50000   0.28573   0.75000   0.00000  Uiso   1.00
N700   N     0.50000   0.04760   0.75000   0.00000  Uiso   1.00
O701   O     0.43892   0.20487   0.75000   0.00000  Uiso   1.00
O702   O     0.56108   0.12846   0.75001   0.00000  Uiso   1.00
O703   O     0.56108   0.20487   0.75001   0.00000  Uiso   1.00
O704   O     0.43892   0.12846   0.75000   0.00000  Uiso   1.00
O705   O     0.49999   0.20489   0.68393   0.00000  Uiso   1.00
O706   O     0.50001   0.12844   0.81608   0.00000  Uiso   1.00
O707   O     0.50001   0.20489   0.81608   0.00000  Uiso   1.00
O708   O     0.49999   0.12844   0.68393   0.00000  Uiso   1.00
Zn709  Zn    0.50000   0.21771   0.75000   0.00000  Uiso   1.00
Zn710  Zn    0.50000   0.11563   0.75000   0.00000  Uiso   1.00
C711   C     0.55422   0.23012   0.88279   0.00000  Uiso   1.00
N712   N     0.57751   0.25251   0.86292   0.00000  Uiso   1.00
C713   C     0.44577   0.10322   0.61721   0.00000  Uiso   1.00
N714   N     0.42249   0.08083   0.63709   0.00000  Uiso   1.00
C715   C     0.44706   0.05082   0.53876   0.00000  Uiso   1.00
N716   N     0.43457   0.01711   0.55332   0.00000  Uiso   1.00
C717   C     0.55291   0.28253   0.96124   0.00000  Uiso   1.00
N718   N     0.56538   0.31625   0.94668   0.00000  Uiso   1.00
C719   C     0.37637   0.12470   0.82193   0.00000  Uiso   1.00
N720   N     0.39371   0.10797   0.85110   0.00000  Uiso   1.00
C721   C     0.62363   0.20863   0.67807   0.00000  Uiso   1.00
N722   N     0.60629   0.22536   0.64890   0.00000  Uiso   1.00
C723   C     0.62101   0.12631   0.82240   0.00000  Uiso   1.00
N724   N     0.60237   0.11069   0.85180   0.00000  Uiso   1.00
C725   C     0.37899   0.20702   0.67760   0.00000  Uiso   1.00
N726   N     0.39763   0.22265   0.64820   0.00000  Uiso   1.00
C727   C     0.75351   0.16658   0.75023   0.00000  Uiso   1.00
C728   C     0.91316   0.16675   0.74977   0.00000  Uiso   1.00
C729   C     0.79612   0.09265   0.52004   0.00000  Uiso   1.00
C730   C     0.87054   0.24069   0.97995   0.00000  Uiso   1.00
C731   C     0.68768   0.14556   0.78537   0.00000  Uiso   1.00
C732   C     0.97899   0.18777   0.71463   0.00000  Uiso   1.00
C733   C     0.97775   0.14600   0.78544   0.00000  Uiso   1.00
C734   C     0.68892   0.18734   0.71456   0.00000  Uiso   1.00
C735   C     0.95733   0.16694   0.74997   0.00000  Uiso   1.00
C736   C     0.70933   0.16639   0.75003   0.00000  Uiso   1.00
C737   C     0.86564   0.02418   0.76815   0.00000  Uiso   1.00
C738   C     0.80102   0.30915   0.73185   0.00000  Uiso   1.00
C739   C     0.80099   0.02375   0.73194   0.00000  Uiso   1.00
C740   C     0.86568   0.30959   0.76806   0.00000  Uiso   1.00
C741   C     0.83179   0.16654   0.66346   0.00000  Uiso   1.00
C742   C     0.83488   0.16679   0.83654   0.00000  Uiso   1.00
C743   C     0.85857   0.20150   0.90743   0.00000  Uiso   1.00
C744   C     0.80809   0.13184   0.59257   0.00000  Uiso   1.00
C745   C     0.83725   0.16702   0.88441   0.00000  Uiso   1.00
C746   C     0.82941   0.16632   0.61559   0.00000  Uiso   1.00
C747   C     0.81773   0.13174   0.90681   0.00000  Uiso   1.00
C748   C     0.84894   0.20159   0.59319   0.00000  Uiso   1.00
C749   C     0.81694   0.13103   0.95255   0.00000  Uiso   1.00
C750   C     0.84973   0.20231   0.54745   0.00000  Uiso   1.00
C751   C     0.83464   0.16710   0.97672   0.00000  Uiso   1.00
C752   C     0.83202   0.16624   0.52328   0.00000  Uiso   1.00
C753   C     0.85502   0.20373   0.95432   0.00000  Uiso   1.00
C754   C     0.81164   0.12961   0.54568   0.00000  Uiso   1.00
C755   C     0.79838   0.09433   0.97399   0.00000  Uiso   1.00
C756   C     0.86828   0.23901   0.52601   0.00000  Uiso   1.00
H757   H     0.80294   0.10450   0.88839   0.00000  Uiso   1.00
H758   H     0.86373   0.22884   0.61161   0.00000  Uiso   1.00
H759   H     0.78606   0.06628   0.95455   0.00000  Uiso   1.00
H760   H     0.88059   0.26706   0.54545   0.00000  Uiso   1.00
H761   H     0.89147   0.04245   0.78275   0.00000  Uiso   1.00
H762   H     0.77520   0.29088   0.71725   0.00000  Uiso   1.00
H763   H     0.77505   0.04166   0.71763   0.00000  Uiso   1.00
H764   H     0.89162   0.29167   0.78237   0.00000  Uiso   1.00
N765   N     0.83333   0.28573   0.75000   0.00000  Uiso   1.00
N766   N     0.83333   0.04760   0.75000   0.00000  Uiso   1.00
O767   O     0.77226   0.20487   0.75000   0.00000  Uiso   1.00
O768   O     0.89441   0.12846   0.75001   0.00000  Uiso   1.00
O769   O     0.89441   0.20487   0.75001   0.00000  Uiso   1.00
O770   O     0.77226   0.12846   0.75000   0.00000  Uiso   1.00
O771   O     0.83333   0.20489   0.68393   0.00000  Uiso   1.00
O772   O     0.83334   0.12844   0.81608   0.00000  Uiso   1.00
O773   O     0.83334   0.20489   0.81608   0.00000  Uiso   1.00
O774   O     0.83333   0.12844   0.68393   0.00000  Uiso   1.00
Zn775  Zn    0.83333   0.21771   0.75000   0.00000  Uiso   1.00
Zn776  Zn    0.83333   0.11563   0.75000   0.00000  Uiso   1.00
C777   C     0.88756   0.23012   0.88279   0.00000  Uiso   1.00
N778   N     0.91084   0.25251   0.86292   0.00000  Uiso   1.00
C779   C     0.77911   0.10322   0.61721   0.00000  Uiso   1.00
N780   N     0.75583   0.08083   0.63709   0.00000  Uiso   1.00
C781   C     0.78039   0.05082   0.53876   0.00000  Uiso   1.00
N782   N     0.76791   0.01711   0.55332   0.00000  Uiso   1.00
C783   C     0.88624   0.28253   0.96124   0.00000  Uiso   1.00
N784   N     0.89871   0.31625   0.94668   0.00000  Uiso   1.00
C785   C     0.70970   0.12470   0.82193   0.00000  Uiso   1.00
N786   N     0.72704   0.10797   0.85110   0.00000  Uiso   1.00
C787   C     0.95697   0.20863   0.67807   0.00000  Uiso   1.00
N788   N     0.93962   0.22536   0.64890   0.00000  Uiso   1.00
C789   C     0.95434   0.12631   0.82240   0.00000  Uiso   1.00
N790   N     0.93571   0.11069   0.85180   0.00000  Uiso   1.00
C791   C     0.71232   0.20702   0.67760   0.00000  Uiso   1.00
N792   N     0.73096   0.22265   0.64820   0.00000  Uiso   1.00
C793   C     0.08684   0.49991   0.75023   0.00000  Uiso   1.00
C794   C     0.24649   0.50009   0.74977   0.00000  Uiso   1.00
C795   C     0.12945   0.42598   0.52004   0.00000  Uiso   1.00
C796   C     0.20387   0.57403   0.97995   0.00000  Uiso   1.00
C797   C     0.02101   0.47889   0.78537   0.00000  Uiso   1.00
C798   C     0.31232   0.52111   0.71463   0.00000  Uiso   1.00
C799   C     0.31108   0.47933   0.78544   0.00000  Uiso   1.00
C800   C     0.02225   0.52067   0.71456   0.00000  Uiso   1.00
C801   C     0.29067   0.50028   0.74997   0.00000  Uiso   1.00
C802   C     0.04267   0.49972   0.75003   0.00000  Uiso   1.00
C803   C     0.19898   0.35752   0.76815   0.00000  Uiso   1.00
C804   C     0.13436   0.64248   0.73185   0.00000  Uiso   1.00
C805   C     0.13432   0.35708   0.73194   0.00000  Uiso   1.00
C806   C     0.19901   0.64292   0.76806   0.00000  Uiso   1.00
C807   C     0.16512   0.49988   0.66346   0.00000  Uiso   1.00
C808   C     0.16822   0.50012   0.83654   0.00000  Uiso   1.00
C809   C     0.19191   0.53483   0.90743   0.00000  Uiso   1.00
C810   C     0.14142   0.46517   0.59257   0.00000  Uiso   1.00
C811   C     0.17059   0.50035   0.88441   0.00000  Uiso   1.00
C812   C     0.16275   0.49965   0.61559   0.00000  Uiso   1.00
C813   C     0.15106   0.46508   0.90681   0.00000  Uiso   1.00
C814   C     0.18227   0.53493   0.59319   0.00000  Uiso   1.00
C815   C     0.15027   0.46436   0.95255   0.00000  Uiso   1.00
C816   C     0.18306   0.53565   0.54745   0.00000  Uiso   1.00
C817   C     0.16797   0.50043   0.97672   0.00000  Uiso   1.00
C818   C     0.16535   0.49957   0.52328   0.00000  Uiso   1.00
C819   C     0.18835   0.53707   0.95432   0.00000  Uiso   1.00
C820   C     0.14497   0.46294   0.54568   0.00000  Uiso   1.00
C821   C     0.13171   0.42766   0.97399   0.00000  Uiso   1.00
C822   C     0.20161   0.57234   0.52601   0.00000  Uiso   1.00
H823   H     0.13627   0.43783   0.88839   0.00000  Uiso   1.00
H824   H     0.19706   0.56217   0.61161   0.00000  Uiso   1.00
H825   H     0.11940   0.39962   0.95455   0.00000  Uiso   1.00
H826   H     0.21393   0.60039   0.54545   0.00000  Uiso   1.00
H827   H     0.22480   0.37578   0.78275   0.00000  Uiso   1.00
H828   H     0.10853   0.62422   0.71725   0.00000  Uiso   1.00
H829   H     0.10838   0.37499   0.71763   0.00000  Uiso   1.00
H830   H     0.22495   0.62501   0.78237   0.00000  Uiso   1.00
N831   N     0.16667   0.61907   0.75000   0.00000  Uiso   1.00
N832   N     0.16667   0.38093   0.75000   0.00000  Uiso   1.00
O833   O     0.10559   0.53821   0.75000   0.00000  Uiso   1.00
O834   O     0.22774   0.46179   0.75001   0.00000  Uiso   1.00
O835   O     0.22774   0.53821   0.75001   0.00000  Uiso   1.00
O836   O     0.10559   0.46179   0.75000   0.00000  Uiso   1.00
O837   O     0.16666   0.53823   0.68393   0.00000  Uiso   1.00
O838   O     0.16667   0.46177   0.81608   0.00000  Uiso   1.00
O839   O     0.16667   0.53823   0.81608   0.00000  Uiso   1.00
O840   O     0.16666   0.46177   0.68393   0.00000  Uiso   1.00
Zn841  Zn    0.16667   0.55104   0.75000   0.00000  Uiso   1.00
Zn842  Zn    0.16667   0.44896   0.75000   0.00000  Uiso   1.00
C843   C     0.22089   0.56345   0.88279   0.00000  Uiso   1.00
N844   N     0.24417   0.58584   0.86292   0.00000  Uiso   1.00
C845   C     0.11244   0.43655   0.61721   0.00000  Uiso   1.00
N846   N     0.08916   0.41417   0.63709   0.00000  Uiso   1.00
C847   C     0.11373   0.38415   0.53876   0.00000  Uiso   1.00
N848   N     0.10124   0.35044   0.55332   0.00000  Uiso   1.00
C849   C     0.21958   0.61586   0.96124   0.00000  Uiso   1.00
N850   N     0.23205   0.64958   0.94668   0.00000  Uiso   1.00
C851   C     0.04303   0.45803   0.82193   0.00000  Uiso   1.00
N852   N     0.06038   0.44130   0.85110   0.00000  Uiso   1.00
C853   C     0.29030   0.54197   0.67807   0.00000  Uiso   1.00
N854   N     0.27296   0.55870   0.64890   0.00000  Uiso   1.00
C855   C     0.28768   0.45964   0.82240   0.00000  Uiso   1.00
N856   N     0.26904   0.44402   0.85180   0.00000  Uiso   1.00
C857   C     0.04566   0.54036   0.67760   0.00000  Uiso   1.00
N858   N     0.06429   0.55598   0.64820   0.00000  Uiso   1.00
C859   C     0.42017   0.49991   0.75023   0.00000  Uiso   1.00
C860   C     0.57983   0.50009   0.74977   0.00000  Uiso   1.00
C861   C     0.46278   0.42598   0.52004   0.00000  Uiso   1.00
C862   C     0.53720   0.57403   0.97995   0.00000  Uiso   1.00
C863   C     0.35435   0.47889   0.78537   0.00000  Uiso   1.00
C864   C     0.64565   0.52111   0.71463   0.00000  Uiso   1.00
C865   C     0.64442   0.47933   0.78544   0.00000  Uiso   1.00
C866   C     0.35558   0.52067   0.71456   0.00000  Uiso   1.00
C867   C     0.62400   0.50028   0.74997   0.00000  Uiso   1.00
C868   C     0.37600   0.49972   0.75003   0.00000  Uiso   1.00
C869   C     0.53231   0.35752   0.76815   0.00000  Uiso   1.00
C870   C     0.46769   0.64248   0.73185   0.00000  Uiso   1.00
C871   C     0.46766   0.35708   0.73194   0.00000  Uiso   1.00
C872   C     0.53234   0.64292   0.76806   0.00000  Uiso   1.00
C873   C     0.49845   0.49988   0.66346   0.00000  Uiso   1.00
C874   C     0.50155   0.50012   0.83654   0.00000  Uiso   1.00
C875   C     0.52524   0.53483   0.90743   0.00000  Uiso   1.00
C876   C     0.47476   0.46517   0.59257   0.00000  Uiso   1.00
C877   C     0.50392   0.50035   0.88441   0.00000  Uiso   1.00
C878   C     0.49608   0.49965   0.61559   0.00000  Uiso   1.00
C879   C     0.48440   0.46508   0.90681   0.00000  Uiso   1.00
C880   C     0.51560   0.53493   0.59319   0.00000  Uiso   1.00
C881   C     0.48361   0.46436   0.95255   0.00000  Uiso   1.00
C882   C     0.51639   0.53565   0.54745   0.00000  Uiso   1.00
C883   C     0.50131   0.50043   0.97672   0.00000  Uiso   1.00
C884   C     0.49869   0.49957   0.52328   0.00000  Uiso   1.00
C885   C     0.52169   0.53707   0.95432   0.00000  Uiso   1.00
C886   C     0.47831   0.46294   0.54568   0.00000  Uiso   1.00
C887   C     0.46505   0.42766   0.97399   0.00000  Uiso   1.00
C888   C     0.53495   0.57234   0.52601   0.00000  Uiso   1.00
H889   H     0.46961   0.43783   0.88839   0.00000  Uiso   1.00
H890   H     0.53039   0.56217   0.61161   0.00000  Uiso   1.00
H891   H     0.45273   0.39962   0.95455   0.00000  Uiso   1.00
H892   H     0.54726   0.60039   0.54545   0.00000  Uiso   1.00
H893   H     0.55814   0.37578   0.78275   0.00000  Uiso   1.00
H894   H     0.44186   0.62422   0.71725   0.00000  Uiso   1.00
H895   H     0.44172   0.37499   0.71763   0.00000  Uiso   1.00
H896   H     0.55828   0.62501   0.78237   0.00000  Uiso   1.00
N897   N     0.50000   0.61907   0.75000   0.00000  Uiso   1.00
N898   N     0.50000   0.38093   0.75000   0.00000  Uiso   1.00
O899   O     0.43892   0.53821   0.75000   0.00000  Uiso   1.00
O900   O     0.56108   0.46179   0.75001   0.00000  Uiso   1.00
O901   O     0.56108   0.53821   0.75001   0.00000  Uiso   1.00
O902   O     0.43892   0.46179   0.75000   0.00000  Uiso   1.00
O903   O     0.49999   0.53823   0.68393   0.00000  Uiso   1.00
O904   O     0.50001   0.46177   0.81608   0.00000  Uiso   1.00
O905   O     0.50001   0.53823   0.81608   0.00000  Uiso   1.00
O906   O     0.49999   0.46177   0.68393   0.00000  Uiso   1.00
Zn907  Zn    0.50000   0.55104   0.75000   0.00000  Uiso   1.00
Zn908  Zn    0.50000   0.44896   0.75000   0.00000  Uiso   1.00
C909   C     0.55422   0.56345   0.88279   0.00000  Uiso   1.00
N910   N     0.57751   0.58584   0.86292   0.00000  Uiso   1.00
C911   C     0.44577   0.43655   0.61721   0.00000  Uiso   1.00
N912   N     0.42249   0.41417   0.63709   0.00000  Uiso   1.00
C913   C     0.44706   0.38415   0.53876   0.00000  Uiso   1.00
N914   N     0.43457   0.35044   0.55332   0.00000  Uiso   1.00
C915   C     0.55291   0.61586   0.96124   0.00000  Uiso   1.00
N916   N     0.56538   0.64958   0.94668   0.00000  Uiso   1.00
C917   C     0.37637   0.45803   0.82193   0.00000  Uiso   1.00
N918   N     0.39371   0.44130   0.85110   0.00000  Uiso   1.00
C919   C     0.62363   0.54197   0.67807   0.00000  Uiso   1.00
N920   N     0.60629   0.55870   0.64890   0.00000  Uiso   1.00
C921   C     0.62101   0.45964   0.82240   0.00000  Uiso   1.00
N922   N     0.60237   0.44402   0.85180   0.00000  Uiso   1.00
C923   C     0.37899   0.54036   0.67760   0.00000  Uiso   1.00
N924   N     0.39763   0.55598   0.64820   0.00000  Uiso   1.00
C925   C     0.75351   0.49991   0.75023   0.00000  Uiso   1.00
C926   C     0.91316   0.50009   0.74977   0.00000  Uiso   1.00
C927   C     0.79612   0.42598   0.52004   0.00000  Uiso   1.00
C928   C     0.87054   0.57403   0.97995   0.00000  Uiso   1.00
C929   C     0.68768   0.47889   0.78537   0.00000  Uiso   1.00
C930   C     0.97899   0.52111   0.71463   0.00000  Uiso   1.00
C931   C     0.97775   0.47933   0.78544   0.00000  Uiso   1.00
C932   C     0.68892   0.52067   0.71456   0.00000  Uiso   1.00
C933   C     0.95733   0.50028   0.74997   0.00000  Uiso   1.00
C934   C     0.70933   0.49972   0.75003   0.00000  Uiso   1.00
C935   C     0.86564   0.35752   0.76815   0.00000  Uiso   1.00
C936   C     0.80102   0.64248   0.73185   0.00000  Uiso   1.00
C937   C     0.80099   0.35708   0.73194   0.00000  Uiso   1.00
C938   C     0.86568   0.64292   0.76806   0.00000  Uiso   1.00
C939   C     0.83179   0.49988   0.66346   0.00000  Uiso   1.00
C940   C     0.83488   0.50012   0.83654   0.00000  Uiso   1.00
C941   C     0.85857   0.53483   0.90743   0.00000  Uiso   1.00
C942   C     0.80809   0.46517   0.59257   0.00000  Uiso   1.00
C943   C     0.83725   0.50035   0.88441   0.00000  Uiso   1.00
C944   C     0.82941   0.49965   0.61559   0.00000  Uiso   1.00
C945   C     0.81773   0.46508   0.90681   0.00000  Uiso   1.00
C946   C     0.84894   0.53493   0.59319   0.00000  Uiso   1.00
C947   C     0.81694   0.46436   0.95255   0.00000  Uiso   1.00
C948   C     0.84973   0.53565   0.54745   0.00000  Uiso   1.00
C949   C     0.83464   0.50043   0.97672   0.00000  Uiso   1.00
C950   C     0.83202   0.49957   0.52328   0.00000  Uiso   1.00
C951   C     0.85502   0.53707   0.95432   0.00000  Uiso   1.00
C952   C     0.81164   0.46294   0.54568   0.00000  Uiso   1.00
C953   C     0.79838   0.42766   0.97399   0.00000  Uiso   1.00
C954   C     0.86828   0.57234   0.52601   0.00000  Uiso   1.00
H955   H     0.80294   0.43783   0.88839   0.00000  Uiso   1.00
H956   H     0.86373   0.56217   0.61161   0.00000  Uiso   1.00
H957   H     0.78606   0.39962   0.95455   0.00000  Uiso   1.00
H958   H     0.88059   0.60039   0.54545   0.00000  Uiso   1.00
H959   H     0.89147   0.37578   0.78275   0.00000  Uiso   1.00
H960   H     0.77520   0.62422   0.71725   0.00000  Uiso   1.00
H961   H     0.77505   0.37499   0.71763   0.00000  Uiso   1.00
H962   H     0.89162   0.62501   0.78237   0.00000  Uiso   1.00
N963   N     0.83333   0.61907   0.75000   0.00000  Uiso   1.00
N964   N     0.83333   0.38093   0.75000   0.00000  Uiso   1.00
O965   O     0.77226   0.53821   0.75000   0.00000  Uiso   1.00
O966   O     0.89441   0.46179   0.75001   0.00000  Uiso   1.00
O967   O     0.89441   0.53821   0.75001   0.00000  Uiso   1.00
O968   O     0.77226   0.46179   0.75000   0.00000  Uiso   1.00
O969   O     0.83333   0.53823   0.68393   0.00000  Uiso   1.00
O970   O     0.83334   0.46177   0.81608   0.00000  Uiso   1.00
O971   O     0.83334   0.53823   0.81608   0.00000  Uiso   1.00
O972   O     0.83333   0.46177   0.68393   0.00000  Uiso   1.00
Zn973  Zn    0.83333   0.55104   0.75000   0.00000  Uiso   1.00
Zn974  Zn    0.83333   0.44896   0.75000   0.00000  Uiso   1.00
C975   C     0.88756   0.56345   0.88279   0.00000  Uiso   1.00
N976   N     0.91084   0.58584   0.86292   0.00000  Uiso   1.00
C977   C     0.77911   0.43655   0.61721   0.00000  Uiso   1.00
N978   N     0.75583   0.41417   0.63709   0.00000  Uiso   1.00
C979   C     0.78039   0.38415   0.53876   0.00000  Uiso   1.00
N980   N     0.76791   0.35044   0.55332   0.00000  Uiso   1.00
C981   C     0.88624   0.61586   0.96124   0.00000  Uiso   1.00
N982   N     0.89871   0.64958   0.94668   0.00000  Uiso   1.00
C983   C     0.70970   0.45803   0.82193   0.00000  Uiso   1.00
N984   N     0.72704   0.44130   0.85110   0.00000  Uiso   1.00
C985   C     0.95697   0.54197   0.67807   0.00000  Uiso   1.00
N986   N     0.93962   0.55870   0.64890   0.00000  Uiso   1.00
C987   C     0.95434   0.45964   0.82240   0.00000  Uiso   1.00
N988   N     0.93571   0.44402   0.85180   0.00000  Uiso   1.00
C989   C     0.71232   0.54036   0.67760   0.00000  Uiso   1.00
N990   N     0.73096   0.55598   0.64820   0.00000  Uiso   1.00
C991   C     0.08684   0.83325   0.75023   0.00000  Uiso   1.00
C992   C     0.24649   0.83342   0.74977   0.00000  Uiso   1.00
C993   C     0.12945   0.75932   0.52004   0.00000  Uiso   1.00
C994   C     0.20387   0.90736   0.97995   0.00000  Uiso   1.00
C995   C     0.02101   0.81222   0.78537   0.00000  Uiso   1.00
C996   C     0.31232   0.85444   0.71463   0.00000  Uiso   1.00
C997   C     0.31108   0.81266   0.78544   0.00000  Uiso   1.00
C998   C     0.02225   0.85400   0.71456   0.00000  Uiso   1.00
C999   C     0.29067   0.83361   0.74997   0.00000  Uiso   1.00
C1000  C     0.04267   0.83306   0.75003   0.00000  Uiso   1.00
C1001  C     0.19898   0.69085   0.76815   0.00000  Uiso   1.00
C1002  C     0.13436   0.97582   0.73185   0.00000  Uiso   1.00
C1003  C     0.13432   0.69041   0.73194   0.00000  Uiso   1.00
C1004  C     0.19901   0.97625   0.76806   0.00000  Uiso   1.00
C1005  C     0.16512   0.83321   0.66346   0.00000  Uiso   1.00
C1006  C     0.16822   0.83346   0.83654   0.00000  Uiso   1.00
C1007  C     0.19191   0.86817   0.90743   0.00000  Uiso   1.00
C1008  C     0.14142   0.79851   0.59257   0.00000  Uiso   1.00
C1009  C     0.17059   0.83368   0.88441   0.00000  Uiso   1.00
C1010  C     0.16275   0.83299   0.61559   0.00000  Uiso   1.00
C1011  C     0.15106   0.79841   0.90681   0.00000  Uiso   1.00
C1012  C     0.18227   0.86826   0.59319   0.00000  Uiso   1.00
C1013  C     0.15027   0.79769   0.95255   0.00000  Uiso   1.00
C1014  C     0.18306   0.86898   0.54745   0.00000  Uiso   1.00
C1015  C     0.16797   0.83376   0.97672   0.00000  Uiso   1.00
C1016  C     0.16535   0.83291   0.52328   0.00000  Uiso   1.00
C1017  C     0.18835   0.87040   0.95432   0.00000  Uiso   1.00
C1018  C     0.14497   0.79627   0.54568   0.00000  Uiso   1.00
C1019  C     0.13171   0.76100   0.97399   0.00000  Uiso   1.00
C1020  C     0.20161   0.90568   0.52601   0.00000  Uiso   1.00
H1021  H     0.13627   0.77116   0.88839   0.00000  Uiso   1.00
H1022  H     0.19706   0.89550   0.61161   0.00000  Uiso   1.00
H1023  H     0.11940   0.73295   0.95455   0.00000  Uiso   1.00
H1024  H     0.21393   0.93373   0.54545   0.00000  Uiso   1.00
H1025  H     0.22480   0.70912   0.78275   0.00000  Uiso   1.00
H1026  H     0.10853   0.95755   0.71725   0.00000  Uiso   1.00
H1027  H     0.10838   0.70833   0.71763   0.00000  Uiso   1.00
H1028  H     0.22495   0.95834   0.78237   0.00000  Uiso   1.00
N1029  N     0.16667   0.95240   0.75000   0.00000  Uiso   1.00
N1030  N     0.16667   0.71427   0.75000   0.00000  Uiso   1.00
O1031  O     0.10559   0.87154   0.75000   0.00000  Uiso   1.00
O1032  O     0.22774   0.79513   0.75001   0.00000  Uiso   1.00
O1033  O     0.22774   0.87154   0.75001   0.00000  Uiso   1.00
O1034  O     0.10559   0.79513   0.75000   0.00000  Uiso   1.00
O1035  O     0.16666   0.87156   0.68393   0.00000  Uiso   1.00
O1036  O     0.16667   0.79511   0.81608   0.00000  Uiso   1.00
O1037  O     0.16667   0.87156   0.81608   0.00000  Uiso   1.00
O1038  O     0.16666   0.79511   0.68393   0.00000  Uiso   1.00
Zn1039 Zn    0.16667   0.88437   0.75000   0.00000  Uiso   1.00
Zn1040 Zn    0.16667   0.78229   0.75000   0.00000  Uiso   1.00
C1041  C     0.22089   0.89678   0.88279   0.00000  Uiso   1.00
N1042  N     0.24417   0.91917   0.86292   0.00000  Uiso   1.00
C1043  C     0.11244   0.76989   0.61721   0.00000  Uiso   1.00
N1044  N     0.08916   0.74750   0.63709   0.00000  Uiso   1.00
C1045  C     0.11373   0.71749   0.53876   0.00000  Uiso   1.00
N1046  N     0.10124   0.68378   0.55332   0.00000  Uiso   1.00
C1047  C     0.21958   0.94920   0.96124   0.00000  Uiso   1.00
N1048  N     0.23205   0.98291   0.94668   0.00000  Uiso   1.00
C1049  C     0.04303   0.79137   0.82193   0.00000  Uiso   1.00
N1050  N     0.06038   0.77464   0.85110   0.00000  Uiso   1.00
C1051  C     0.29030   0.87530   0.67807   0.00000  Uiso   1.00
N1052  N     0.27296   0.89203   0.64890   0.00000  Uiso   1.00
C1053  C     0.28768   0.79298   0.82240   0.00000  Uiso   1.00
N1054  N     0.26904   0.77735   0.85180   0.00000  Uiso   1.00
C1055  C     0.04566   0.87369   0.67760   0.00000  Uiso   1.00
N1056  N     0.06429   0.88931   0.64820   0.00000  Uiso   1.00
C1057  C     0.42017   0.83325   0.75023   0.00000  Uiso   1.00
C1058  C     0.57983   0.83342   0.74977   0.00000  Uiso   1.00
C1059  C     0.46278   0.75932   0.52004   0.00000  Uiso   1.00
C1060  C     0.53720   0.90736   0.97995   0.00000  Uiso   1.00
C1061  C     0.35435   0.81222   0.78537   0.00000  Uiso   1.00
C1062  C     0.64565   0.85444   0.71463   0.00000  Uiso   1.00
C1063  C     0.64442   0.81266   0.78544   0.00000  Uiso   1.00
C1064  C     0.35558   0.85400   0.71456   0.00000  Uiso   1.00
C1065  C     0.62400   0.83361   0.74997   0.00000  Uiso   1.00
C1066  C     0.37600   0.83306   0.75003   0.00000  Uiso   1.00
C1067  C     0.53231   0.69085   0.76815   0.00000  Uiso   1.00
C1068  C     0.46769   0.97582   0.73185   0.00000  Uiso   1.00
C1069  C     0.46766   0.69041   0.73194   0.00000  Uiso   1.00
C1070  C     0.53234   0.97625   0.76806   0.00000  Uiso   1.00
C1071  C     0.49845   0.83321   0.66346   0.00000  Uiso   1.00
C1072  C     0.50155   0.83346   0.83654   0.00000  Uiso   1.00
C1073  C     0.52524   0.86817   0.90743   0.00000  Uiso   1.00
C1074  C     0.47476   0.79851   0.59257   0.00000  Uiso   1.00
C1075  C     0.50392   0.83368   0.88441   0.00000  Uiso   1.00
C1076  C     0.49608   0.83299   0.61559   0.00000  Uiso   1.00
C1077  C     0.48440   0.79841   0.90681   0.00000  Uiso   1.00
C1078  C     0.51560   0.86826   0.59319   0.00000  Uiso   1.00
C1079  C     0.48361   0.79769   0.95255   0.00000  Uiso   1.00
C1080  C     0.51639   0.86898   0.54745   0.00000  Uiso   1.00
C1081  C     0.50131   0.83376   0.97672   0.00000  Uiso   1.00
C1082  C     0.49869   0.83291   0.52328   0.00000  Uiso   1.00
C1083  C     0.52169   0.87040   0.95432   0.00000  Uiso   1.00
C1084  C     0.47831   0.79627   0.54568   0.00000  Uiso   1.00
C1085  C     0.46505   0.76100   0.97399   0.00000  Uiso   1.00
C1086  C     0.53495   0.90568   0.52601   0.00000  Uiso   1.00
H1087  H     0.46961   0.77116   0.88839   0.00000  Uiso   1.00
H1088  H     0.53039   0.89550   0.61161   0.00000  Uiso   1.00
H1089  H     0.45273   0.73295   0.95455   0.00000  Uiso   1.00
H1090  H     0.54726   0.93373   0.54545   0.00000  Uiso   1.00
H1091  H     0.55814   0.70912   0.78275   0.00000  Uiso   1.00
H1092  H     0.44186   0.95755   0.71725   0.00000  Uiso   1.00
H1093  H     0.44172   0.70833   0.71763   0.00000  Uiso   1.00
H1094  H     0.55828   0.95834   0.78237   0.00000  Uiso   1.00
N1095  N     0.50000   0.95240   0.75000   0.00000  Uiso   1.00
N1096  N     0.50000   0.71427   0.75000   0.00000  Uiso   1.00
O1097  O     0.43892   0.87154   0.75000   0.00000  Uiso   1.00
O1098  O     0.56108   0.79513   0.75001   0.00000  Uiso   1.00
O1099  O     0.56108   0.87154   0.75001   0.00000  Uiso   1.00
O1100  O     0.43892   0.79513   0.75000   0.00000  Uiso   1.00
O1101  O     0.49999   0.87156   0.68393   0.00000  Uiso   1.00
O1102  O     0.50001   0.79511   0.81608   0.00000  Uiso   1.00
O1103  O     0.50001   0.87156   0.81608   0.00000  Uiso   1.00
O1104  O     0.49999   0.79511   0.68393   0.00000  Uiso   1.00
Zn1105 Zn    0.50000   0.88437   0.75000   0.00000  Uiso   1.00
Zn1106 Zn    0.50000   0.78229   0.75000   0.00000  Uiso   1.00
C1107  C     0.55422   0.89678   0.88279   0.00000  Uiso   1.00
N1108  N     0.57751   0.91917   0.86292   0.00000  Uiso   1.00
C1109  C     0.44577   0.76989   0.61721   0.00000  Uiso   1.00
N1110  N     0.42249   0.74750   0.63709   0.00000  Uiso   1.00
C1111  C     0.44706   0.71749   0.53876   0.00000  Uiso   1.00
N1112  N     0.43457   0.68378   0.55332   0.00000  Uiso   1.00
C1113  C     0.55291   0.94920   0.96124   0.00000  Uiso   1.00
N1114  N     0.56538   0.98291   0.94668   0.00000  Uiso   1.00
C1115  C     0.37637   0.79137   0.82193   0.00000  Uiso   1.00
N1116  N     0.39371   0.77464   0.85110   0.00000  Uiso   1.00
C1117  C     0.62363   0.87530   0.67807   0.00000  Uiso   1.00
N1118  N     0.60629   0.89203   0.64890   0.00000  Uiso   1.00
C1119  C     0.62101   0.79298   0.82240   0.00000  Uiso   1.00
N1120  N     0.60237   0.77735   0.85180   0.00000  Uiso   1.00
C1121  C     0.37899   0.87369   0.67760   0.00000  Uiso   1.00
N1122  N     0.39763   0.88931   0.64820   0.00000  Uiso   1.00
C1123  C     0.75351   0.83325   0.75023   0.00000  Uiso   1.00
C1124  C     0.91316   0.83342   0.74977   0.00000  Uiso   1.00
C1125  C     0.79612   0.75932   0.52004   0.00000  Uiso   1.00
C1126  C     0.87054   0.90736   0.97995   0.00000  Uiso   1.00
C1127  C     0.68768   0.81222   0.78537   0.00000  Uiso   1.00
C1128  C     0.97899   0.85444   0.71463   0.00000  Uiso   1.00
C1129  C     0.97775   0.81266   0.78544   0.00000  Uiso   1.00
C1130  C     0.68892   0.85400   0.71456   0.00000  Uiso   1.00
C1131  C     0.95733   0.83361   0.74997   0.00000  Uiso   1.00
C1132  C     0.70933   0.83306   0.75003   0.00000  Uiso   1.00
C1133  C     0.86564   0.69085   0.76815   0.00000  Uiso   1.00
C1134  C     0.80102   0.97582   0.73185   0.00000  Uiso   1.00
C1135  C     0.80099   0.69041   0.73194   0.00000  Uiso   1.00
C1136  C     0.86568   0.97625   0.76806   0.00000  Uiso   1.00
C1137  C     0.83179   0.83321   0.66346   0.00000  Uiso   1.00
C1138  C     0.83488   0.83346   0.83654   0.00000  Uiso   1.00
C1139  C     0.85857   0.86817   0.90743   0.00000  Uiso   1.00
C1140  C     0.80809   0.79851   0.59257   0.00000  Uiso   1.00
C1141  C     0.83725   0.83368   0.88441   0.00000  Uiso   1.00
C1142  C     0.82941   0.83299   0.61559   0.00000  Uiso   1.00
C1143  C     0.81773   0.79841   0.90681   0.00000  Uiso   1.00
C1144  C     0.84894   0.86826   0.59319   0.00000  Uiso   1.00
C1145  C     0.81694   0.79769   0.95255   0.00000  Uiso   1.00
C1146  C     0.84973   0.86898   0.54745   0.00000  Uiso   1.00
C1147  C     0.83464   0.83376   0.97672   0.00000  Uiso   1.00
C1148  C     0.83202   0.83291   0.52328   0.00000  Uiso   1.00
C1149  C     0.85502   0.87040   0.95432   0.00000  Uiso   1.00
C1150  C     0.81164   0.79627   0.54568   0.00000  Uiso   1.00
C1151  C     0.79838   0.76100   0.97399   0.00000  Uiso   1.00
C1152  C     0.86828   0.90568   0.52601   0.00000  Uiso   1.00
H1153  H     0.80294   0.77116   0.88839   0.00000  Uiso   1.00
H1154  H     0.86373   0.89550   0.61161   0.00000  Uiso   1.00
H1155  H     0.78606   0.73295   0.95455   0.00000  Uiso   1.00
H1156  H     0.88059   0.93373   0.54545   0.00000  Uiso   1.00
H1157  H     0.89147   0.70912   0.78275   0.00000  Uiso   1.00
H1158  H     0.77520   0.95755   0.71725   0.00000  Uiso   1.00
H1159  H     0.77505   0.70833   0.71763   0.00000  Uiso   1.00
H1160  H     0.89162   0.95834   0.78237   0.00000  Uiso   1.00
N1161  N     0.83333   0.95240   0.75000   0.00000  Uiso   1.00
N1162  N     0.83333   0.71427   0.75000   0.00000  Uiso   1.00
O1163  O     0.77226   0.87154   0.75000   0.00000  Uiso   1.00
O1164  O     0.89441   0.79513   0.75001   0.00000  Uiso   1.00
O1165  O     0.89441   0.87154   0.75001   0.00000  Uiso   1.00
O1166  O     0.77226   0.79513   0.75000   0.00000  Uiso   1.00
O1167  O     0.83333   0.87156   0.68393   0.00000  Uiso   1.00
O1168  O     0.83334   0.79511   0.81608   0.00000  Uiso   1.00
O1169  O     0.83334   0.87156   0.81608   0.00000  Uiso   1.00
O1170  O     0.83333   0.79511   0.68393   0.00000  Uiso   1.00
Zn1171 Zn    0.83333   0.88437   0.75000   0.00000  Uiso   1.00
Zn1172 Zn    0.83333   0.78229   0.75000   0.00000  Uiso   1.00
C1173  C     0.88756   0.89678   0.88279   0.00000  Uiso   1.00
N1174  N     0.91084   0.91917   0.86292   0.00000  Uiso   1.00
C1175  C     0.77911   0.76989   0.61721   0.00000  Uiso   1.00
N1176  N     0.75583   0.74750   0.63709   0.00000  Uiso   1.00
C1177  C     0.78039   0.71749   0.53876   0.00000  Uiso   1.00
N1178  N     0.76791   0.68378   0.55332   0.00000  Uiso   1.00
C1179  C     0.88624   0.94920   0.96124   0.00000  Uiso   1.00
N1180  N     0.89871   0.98291   0.94668   0.00000  Uiso   1.00
C1181  C     0.70970   0.79137   0.82193   0.00000  Uiso   1.00
N1182  N     0.72704   0.77464   0.85110   0.00000  Uiso   1.00
C1183  C     0.95697   0.87530   0.67807   0.00000  Uiso   1.00
N1184  N     0.93962   0.89203   0.64890   0.00000  Uiso   1.00
C1185  C     0.95434   0.79298   0.82240   0.00000  Uiso   1.00
N1186  N     0.93571   0.77735   0.85180   0.00000  Uiso   1.00
C1187  C     0.71232   0.87369   0.67760   0.00000  Uiso   1.00
N1188  N     0.73096   0.88931   0.64820   0.00000  Uiso   1.00
loop_
_geom_bond_atom_site_label_1
_geom_bond_atom_site_label_2
_geom_bond_distance
_geom_bond_site_symmetry_2
_ccdc_geom_bond_type
C1     O44     1.277   .     A
C1     O41     1.279   .     A
C1     C10     1.414   .     S
C2     O43     1.277   .     A
C2     O42     1.279   .     A
C2     C9      1.414   .     S
C3     C28     1.424   .     A
C3     C55     1.447   .     S
C3     C623    1.386   1_554 S
C4     C57     1.447   .     S
C4     C27     1.424   .     A
C4     C624    1.386   .     S
C5     C10     1.405   .     A
C5     C59     1.453   .     S
C5     C139    1.385   1_455 S
C6     C9      1.405   .     A
C6     C61     1.453   .     S
C6     C74     1.385   .     S
C7     C9      1.404   .     A
C7     C63     1.455   .     S
C7     C71     1.385   .     S
C8     C65     1.455   .     S
C8     C10     1.404   .     A
C8     C138    1.385   1_455 S
C11    N40     1.366   .     A
C11    H35     1.082   .     S
C11    C410    1.416   1_545 S
C12    N39     1.366   .     A
C12    H36     1.082   .     S
C12    C211    1.416   .     S
C13    N40     1.366   .     A
C13    H37     1.081   .     S
C13    C408    1.416   1_545 S
C14    H38     1.081   .     S
C14    N39     1.366   .     A
C14    C209    1.416   .     S
C15    O48     1.287   .     A
C15    C20     1.441   .     S
C15    O45     1.287   .     A
C16    C19     1.441   .     S
C16    O47     1.287   .     A
C16    O46     1.287   .     A
C17    C51     1.452   .     S
C17    C27     1.414   .     A
C17    C19     1.407   .     A
C18    C20     1.407   .     A
C18    C28     1.414   .     A
C18    C53     1.452   .     S
C19    C21     1.387   .     A
C20    C22     1.387   .     A
C21    H31     1.085   .     S
C21    C23     1.375   .     A
C22    H32     1.085   .     S
C22    C24     1.375   .     A
C23    C29     1.392   .     A
C23    C25     1.407   .     A
C24    C30     1.392   .     A
C24    C26     1.407   .     A
C25    C27     1.429   .     A
C25    C620    1.401   .     S
C26    C28     1.429   .     A
C26    C619    1.401   1_554 S
C29    H33     1.087   .     S
C29    C597    1.386   .     S
C30    H34     1.087   .     S
C30    C598    1.386   1_554 S
N39    Zn49    2.009   .     S
N40    Zn50    2.009   .     S
O41    Zn49    1.990   .     S
O42    Zn50    1.990   .     S
O43    Zn49    1.992   .     S
O44    Zn50    1.992   .     S
O45    Zn49    2.019   .     S
O46    Zn50    2.019   .     S
O47    Zn49    2.023   .     S
O48    Zn50    2.023   .     S
C51    N52     1.158   .     T
C53    N54     1.158   .     T
C55    N56     1.158   .     T
C57    N58     1.158   .     T
C59    N60     1.157   .     T
C61    N62     1.157   .     T
C63    N64     1.157   .     T
C65    N66     1.157   .     T
C67    O110    1.277   .     A
C67    O107    1.279   .     A
C67    C76     1.414   .     S
C68    O109    1.277   .     A
C68    O108    1.279   .     A
C68    C75     1.414   .     S
C69    C94     1.424   .     A
C69    C121    1.447   .     S
C69    C689    1.386   1_554 S
C70    C123    1.447   .     S
C70    C93     1.424   .     A
C70    C690    1.386   .     S
C71    C76     1.405   .     A
C71    C125    1.453   .     S
C72    C75     1.405   .     A
C72    C127    1.453   .     S
C72    C140    1.385   .     S
C73    C75     1.404   .     A
C73    C129    1.455   .     S
C73    C137    1.385   .     S
C74    C131    1.455   .     S
C74    C76     1.404   .     A
C77    N106    1.366   .     A
C77    H101    1.082   .     S
C77    C476    1.416   1_545 S
C78    N105    1.366   .     A
C78    H102    1.082   .     S
C78    C277    1.416   .     S
C79    N106    1.366   .     A
C79    H103    1.081   .     S
C79    C474    1.416   1_545 S
C80    H104    1.081   .     S
C80    N105    1.366   .     A
C80    C275    1.416   .     S
C81    O114    1.287   .     A
C81    C86     1.441   .     S
C81    O111    1.287   .     A
C82    C85     1.441   .     S
C82    O113    1.287   .     A
C82    O112    1.287   .     A
C83    C117    1.452   .     S
C83    C93     1.414   .     A
C83    C85     1.407   .     A
C84    C86     1.407   .     A
C84    C94     1.414   .     A
C84    C119    1.452   .     S
C85    C87     1.387   .     A
C86    C88     1.387   .     A
C87    H97     1.085   .     S
C87    C89     1.375   .     A
C88    H98     1.085   .     S
C88    C90     1.375   .     A
C89    C95     1.392   .     A
C89    C91     1.407   .     A
C90    C96     1.392   .     A
C90    C92     1.407   .     A
C91    C93     1.429   .     A
C91    C686    1.401   .     S
C92    C94     1.429   .     A
C92    C685    1.401   1_554 S
C95    H99     1.087   .     S
C95    C663    1.386   .     S
C96    H100    1.087   .     S
C96    C664    1.386   1_554 S
N105   Zn115   2.009   .     S
N106   Zn116   2.009   .     S
O107   Zn115   1.990   .     S
O108   Zn116   1.990   .     S
O109   Zn115   1.992   .     S
O110   Zn116   1.992   .     S
O111   Zn115   2.019   .     S
O112   Zn116   2.019   .     S
O113   Zn115   2.023   .     S
O114   Zn116   2.023   .     S
C117   N118    1.158   .     T
C119   N120    1.158   .     T
C121   N122    1.158   .     T
C123   N124    1.158   .     T
C125   N126    1.157   .     T
C127   N128    1.157   .     T
C129   N130    1.157   .     T
C131   N132    1.157   .     T
C133   O176    1.277   .     A
C133   O173    1.279   .     A
C133   C142    1.414   .     S
C134   O175    1.277   .     A
C134   O174    1.279   .     A
C134   C141    1.414   .     S
C135   C160    1.424   .     A
C135   C187    1.447   .     S
C135   C755    1.386   1_554 S
C136   C189    1.447   .     S
C136   C159    1.424   .     A
C136   C756    1.386   .     S
C137   C142    1.405   .     A
C137   C191    1.453   .     S
C138   C141    1.405   .     A
C138   C193    1.453   .     S
C138   C8      1.385   1_655 S
C139   C141    1.404   .     A
C139   C195    1.455   .     S
C139   C5      1.385   1_655 S
C140   C197    1.455   .     S
C140   C142    1.404   .     A
C143   N172    1.366   .     A
C143   H167    1.082   .     S
C143   C542    1.416   1_545 S
C144   N171    1.366   .     A
C144   H168    1.082   .     S
C144   C343    1.416   .     S
C145   N172    1.366   .     A
C145   H169    1.081   .     S
C145   C540    1.416   1_545 S
C146   H170    1.081   .     S
C146   N171    1.366   .     A
C146   C341    1.416   .     S
C147   O180    1.287   .     A
C147   C152    1.441   .     S
C147   O177    1.287   .     A
C148   C151    1.441   .     S
C148   O179    1.287   .     A
C148   O178    1.287   .     A
C149   C183    1.452   .     S
C149   C159    1.414   .     A
C149   C151    1.407   .     A
C150   C152    1.407   .     A
C150   C160    1.414   .     A
C150   C185    1.452   .     S
C151   C153    1.387   .     A
C152   C154    1.387   .     A
C153   H163    1.085   .     S
C153   C155    1.375   .     A
C154   H164    1.085   .     S
C154   C156    1.375   .     A
C155   C161    1.392   .     A
C155   C157    1.407   .     A
C156   C162    1.392   .     A
C156   C158    1.407   .     A
C157   C159    1.429   .     A
C157   C752    1.401   .     S
C158   C160    1.429   .     A
C158   C751    1.401   1_554 S
C161   H165    1.087   .     S
C161   C729    1.386   .     S
C162   H166    1.087   .     S
C162   C730    1.386   1_554 S
N171   Zn181   2.009   .     S
N172   Zn182   2.009   .     S
O173   Zn181   1.990   .     S
O174   Zn182   1.990   .     S
O175   Zn181   1.992   .     S
O176   Zn182   1.992   .     S
O177   Zn181   2.019   .     S
O178   Zn182   2.019   .     S
O179   Zn181   2.023   .     S
O180   Zn182   2.023   .     S
C183   N184    1.158   .     T
C185   N186    1.158   .     T
C187   N188    1.158   .     T
C189   N190    1.158   .     T
C191   N192    1.157   .     T
C193   N194    1.157   .     T
C195   N196    1.157   .     T
C197   N198    1.157   .     T
C199   O242    1.277   .     A
C199   O239    1.279   .     A
C199   C208    1.414   .     S
C200   O241    1.277   .     A
C200   O240    1.279   .     A
C200   C207    1.414   .     S
C201   C226    1.424   .     A
C201   C253    1.447   .     S
C201   C821    1.386   1_554 S
C202   C255    1.447   .     S
C202   C225    1.424   .     A
C202   C822    1.386   .     S
C203   C208    1.405   .     A
C203   C257    1.453   .     S
C203   C337    1.385   1_455 S
C204   C207    1.405   .     A
C204   C259    1.453   .     S
C204   C272    1.385   .     S
C205   C207    1.404   .     A
C205   C261    1.455   .     S
C205   C269    1.385   .     S
C206   C263    1.455   .     S
C206   C208    1.404   .     A
C206   C336    1.385   1_455 S
C209   N238    1.366   .     A
C209   H233    1.082   .     S
C210   N237    1.366   .     A
C210   H234    1.082   .     S
C210   C409    1.416   .     S
C211   N238    1.366   .     A
C211   H235    1.081   .     S
C212   H236    1.081   .     S
C212   N237    1.366   .     A
C212   C407    1.416   .     S
C213   O246    1.287   .     A
C213   C218    1.441   .     S
C213   O243    1.287   .     A
C214   C217    1.441   .     S
C214   O245    1.287   .     A
C214   O244    1.287   .     A
C215   C249    1.452   .     S
C215   C225    1.414   .     A
C215   C217    1.407   .     A
C216   C218    1.407   .     A
C216   C226    1.414   .     A
C216   C251    1.452   .     S
C217   C219    1.387   .     A
C218   C220    1.387   .     A
C219   H229    1.085   .     S
C219   C221    1.375   .     A
C220   H230    1.085   .     S
C220   C222    1.375   .     A
C221   C227    1.392   .     A
C221   C223    1.407   .     A
C222   C228    1.392   .     A
C222   C224    1.407   .     A
C223   C225    1.429   .     A
C223   C818    1.401   .     S
C224   C226    1.429   .     A
C224   C817    1.401   1_554 S
C227   H231    1.087   .     S
C227   C795    1.386   .     S
C228   H232    1.087   .     S
C228   C796    1.386   1_554 S
N237   Zn247   2.009   .     S
N238   Zn248   2.009   .     S
O239   Zn247   1.990   .     S
O240   Zn248   1.990   .     S
O241   Zn247   1.992   .     S
O242   Zn248   1.992   .     S
O243   Zn247   2.019   .     S
O244   Zn248   2.019   .     S
O245   Zn247   2.023   .     S
O246   Zn248   2.023   .     S
C249   N250    1.158   .     T
C251   N252    1.158   .     T
C253   N254    1.158   .     T
C255   N256    1.158   .     T
C257   N258    1.157   .     T
C259   N260    1.157   .     T
C261   N262    1.157   .     T
C263   N264    1.157   .     T
C265   O308    1.277   .     A
C265   O305    1.279   .     A
C265   C274    1.414   .     S
C266   O307    1.277   .     A
C266   O306    1.279   .     A
C266   C273    1.414   .     S
C267   C292    1.424   .     A
C267   C319    1.447   .     S
C267   C887    1.386   1_554 S
C268   C321    1.447   .     S
C268   C291    1.424   .     A
C268   C888    1.386   .     S
C269   C274    1.405   .     A
C269   C323    1.453   .     S
C270   C273    1.405   .     A
C270   C325    1.453   .     S
C270   C338    1.385   .     S
C271   C273    1.404   .     A
C271   C327    1.455   .     S
C271   C335    1.385   .     S
C272   C329    1.455   .     S
C272   C274    1.404   .     A
C275   N304    1.366   .     A
C275   H299    1.082   .     S
C276   N303    1.366   .     A
C276   H300    1.082   .     S
C276   C475    1.416   .     S
C277   N304    1.366   .     A
C277   H301    1.081   .     S
C278   H302    1.081   .     S
C278   N303    1.366   .     A
C278   C473    1.416   .     S
C279   O312    1.287   .     A
C279   C284    1.441   .     S
C279   O309    1.287   .     A
C280   C283    1.441   .     S
C280   O311    1.287   .     A
C280   O310    1.287   .     A
C281   C315    1.452   .     S
C281   C291    1.414   .     A
C281   C283    1.407   .     A
C282   C284    1.407   .     A
C282   C292    1.414   .     A
C282   C317    1.452   .     S
C283   C285    1.387   .     A
C284   C286    1.387   .     A
C285   H295    1.085   .     S
C285   C287    1.375   .     A
C286   H296    1.085   .     S
C286   C288    1.375   .     A
C287   C293    1.392   .     A
C287   C289    1.407   .     A
C288   C294    1.392   .     A
C288   C290    1.407   .     A
C289   C291    1.429   .     A
C289   C884    1.401   .     S
C290   C292    1.429   .     A
C290   C883    1.401   1_554 S
C293   H297    1.087   .     S
C293   C861    1.386   .     S
C294   H298    1.087   .     S
C294   C862    1.386   1_554 S
N303   Zn313   2.009   .     S
N304   Zn314   2.009   .     S
O305   Zn313   1.990   .     S
O306   Zn314   1.990   .     S
O307   Zn313   1.992   .     S
O308   Zn314   1.992   .     S
O309   Zn313   2.019   .     S
O310   Zn314   2.019   .     S
O311   Zn313   2.023   .     S
O312   Zn314   2.023   .     S
C315   N316    1.158   .     T
C317   N318    1.158   .     T
C319   N320    1.158   .     T
C321   N322    1.158   .     T
C323   N324    1.157   .     T
C325   N326    1.157   .     T
C327   N328    1.157   .     T
C329   N330    1.157   .     T
C331   O374    1.277   .     A
C331   O371    1.279   .     A
C331   C340    1.414   .     S
C332   O373    1.277   .     A
C332   O372    1.279   .     A
C332   C339    1.414   .     S
C333   C358    1.424   .     A
C333   C385    1.447   .     S
C333   C953    1.386   1_554 S
C334   C387    1.447   .     S
C334   C357    1.424   .     A
C334   C954    1.386   .     S
C335   C340    1.405   .     A
C335   C389    1.453   .     S
C336   C339    1.405   .     A
C336   C391    1.453   .     S
C336   C206    1.385   1_655 S
C337   C339    1.404   .     A
C337   C393    1.455   .     S
C337   C203    1.385   1_655 S
C338   C395    1.455   .     S
C338   C340    1.404   .     A
C341   N370    1.366   .     A
C341   H365    1.082   .     S
C342   N369    1.366   .     A
C342   H366    1.082   .     S
C342   C541    1.416   .     S
C343   N370    1.366   .     A
C343   H367    1.081   .     S
C344   H368    1.081   .     S
C344   N369    1.366   .     A
C344   C539    1.416   .     S
C345   O378    1.287   .     A
C345   C350    1.441   .     S
C345   O375    1.287   .     A
C346   C349    1.441   .     S
C346   O377    1.287   .     A
C346   O376    1.287   .     A
C347   C381    1.452   .     S
C347   C357    1.414   .     A
C347   C349    1.407   .     A
C348   C350    1.407   .     A
C348   C358    1.414   .     A
C348   C383    1.452   .     S
C349   C351    1.387   .     A
C350   C352    1.387   .     A
C351   H361    1.085   .     S
C351   C353    1.375   .     A
C352   H362    1.085   .     S
C352   C354    1.375   .     A
C353   C359    1.392   .     A
C353   C355    1.407   .     A
C354   C360    1.392   .     A
C354   C356    1.407   .     A
C355   C357    1.429   .     A
C355   C950    1.401   .     S
C356   C358    1.429   .     A
C356   C949    1.401   1_554 S
C359   H363    1.087   .     S
C359   C927    1.386   .     S
C360   H364    1.087   .     S
C360   C928    1.386   1_554 S
N369   Zn379   2.009   .     S
N370   Zn380   2.009   .     S
O371   Zn379   1.990   .     S
O372   Zn380   1.990   .     S
O373   Zn379   1.992   .     S
O374   Zn380   1.992   .     S
O375   Zn379   2.019   .     S
O376   Zn380   2.019   .     S
O377   Zn379   2.023   .     S
O378   Zn380   2.023   .     S
C381   N382    1.158   .     T
C383   N384    1.158   .     T
C385   N386    1.158   .     T
C387   N388    1.158   .     T
C389   N390    1.157   .     T
C391   N392    1.157   .     T
C393   N394    1.157   .     T
C395   N396    1.157   .     T
C397   O440    1.277   .     A
C397   O437    1.279   .     A
C397   C406    1.414   .     S
C398   O439    1.277   .     A
C398   O438    1.279   .     A
C398   C405    1.414   .     S
C399   C424    1.424   .     A
C399   C451    1.447   .     S
C399   C1019   1.386   1_554 S
C400   C453    1.447   .     S
C400   C423    1.424   .     A
C400   C1020   1.386   .     S
C401   C406    1.405   .     A
C401   C455    1.453   .     S
C401   C535    1.385   1_455 S
C402   C405    1.405   .     A
C402   C457    1.453   .     S
C402   C470    1.385   .     S
C403   C405    1.404   .     A
C403   C459    1.455   .     S
C403   C467    1.385   .     S
C404   C461    1.455   .     S
C404   C406    1.404   .     A
C404   C534    1.385   1_455 S
C407   N436    1.366   .     A
C407   H431    1.082   .     S
C408   N435    1.366   .     A
C408   H432    1.082   .     S
C408   C13     1.416   1_565 S
C409   N436    1.366   .     A
C409   H433    1.081   .     S
C410   H434    1.081   .     S
C410   N435    1.366   .     A
C410   C11     1.416   1_565 S
C411   O444    1.287   .     A
C411   C416    1.441   .     S
C411   O441    1.287   .     A
C412   C415    1.441   .     S
C412   O443    1.287   .     A
C412   O442    1.287   .     A
C413   C447    1.452   .     S
C413   C423    1.414   .     A
C413   C415    1.407   .     A
C414   C416    1.407   .     A
C414   C424    1.414   .     A
C414   C449    1.452   .     S
C415   C417    1.387   .     A
C416   C418    1.387   .     A
C417   H427    1.085   .     S
C417   C419    1.375   .     A
C418   H428    1.085   .     S
C418   C420    1.375   .     A
C419   C425    1.392   .     A
C419   C421    1.407   .     A
C420   C426    1.392   .     A
C420   C422    1.407   .     A
C421   C423    1.429   .     A
C421   C1016   1.401   .     S
C422   C424    1.429   .     A
C422   C1015   1.401   1_554 S
C425   H429    1.087   .     S
C425   C993    1.386   .     S
C426   H430    1.087   .     S
C426   C994    1.386   1_554 S
N435   Zn445   2.009   .     S
N436   Zn446   2.009   .     S
O437   Zn445   1.990   .     S
O438   Zn446   1.990   .     S
O439   Zn445   1.992   .     S
O440   Zn446   1.992   .     S
O441   Zn445   2.019   .     S
O442   Zn446   2.019   .     S
O443   Zn445   2.023   .     S
O444   Zn446   2.023   .     S
C447   N448    1.158   .     T
C449   N450    1.158   .     T
C451   N452    1.158   .     T
C453   N454    1.158   .     T
C455   N456    1.157   .     T
C457   N458    1.157   .     T
C459   N460    1.157   .     T
C461   N462    1.157   .     T
C463   O506    1.277   .     A
C463   O503    1.279   .     A
C463   C472    1.414   .     S
C464   O505    1.277   .     A
C464   O504    1.279   .     A
C464   C471    1.414   .     S
C465   C490    1.424   .     A
C465   C517    1.447   .     S
C465   C1085   1.386   1_554 S
C466   C519    1.447   .     S
C466   C489    1.424   .     A
C466   C1086   1.386   .     S
C467   C472    1.405   .     A
C467   C521    1.453   .     S
C468   C471    1.405   .     A
C468   C523    1.453   .     S
C468   C536    1.385   .     S
C469   C471    1.404   .     A
C469   C525    1.455   .     S
C469   C533    1.385   .     S
C470   C527    1.455   .     S
C470   C472    1.404   .     A
C473   N502    1.366   .     A
C473   H497    1.082   .     S
C474   N501    1.366   .     A
C474   H498    1.082   .     S
C474   C79     1.416   1_565 S
C475   N502    1.366   .     A
C475   H499    1.081   .     S
C476   H500    1.081   .     S
C476   N501    1.366   .     A
C476   C77     1.416   1_565 S
C477   O510    1.287   .     A
C477   C482    1.441   .     S
C477   O507    1.287   .     A
C478   C481    1.441   .     S
C478   O509    1.287   .     A
C478   O508    1.287   .     A
C479   C513    1.452   .     S
C479   C489    1.414   .     A
C479   C481    1.407   .     A
C480   C482    1.407   .     A
C480   C490    1.414   .     A
C480   C515    1.452   .     S
C481   C483    1.387   .     A
C482   C484    1.387   .     A
C483   H493    1.085   .     S
C483   C485    1.375   .     A
C484   H494    1.085   .     S
C484   C486    1.375   .     A
C485   C491    1.392   .     A
C485   C487    1.407   .     A
C486   C492    1.392   .     A
C486   C488    1.407   .     A
C487   C489    1.429   .     A
C487   C1082   1.401   .     S
C488   C490    1.429   .     A
C488   C1081   1.401   1_554 S
C491   H495    1.087   .     S
C491   C1059   1.386   .     S
C492   H496    1.087   .     S
C492   C1060   1.386   1_554 S
N501   Zn511   2.009   .     S
N502   Zn512   2.009   .     S
O503   Zn511   1.990   .     S
O504   Zn512   1.990   .     S
O505   Zn511   1.992   .     S
O506   Zn512   1.992   .     S
O507   Zn511   2.019   .     S
O508   Zn512   2.019   .     S
O509   Zn511   2.023   .     S
O510   Zn512   2.023   .     S
C513   N514    1.158   .     T
C515   N516    1.158   .     T
C517   N518    1.158   .     T
C519   N520    1.158   .     T
C521   N522    1.157   .     T
C523   N524    1.157   .     T
C525   N526    1.157   .     T
C527   N528    1.157   .     T
C529   O572    1.277   .     A
C529   O569    1.279   .     A
C529   C538    1.414   .     S
C530   O571    1.277   .     A
C530   O570    1.279   .     A
C530   C537    1.414   .     S
C531   C556    1.424   .     A
C531   C583    1.447   .     S
C531   C1151   1.386   1_554 S
C532   C585    1.447   .     S
C532   C555    1.424   .     A
C532   C1152   1.386   .     S
C533   C538    1.405   .     A
C533   C587    1.453   .     S
C534   C537    1.405   .     A
C534   C589    1.453   .     S
C534   C404    1.385   1_655 S
C535   C537    1.404   .     A
C535   C591    1.455   .     S
C535   C401    1.385   1_655 S
C536   C593    1.455   .     S
C536   C538    1.404   .     A
C539   N568    1.366   .     A
C539   H563    1.082   .     S
C540   N567    1.366   .     A
C540   H564    1.082   .     S
C540   C145    1.416   1_565 S
C541   N568    1.366   .     A
C541   H565    1.081   .     S
C542   H566    1.081   .     S
C542   N567    1.366   .     A
C542   C143    1.416   1_565 S
C543   O576    1.287   .     A
C543   C548    1.441   .     S
C543   O573    1.287   .     A
C544   C547    1.441   .     S
C544   O575    1.287   .     A
C544   O574    1.287   .     A
C545   C579    1.452   .     S
C545   C555    1.414   .     A
C545   C547    1.407   .     A
C546   C548    1.407   .     A
C546   C556    1.414   .     A
C546   C581    1.452   .     S
C547   C549    1.387   .     A
C548   C550    1.387   .     A
C549   H559    1.085   .     S
C549   C551    1.375   .     A
C550   H560    1.085   .     S
C550   C552    1.375   .     A
C551   C557    1.392   .     A
C551   C553    1.407   .     A
C552   C558    1.392   .     A
C552   C554    1.407   .     A
C553   C555    1.429   .     A
C553   C1148   1.401   .     S
C554   C556    1.429   .     A
C554   C1147   1.401   1_554 S
C557   H561    1.087   .     S
C557   C1125   1.386   .     S
C558   H562    1.087   .     S
C558   C1126   1.386   1_554 S
N567   Zn577   2.009   .     S
N568   Zn578   2.009   .     S
O569   Zn577   1.990   .     S
O570   Zn578   1.990   .     S
O571   Zn577   1.992   .     S
O572   Zn578   1.992   .     S
O573   Zn577   2.019   .     S
O574   Zn578   2.019   .     S
O575   Zn577   2.023   .     S
O576   Zn578   2.023   .     S
C579   N580    1.158   .     T
C581   N582    1.158   .     T
C583   N584    1.158   .     T
C585   N586    1.158   .     T
C587   N588    1.157   .     T
C589   N590    1.157   .     T
C591   N592    1.157   .     T
C593   N594    1.157   .     T
C595   O638    1.277   .     A
C595   O635    1.279   .     A
C595   C604    1.414   .     S
C596   O637    1.277   .     A
C596   O636    1.279   .     A
C596   C603    1.414   .     S
C597   C622    1.424   .     A
C597   C649    1.447   .     S
C598   C651    1.447   .     S
C598   C621    1.424   .     A
C598   C30     1.386   1_556 S
C599   C604    1.405   .     A
C599   C653    1.453   .     S
C599   C733    1.385   1_455 S
C600   C603    1.405   .     A
C600   C655    1.453   .     S
C600   C668    1.385   .     S
C601   C603    1.404   .     A
C601   C657    1.455   .     S
C601   C665    1.385   .     S
C602   C659    1.455   .     S
C602   C604    1.404   .     A
C602   C732    1.385   1_455 S
C605   N634    1.366   .     A
C605   H629    1.082   .     S
C605   C1004   1.416   1_545 S
C606   N633    1.366   .     A
C606   H630    1.082   .     S
C606   C805    1.416   .     S
C607   N634    1.366   .     A
C607   H631    1.081   .     S
C607   C1002   1.416   1_545 S
C608   H632    1.081   .     S
C608   N633    1.366   .     A
C608   C803    1.416   .     S
C609   O642    1.287   .     A
C609   C614    1.441   .     S
C609   O639    1.287   .     A
C610   C613    1.441   .     S
C610   O641    1.287   .     A
C610   O640    1.287   .     A
C611   C645    1.452   .     S
C611   C621    1.414   .     A
C611   C613    1.407   .     A
C612   C614    1.407   .     A
C612   C622    1.414   .     A
C612   C647    1.452   .     S
C613   C615    1.387   .     A
C614   C616    1.387   .     A
C615   H625    1.085   .     S
C615   C617    1.375   .     A
C616   H626    1.085   .     S
C616   C618    1.375   .     A
C617   C623    1.392   .     A
C617   C619    1.407   .     A
C618   C624    1.392   .     A
C618   C620    1.407   .     A
C619   C621    1.429   .     A
C619   C26     1.401   1_556 S
C620   C622    1.429   .     A
C623   H627    1.087   .     S
C623   C3      1.386   1_556 S
C624   H628    1.087   .     S
N633   Zn643   2.009   .     S
N634   Zn644   2.009   .     S
O635   Zn643   1.990   .     S
O636   Zn644   1.990   .     S
O637   Zn643   1.992   .     S
O638   Zn644   1.992   .     S
O639   Zn643   2.019   .     S
O640   Zn644   2.019   .     S
O641   Zn643   2.023   .     S
O642   Zn644   2.023   .     S
C645   N646    1.158   .     T
C647   N648    1.158   .     T
C649   N650    1.158   .     T
C651   N652    1.158   .     T
C653   N654    1.157   .     T
C655   N656    1.157   .     T
C657   N658    1.157   .     T
C659   N660    1.157   .     T
C661   O704    1.277   .     A
C661   O701    1.279   .     A
C661   C670    1.414   .     S
C662   O703    1.277   .     A
C662   O702    1.279   .     A
C662   C669    1.414   .     S
C663   C688    1.424   .     A
C663   C715    1.447   .     S
C664   C717    1.447   .     S
C664   C687    1.424   .     A
C664   C96     1.386   1_556 S
C665   C670    1.405   .     A
C665   C719    1.453   .     S
C666   C669    1.405   .     A
C666   C721    1.453   .     S
C666   C734    1.385   .     S
C667   C669    1.404   .     A
C667   C723    1.455   .     S
C667   C731    1.385   .     S
C668   C725    1.455   .     S
C668   C670    1.404   .     A
C671   N700    1.366   .     A
C671   H695    1.082   .     S
C671   C1070   1.416   1_545 S
C672   N699    1.366   .     A
C672   H696    1.082   .     S
C672   C871    1.416   .     S
C673   N700    1.366   .     A
C673   H697    1.081   .     S
C673   C1068   1.416   1_545 S
C674   H698    1.081   .     S
C674   N699    1.366   .     A
C674   C869    1.416   .     S
C675   O708    1.287   .     A
C675   C680    1.441   .     S
C675   O705    1.287   .     A
C676   C679    1.441   .     S
C676   O707    1.287   .     A
C676   O706    1.287   .     A
C677   C711    1.452   .     S
C677   C687    1.414   .     A
C677   C679    1.407   .     A
C678   C680    1.407   .     A
C678   C688    1.414   .     A
C678   C713    1.452   .     S
C679   C681    1.387   .     A
C680   C682    1.387   .     A
C681   H691    1.085   .     S
C681   C683    1.375   .     A
C682   H692    1.085   .     S
C682   C684    1.375   .     A
C683   C689    1.392   .     A
C683   C685    1.407   .     A
C684   C690    1.392   .     A
C684   C686    1.407   .     A
C685   C687    1.429   .     A
C685   C92     1.401   1_556 S
C686   C688    1.429   .     A
C689   H693    1.087   .     S
C689   C69     1.386   1_556 S
C690   H694    1.087   .     S
N699   Zn709   2.009   .     S
N700   Zn710   2.009   .     S
O701   Zn709   1.990   .     S
O702   Zn710   1.990   .     S
O703   Zn709   1.992   .     S
O704   Zn710   1.992   .     S
O705   Zn709   2.019   .     S
O706   Zn710   2.019   .     S
O707   Zn709   2.023   .     S
O708   Zn710   2.023   .     S
C711   N712    1.158   .     T
C713   N714    1.158   .     T
C715   N716    1.158   .     T
C717   N718    1.158   .     T
C719   N720    1.157   .     T
C721   N722    1.157   .     T
C723   N724    1.157   .     T
C725   N726    1.157   .     T
C727   O770    1.277   .     A
C727   O767    1.279   .     A
C727   C736    1.414   .     S
C728   O769    1.277   .     A
C728   O768    1.279   .     A
C728   C735    1.414   .     S
C729   C754    1.424   .     A
C729   C781    1.447   .     S
C730   C783    1.447   .     S
C730   C753    1.424   .     A
C730   C162    1.386   1_556 S
C731   C736    1.405   .     A
C731   C785    1.453   .     S
C732   C735    1.405   .     A
C732   C787    1.453   .     S
C732   C602    1.385   1_655 S
C733   C735    1.404   .     A
C733   C789    1.455   .     S
C733   C599    1.385   1_655 S
C734   C791    1.455   .     S
C734   C736    1.404   .     A
C737   N766    1.366   .     A
C737   H761    1.082   .     S
C737   C1136   1.416   1_545 S
C738   N765    1.366   .     A
C738   H762    1.082   .     S
C738   C937    1.416   .     S
C739   N766    1.366   .     A
C739   H763    1.081   .     S
C739   C1134   1.416   1_545 S
C740   H764    1.081   .     S
C740   N765    1.366   .     A
C740   C935    1.416   .     S
C741   O774    1.287   .     A
C741   C746    1.441   .     S
C741   O771    1.287   .     A
C742   C745    1.441   .     S
C742   O773    1.287   .     A
C742   O772    1.287   .     A
C743   C777    1.452   .     S
C743   C753    1.414   .     A
C743   C745    1.407   .     A
C744   C746    1.407   .     A
C744   C754    1.414   .     A
C744   C779    1.452   .     S
C745   C747    1.387   .     A
C746   C748    1.387   .     A
C747   H757    1.085   .     S
C747   C749    1.375   .     A
C748   H758    1.085   .     S
C748   C750    1.375   .     A
C749   C755    1.392   .     A
C749   C751    1.407   .     A
C750   C756    1.392   .     A
C750   C752    1.407   .     A
C751   C753    1.429   .     A
C751   C158    1.401   1_556 S
C752   C754    1.429   .     A
C755   H759    1.087   .     S
C755   C135    1.386   1_556 S
C756   H760    1.087   .     S
N765   Zn775   2.009   .     S
N766   Zn776   2.009   .     S
O767   Zn775   1.990   .     S
O768   Zn776   1.990   .     S
O769   Zn775   1.992   .     S
O770   Zn776   1.992   .     S
O771   Zn775   2.019   .     S
O772   Zn776   2.019   .     S
O773   Zn775   2.023   .     S
O774   Zn776   2.023   .     S
C777   N778    1.158   .     T
C779   N780    1.158   .     T
C781   N782    1.158   .     T
C783   N784    1.158   .     T
C785   N786    1.157   .     T
C787   N788    1.157   .     T
C789   N790    1.157   .     T
C791   N792    1.157   .     T
C793   O836    1.277   .     A
C793   O833    1.279   .     A
C793   C802    1.414   .     S
C794   O835    1.277   .     A
C794   O834    1.279   .     A
C794   C801    1.414   .     S
C795   C820    1.424   .     A
C795   C847    1.447   .     S
C796   C849    1.447   .     S
C796   C819    1.424   .     A
C796   C228    1.386   1_556 S
C797   C802    1.405   .     A
C797   C851    1.453   .     S
C797   C931    1.385   1_455 S
C798   C801    1.405   .     A
C798   C853    1.453   .     S
C798   C866    1.385   .     S
C799   C801    1.404   .     A
C799   C855    1.455   .     S
C799   C863    1.385   .     S
C800   C857    1.455   .     S
C800   C802    1.404   .     A
C800   C930    1.385   1_455 S
C803   N832    1.366   .     A
C803   H827    1.082   .     S
C804   N831    1.366   .     A
C804   H828    1.082   .     S
C804   C1003   1.416   .     S
C805   N832    1.366   .     A
C805   H829    1.081   .     S
C806   H830    1.081   .     S
C806   N831    1.366   .     A
C806   C1001   1.416   .     S
C807   O840    1.287   .     A
C807   C812    1.441   .     S
C807   O837    1.287   .     A
C808   C811    1.441   .     S
C808   O839    1.287   .     A
C808   O838    1.287   .     A
C809   C843    1.452   .     S
C809   C819    1.414   .     A
C809   C811    1.407   .     A
C810   C812    1.407   .     A
C810   C820    1.414   .     A
C810   C845    1.452   .     S
C811   C813    1.387   .     A
C812   C814    1.387   .     A
C813   H823    1.085   .     S
C813   C815    1.375   .     A
C814   H824    1.085   .     S
C814   C816    1.375   .     A
C815   C821    1.392   .     A
C815   C817    1.407   .     A
C816   C822    1.392   .     A
C816   C818    1.407   .     A
C817   C819    1.429   .     A
C817   C224    1.401   1_556 S
C818   C820    1.429   .     A
C821   H825    1.087   .     S
C821   C201    1.386   1_556 S
C822   H826    1.087   .     S
N831   Zn841   2.009   .     S
N832   Zn842   2.009   .     S
O833   Zn841   1.990   .     S
O834   Zn842   1.990   .     S
O835   Zn841   1.992   .     S
O836   Zn842   1.992   .     S
O837   Zn841   2.019   .     S
O838   Zn842   2.019   .     S
O839   Zn841   2.023   .     S
O840   Zn842   2.023   .     S
C843   N844    1.158   .     T
C845   N846    1.158   .     T
C847   N848    1.158   .     T
C849   N850    1.158   .     T
C851   N852    1.157   .     T
C853   N854    1.157   .     T
C855   N856    1.157   .     T
C857   N858    1.157   .     T
C859   O902    1.277   .     A
C859   O899    1.279   .     A
C859   C868    1.414   .     S
C860   O901    1.277   .     A
C860   O900    1.279   .     A
C860   C867    1.414   .     S
C861   C886    1.424   .     A
C861   C913    1.447   .     S
C862   C915    1.447   .     S
C862   C885    1.424   .     A
C862   C294    1.386   1_556 S
C863   C868    1.405   .     A
C863   C917    1.453   .     S
C864   C867    1.405   .     A
C864   C919    1.453   .     S
C864   C932    1.385   .     S
C865   C867    1.404   .     A
C865   C921    1.455   .     S
C865   C929    1.385   .     S
C866   C923    1.455   .     S
C866   C868    1.404   .     A
C869   N898    1.366   .     A
C869   H893    1.082   .     S
C870   N897    1.366   .     A
C870   H894    1.082   .     S
C870   C1069   1.416   .     S
C871   N898    1.366   .     A
C871   H895    1.081   .     S
C872   H896    1.081   .     S
C872   N897    1.366   .     A
C872   C1067   1.416   .     S
C873   O906    1.287   .     A
C873   C878    1.441   .     S
C873   O903    1.287   .     A
C874   C877    1.441   .     S
C874   O905    1.287   .     A
C874   O904    1.287   .     A
C875   C909    1.452   .     S
C875   C885    1.414   .     A
C875   C877    1.407   .     A
C876   C878    1.407   .     A
C876   C886    1.414   .     A
C876   C911    1.452   .     S
C877   C879    1.387   .     A
C878   C880    1.387   .     A
C879   H889    1.085   .     S
C879   C881    1.375   .     A
C880   H890    1.085   .     S
C880   C882    1.375   .     A
C881   C887    1.392   .     A
C881   C883    1.407   .     A
C882   C888    1.392   .     A
C882   C884    1.407   .     A
C883   C885    1.429   .     A
C883   C290    1.401   1_556 S
C884   C886    1.429   .     A
C887   H891    1.087   .     S
C887   C267    1.386   1_556 S
C888   H892    1.087   .     S
N897   Zn907   2.009   .     S
N898   Zn908   2.009   .     S
O899   Zn907   1.990   .     S
O900   Zn908   1.990   .     S
O901   Zn907   1.992   .     S
O902   Zn908   1.992   .     S
O903   Zn907   2.019   .     S
O904   Zn908   2.019   .     S
O905   Zn907   2.023   .     S
O906   Zn908   2.023   .     S
C909   N910    1.158   .     T
C911   N912    1.158   .     T
C913   N914    1.158   .     T
C915   N916    1.158   .     T
C917   N918    1.157   .     T
C919   N920    1.157   .     T
C921   N922    1.157   .     T
C923   N924    1.157   .     T
C925   O968    1.277   .     A
C925   O965    1.279   .     A
C925   C934    1.414   .     S
C926   O967    1.277   .     A
C926   O966    1.279   .     A
C926   C933    1.414   .     S
C927   C952    1.424   .     A
C927   C979    1.447   .     S
C928   C981    1.447   .     S
C928   C951    1.424   .     A
C928   C360    1.386   1_556 S
C929   C934    1.405   .     A
C929   C983    1.453   .     S
C930   C933    1.405   .     A
C930   C985    1.453   .     S
C930   C800    1.385   1_655 S
C931   C933    1.404   .     A
C931   C987    1.455   .     S
C931   C797    1.385   1_655 S
C932   C989    1.455   .     S
C932   C934    1.404   .     A
C935   N964    1.366   .     A
C935   H959    1.082   .     S
C936   N963    1.366   .     A
C936   H960    1.082   .     S
C936   C1135   1.416   .     S
C937   N964    1.366   .     A
C937   H961    1.081   .     S
C938   H962    1.081   .     S
C938   N963    1.366   .     A
C938   C1133   1.416   .     S
C939   O972    1.287   .     A
C939   C944    1.441   .     S
C939   O969    1.287   .     A
C940   C943    1.441   .     S
C940   O971    1.287   .     A
C940   O970    1.287   .     A
C941   C975    1.452   .     S
C941   C951    1.414   .     A
C941   C943    1.407   .     A
C942   C944    1.407   .     A
C942   C952    1.414   .     A
C942   C977    1.452   .     S
C943   C945    1.387   .     A
C944   C946    1.387   .     A
C945   H955    1.085   .     S
C945   C947    1.375   .     A
C946   H956    1.085   .     S
C946   C948    1.375   .     A
C947   C953    1.392   .     A
C947   C949    1.407   .     A
C948   C954    1.392   .     A
C948   C950    1.407   .     A
C949   C951    1.429   .     A
C949   C356    1.401   1_556 S
C950   C952    1.429   .     A
C953   H957    1.087   .     S
C953   C333    1.386   1_556 S
C954   H958    1.087   .     S
N963   Zn973   2.009   .     S
N964   Zn974   2.009   .     S
O965   Zn973   1.990   .     S
O966   Zn974   1.990   .     S
O967   Zn973   1.992   .     S
O968   Zn974   1.992   .     S
O969   Zn973   2.019   .     S
O970   Zn974   2.019   .     S
O971   Zn973   2.023   .     S
O972   Zn974   2.023   .     S
C975   N976    1.158   .     T
C977   N978    1.158   .     T
C979   N980    1.158   .     T
C981   N982    1.158   .     T
C983   N984    1.157   .     T
C985   N986    1.157   .     T
C987   N988    1.157   .     T
C989   N990    1.157   .     T
C991   O1034   1.277   .     A
C991   O1031   1.279   .     A
C991   C1000   1.414   .     S
C992   O1033   1.277   .     A
C992   O1032   1.279   .     A
C992   C999    1.414   .     S
C993   C1018   1.424   .     A
C993   C1045   1.447   .     S
C994   C1047   1.447   .     S
C994   C1017   1.424   .     A
C994   C426    1.386   1_556 S
C995   C1000   1.405   .     A
C995   C1049   1.453   .     S
C995   C1129   1.385   1_455 S
C996   C999    1.405   .     A
C996   C1051   1.453   .     S
C996   C1064   1.385   .     S
C997   C999    1.404   .     A
C997   C1053   1.455   .     S
C997   C1061   1.385   .     S
C998   C1055   1.455   .     S
C998   C1000   1.404   .     A
C998   C1128   1.385   1_455 S
C1001  N1030   1.366   .     A
C1001  H1025   1.082   .     S
C1002  N1029   1.366   .     A
C1002  H1026   1.082   .     S
C1002  C607    1.416   1_565 S
C1003  N1030   1.366   .     A
C1003  H1027   1.081   .     S
C1004  H1028   1.081   .     S
C1004  N1029   1.366   .     A
C1004  C605    1.416   1_565 S
C1005  O1038   1.287   .     A
C1005  C1010   1.441   .     S
C1005  O1035   1.287   .     A
C1006  C1009   1.441   .     S
C1006  O1037   1.287   .     A
C1006  O1036   1.287   .     A
C1007  C1041   1.452   .     S
C1007  C1017   1.414   .     A
C1007  C1009   1.407   .     A
C1008  C1010   1.407   .     A
C1008  C1018   1.414   .     A
C1008  C1043   1.452   .     S
C1009  C1011   1.387   .     A
C1010  C1012   1.387   .     A
C1011  H1021   1.085   .     S
C1011  C1013   1.375   .     A
C1012  H1022   1.085   .     S
C1012  C1014   1.375   .     A
C1013  C1019   1.392   .     A
C1013  C1015   1.407   .     A
C1014  C1020   1.392   .     A
C1014  C1016   1.407   .     A
C1015  C1017   1.429   .     A
C1015  C422    1.401   1_556 S
C1016  C1018   1.429   .     A
C1019  H1023   1.087   .     S
C1019  C399    1.386   1_556 S
C1020  H1024   1.087   .     S
N1029  Zn1039  2.009   .     S
N1030  Zn1040  2.009   .     S
O1031  Zn1039  1.990   .     S
O1032  Zn1040  1.990   .     S
O1033  Zn1039  1.992   .     S
O1034  Zn1040  1.992   .     S
O1035  Zn1039  2.019   .     S
O1036  Zn1040  2.019   .     S
O1037  Zn1039  2.023   .     S
O1038  Zn1040  2.023   .     S
C1041  N1042   1.158   .     T
C1043  N1044   1.158   .     T
C1045  N1046   1.158   .     T
C1047  N1048   1.158   .     T
C1049  N1050   1.157   .     T
C1051  N1052   1.157   .     T
C1053  N1054   1.157   .     T
C1055  N1056   1.157   .     T
C1057  O1100   1.277   .     A
C1057  O1097   1.279   .     A
C1057  C1066   1.414   .     S
C1058  O1099   1.277   .     A
C1058  O1098   1.279   .     A
C1058  C1065   1.414   .     S
C1059  C1084   1.424   .     A
C1059  C1111   1.447   .     S
C1060  C1113   1.447   .     S
C1060  C1083   1.424   .     A
C1060  C492    1.386   1_556 S
C1061  C1066   1.405   .     A
C1061  C1115   1.453   .     S
C1062  C1065   1.405   .     A
C1062  C1117   1.453   .     S
C1062  C1130   1.385   .     S
C1063  C1065   1.404   .     A
C1063  C1119   1.455   .     S
C1063  C1127   1.385   .     S
C1064  C1121   1.455   .     S
C1064  C1066   1.404   .     A
C1067  N1096   1.366   .     A
C1067  H1091   1.082   .     S
C1068  N1095   1.366   .     A
C1068  H1092   1.082   .     S
C1068  C673    1.416   1_565 S
C1069  N1096   1.366   .     A
C1069  H1093   1.081   .     S
C1070  H1094   1.081   .     S
C1070  N1095   1.366   .     A
C1070  C671    1.416   1_565 S
C1071  O1104   1.287   .     A
C1071  C1076   1.441   .     S
C1071  O1101   1.287   .     A
C1072  C1075   1.441   .     S
C1072  O1103   1.287   .     A
C1072  O1102   1.287   .     A
C1073  C1107   1.452   .     S
C1073  C1083   1.414   .     A
C1073  C1075   1.407   .     A
C1074  C1076   1.407   .     A
C1074  C1084   1.414   .     A
C1074  C1109   1.452   .     S
C1075  C1077   1.387   .     A
C1076  C1078   1.387   .     A
C1077  H1087   1.085   .     S
C1077  C1079   1.375   .     A
C1078  H1088   1.085   .     S
C1078  C1080   1.375   .     A
C1079  C1085   1.392   .     A
C1079  C1081   1.407   .     A
C1080  C1086   1.392   .     A
C1080  C1082   1.407   .     A
C1081  C1083   1.429   .     A
C1081  C488    1.401   1_556 S
C1082  C1084   1.429   .     A
C1085  H1089   1.087   .     S
C1085  C465    1.386   1_556 S
C1086  H1090   1.087   .     S
N1095  Zn1105  2.009   .     S
N1096  Zn1106  2.009   .     S
O1097  Zn1105  1.990   .     S
O1098  Zn1106  1.990   .     S
O1099  Zn1105  1.992   .     S
O1100  Zn1106  1.992   .     S
O1101  Zn1105  2.019   .     S
O1102  Zn1106  2.019   .     S
O1103  Zn1105  2.023   .     S
O1104  Zn1106  2.023   .     S
C1107  N1108   1.158   .     T
C1109  N1110   1.158   .     T
C1111  N1112   1.158   .     T
C1113  N1114   1.158   .     T
C1115  N1116   1.157   .     T
C1117  N1118   1.157   .     T
C1119  N1120   1.157   .     T
C1121  N1122   1.157   .     T
C1123  O1166   1.277   .     A
C1123  O1163   1.279   .     A
C1123  C1132   1.414   .     S
C1124  O1165   1.277   .     A
C1124  O1164   1.279   .     A
C1124  C1131   1.414   .     S
C1125  C1150   1.424   .     A
C1125  C1177   1.447   .     S
C1126  C1179   1.447   .     S
C1126  C1149   1.424   .     A
C1126  C558    1.386   1_556 S
C1127  C1132   1.405   .     A
C1127  C1181   1.453   .     S
C1128  C1131   1.405   .     A
C1128  C1183   1.453   .     S
C1128  C998    1.385   1_655 S
C1129  C1131   1.404   .     A
C1129  C1185   1.455   .     S
C1129  C995    1.385   1_655 S
C1130  C1187   1.455   .     S
C1130  C1132   1.404   .     A
C1133  N1162   1.366   .     A
C1133  H1157   1.082   .     S
C1134  N1161   1.366   .     A
C1134  H1158   1.082   .     S
C1134  C739    1.416   1_565 S
C1135  N1162   1.366   .     A
C1135  H1159   1.081   .     S
C1136  H1160   1.081   .     S
C1136  N1161   1.366   .     A
C1136  C737    1.416   1_565 S
C1137  O1170   1.287   .     A
C1137  C1142   1.441   .     S
C1137  O1167   1.287   .     A
C1138  C1141   1.441   .     S
C1138  O1169   1.287   .     A
C1138  O1168   1.287   .     A
C1139  C1173   1.452   .     S
C1139  C1149   1.414   .     A
C1139  C1141   1.407   .     A
C1140  C1142   1.407   .     A
C1140  C1150   1.414   .     A
C1140  C1175   1.452   .     S
C1141  C1143   1.387   .     A
C1142  C1144   1.387   .     A
C1143  H1153   1.085   .     S
C1143  C1145   1.375   .     A
C1144  H1154   1.085   .     S
C1144  C1146   1.375   .     A
C1145  C1151   1.392   .     A
C1145  C1147   1.407   .     A
C1146  C1152   1.392   .     A
C1146  C1148   1.407   .     A
C1147  C1149   1.429   .     A
C1147  C554    1.401   1_556 S
C1148  C1150   1.429   .     A
C1151  H1155   1.087   .     S
C1151  C531    1.386   1_556 S
C1152  H1156   1.087   .     S
N1161  Zn1171  2.009   .     S
N1162  Zn1172  2.009   .     S
O1163  Zn1171  1.990   .     S
O1164  Zn1172  1.990   .     S
O1165  Zn1171  1.992   .     S
O1166  Zn1172  1.992   .     S
O1167  Zn1171  2.019   .     S
O1168  Zn1172  2.019   .     S
O1169  Zn1171  2.023   .     S
O1170  Zn1172  2.023   .     S
C1173  N1174   1.158   .     T
C1175  N1176   1.158   .     T
C1177  N1178   1.158   .     T
C1179  N1180   1.158   .     T
C1181  N1182   1.157   .     T
C1183  N1184   1.157   .     T
C1185  N1186   1.157   .     T
C1187  N1188   1.157   .     T
