data_str_m3_o1_o16_pcu_sym.74
_audit_creation_date              2020-01-03
_audit_creation_method            'Materials Studio'
_symmetry_space_group_name_H-M    'P1'
_symmetry_Int_Tables_number       1
_symmetry_cell_setting            triclinic
loop_
_symmetry_equiv_pos_as_xyz
  x,y,z
_cell_length_a                    29.6569
_cell_length_b                    31.9091
_cell_length_c                    26.4515
_cell_angle_alpha                 90.6875
_cell_angle_beta                  70.3289
_cell_angle_gamma                 90.2146
loop_
_atom_site_label
_atom_site_type_symbol
_atom_site_fract_x
_atom_site_fract_y
_atom_site_fract_z
_atom_site_U_iso_or_equiv
_atom_site_adp_type
_atom_site_occupancy
O1     O     0.12846   0.22775   0.25001   0.00000  Uiso   1.00
O2     O     0.20490   0.22774   0.25001   0.00000  Uiso   1.00
C3     C     0.16728   0.24655   0.24826   0.00000  Uiso   1.00
O4     O     0.10947   0.16666   0.32681   0.00000  Uiso   1.00
O5     O     0.18591   0.16665   0.32681   0.00000  Uiso   1.00
C6     C     0.14013   0.16675   0.35174   0.00000  Uiso   1.00
Zn7    Zn    0.11562   0.16667   0.25000   0.00000  Uiso   1.00
Zn8    Zn    0.21771   0.16666   0.25000   0.00000  Uiso   1.00
O9     O     0.12843   0.10559   0.24999   0.00000  Uiso   1.00
O10    O     0.20488   0.10558   0.24999   0.00000  Uiso   1.00
O11    O     0.14742   0.16668   0.17319   0.00000  Uiso   1.00
O12    O     0.22387   0.16667   0.17319   0.00000  Uiso   1.00
C13    C     0.16669   0.08676   0.24971   0.00000  Uiso   1.00
C14    C     0.19315   0.16801   0.14828   0.00000  Uiso   1.00
C15    C     0.25254   0.12739   0.01147   0.00000  Uiso   1.00
H16    H     0.27139   0.12914   0.08236   0.00000  Uiso   1.00
H17    H     0.24126   0.09091   0.42663   0.00000  Uiso   1.00
H18    H     0.27980   0.10421   0.49247   0.00000  Uiso   1.00
C19    C     0.20954   0.16765   0.09006   0.00000  Uiso   1.00
C20    C     0.09246   0.20906   0.42779   0.00000  Uiso   1.00
C21    C     0.09499   0.23329   0.47056   0.00000  Uiso   1.00
C22    C     0.12798   0.22331   0.49546   0.00000  Uiso   1.00
C23    C     0.15442   0.18535   0.48321   0.00000  Uiso   1.00
C24    C     0.15267   0.16156   0.43851   0.00000  Uiso   1.00
C25    C     0.18471   0.17134   0.01146   0.00000  Uiso   1.00
C26    C     0.21888   0.13916   0.48791   0.00000  Uiso   1.00
C27    C     0.21706   0.11685   0.44316   0.00000  Uiso   1.00
C28    C     0.18230   0.12611   0.42104   0.00000  Uiso   1.00
C29    C     0.17990   0.18520   0.06401   0.00000  Uiso   1.00
C30    C     0.24817   0.14198   0.06236   0.00000  Uiso   1.00
C31    C     0.12424   0.17555   0.40894   0.00000  Uiso   1.00
H32    H     0.07055   0.22002   0.40508   0.00000  Uiso   1.00
H33    H     0.13360   0.24686   0.02220   0.00000  Uiso   1.00
H34    H     0.07403   0.26176   0.48170   0.00000  Uiso   1.00
H35    H     0.18017   0.10636   0.38831   0.00000  Uiso   1.00
C36    C     0.20781   0.31222   0.21072   0.00000  Uiso   1.00
C37    C     0.20715   0.02216   0.21334   0.00000  Uiso   1.00
H38    H     0.23708   0.03990   0.18725   0.00000  Uiso   1.00
C39    C     0.16710   0.04268   0.24815   0.00000  Uiso   1.00
C40    C     0.12726   0.02128   0.28080   0.00000  Uiso   1.00
H41    H     0.09638   0.03774   0.30763   0.00000  Uiso   1.00
C42    C     0.12791   0.31173   0.27993   0.00000  Uiso   1.00
H43    H     0.09748   0.29488   0.30654   0.00000  Uiso   1.00
C44    C     0.16802   0.29073   0.24572   0.00000  Uiso   1.00
C45    C     0.32106   0.14611   0.21064   0.00000  Uiso   1.00
H46    H     0.31240   0.12967   0.17909   0.00000  Uiso   1.00
C47    C     0.03552   0.14601   0.21076   0.00000  Uiso   1.00
H48    H     0.06283   0.12932   0.17933   0.00000  Uiso   1.00
N49    N     0.04760   0.16668   0.25002   0.00000  Uiso   1.00
C50    C     0.01263   0.18688   0.28948   0.00000  Uiso   1.00
H51    H     0.02187   0.20317   0.32077   0.00000  Uiso   1.00
C52    C     0.29810   0.18716   0.28983   0.00000  Uiso   1.00
N53    N     0.28573   0.16665   0.25000   0.00000  Uiso   1.00
N54    N     0.26317   0.20883   0.33303   0.00000  Uiso   1.00
O55    O     0.24324   0.24256   0.32335   0.00000  Uiso   1.00
O56    O     0.26168   0.20224   0.38200   0.00000  Uiso   1.00
N57    N     0.14054   0.21124   0.09481   0.00000  Uiso   1.00
O58    O     0.09676   0.19790   0.10598   0.00000  Uiso   1.00
O59    O     0.14861   0.24517   0.11821   0.00000  Uiso   1.00
C60    C     0.24952   0.29065   0.16863   0.00000  Uiso   1.00
C61    C     0.29357   0.28895   0.18655   0.00000  Uiso   1.00
C62    C     0.00056   0.26345   0.14709   0.00000  Uiso   1.00
H63    H     0.32213   0.23060   0.14471   0.00000  Uiso   1.00
H64    H     0.01153   0.27752   0.10652   0.00000  Uiso   1.00
H65    H     0.03196   0.26314   0.16099   0.00000  Uiso   1.00
H66    H     0.30663   0.32128   0.18953   0.00000  Uiso   1.00
H67    H     0.28397   0.27443   0.22670   0.00000  Uiso   1.00
H68    H     0.23965   0.25862   0.15928   0.00000  Uiso   1.00
H69    H     0.25870   0.30810   0.13032   0.00000  Uiso   1.00
O70    O     0.46179   0.22775   0.25001   0.00000  Uiso   1.00
O71    O     0.53823   0.22774   0.25001   0.00000  Uiso   1.00
C72    C     0.50062   0.24655   0.24826   0.00000  Uiso   1.00
O73    O     0.44280   0.16666   0.32681   0.00000  Uiso   1.00
O74    O     0.51924   0.16665   0.32681   0.00000  Uiso   1.00
C75    C     0.47346   0.16675   0.35174   0.00000  Uiso   1.00
Zn76   Zn    0.44896   0.16667   0.25000   0.00000  Uiso   1.00
Zn77   Zn    0.55104   0.16666   0.25000   0.00000  Uiso   1.00
O78    O     0.46177   0.10559   0.24999   0.00000  Uiso   1.00
O79    O     0.53821   0.10558   0.24999   0.00000  Uiso   1.00
O80    O     0.48076   0.16668   0.17319   0.00000  Uiso   1.00
O81    O     0.55720   0.16667   0.17319   0.00000  Uiso   1.00
C82    C     0.50002   0.08676   0.24971   0.00000  Uiso   1.00
C83    C     0.52648   0.16801   0.14828   0.00000  Uiso   1.00
C84    C     0.58587   0.12739   0.01147   0.00000  Uiso   1.00
H85    H     0.60473   0.12914   0.08236   0.00000  Uiso   1.00
H86    H     0.57460   0.09091   0.42663   0.00000  Uiso   1.00
H87    H     0.61314   0.10421   0.49247   0.00000  Uiso   1.00
C88    C     0.54288   0.16765   0.09006   0.00000  Uiso   1.00
C89    C     0.42579   0.20906   0.42779   0.00000  Uiso   1.00
C90    C     0.42832   0.23329   0.47056   0.00000  Uiso   1.00
C91    C     0.46131   0.22331   0.49546   0.00000  Uiso   1.00
C92    C     0.48775   0.18535   0.48321   0.00000  Uiso   1.00
C93    C     0.48600   0.16156   0.43851   0.00000  Uiso   1.00
C94    C     0.51805   0.17134   0.01146   0.00000  Uiso   1.00
C95    C     0.55221   0.13916   0.48791   0.00000  Uiso   1.00
C96    C     0.55040   0.11685   0.44316   0.00000  Uiso   1.00
C97    C     0.51563   0.12611   0.42104   0.00000  Uiso   1.00
C98    C     0.51323   0.18520   0.06401   0.00000  Uiso   1.00
C99    C     0.58150   0.14198   0.06236   0.00000  Uiso   1.00
C100   C     0.45757   0.17555   0.40894   0.00000  Uiso   1.00
H101   H     0.40388   0.22002   0.40508   0.00000  Uiso   1.00
H102   H     0.46693   0.24686   0.02220   0.00000  Uiso   1.00
H103   H     0.40736   0.26176   0.48170   0.00000  Uiso   1.00
H104   H     0.51350   0.10636   0.38831   0.00000  Uiso   1.00
C105   C     0.54114   0.31222   0.21072   0.00000  Uiso   1.00
C106   C     0.54048   0.02216   0.21334   0.00000  Uiso   1.00
H107   H     0.57041   0.03990   0.18725   0.00000  Uiso   1.00
C108   C     0.50044   0.04268   0.24815   0.00000  Uiso   1.00
C109   C     0.46059   0.02128   0.28080   0.00000  Uiso   1.00
H110   H     0.42971   0.03774   0.30763   0.00000  Uiso   1.00
C111   C     0.46124   0.31173   0.27993   0.00000  Uiso   1.00
H112   H     0.43081   0.29488   0.30654   0.00000  Uiso   1.00
C113   C     0.50136   0.29073   0.24572   0.00000  Uiso   1.00
C114   C     0.65439   0.14611   0.21064   0.00000  Uiso   1.00
H115   H     0.64574   0.12967   0.17909   0.00000  Uiso   1.00
C116   C     0.36886   0.14601   0.21076   0.00000  Uiso   1.00
H117   H     0.39616   0.12932   0.17933   0.00000  Uiso   1.00
N118   N     0.38093   0.16668   0.25002   0.00000  Uiso   1.00
C119   C     0.34597   0.18688   0.28948   0.00000  Uiso   1.00
H120   H     0.35520   0.20317   0.32077   0.00000  Uiso   1.00
C121   C     0.63143   0.18716   0.28983   0.00000  Uiso   1.00
N122   N     0.61906   0.16665   0.25000   0.00000  Uiso   1.00
N123   N     0.59650   0.20883   0.33303   0.00000  Uiso   1.00
O124   O     0.57658   0.24256   0.32335   0.00000  Uiso   1.00
O125   O     0.59501   0.20224   0.38200   0.00000  Uiso   1.00
N126   N     0.47387   0.21124   0.09481   0.00000  Uiso   1.00
O127   O     0.43009   0.19790   0.10598   0.00000  Uiso   1.00
O128   O     0.48194   0.24517   0.11821   0.00000  Uiso   1.00
C129   C     0.58285   0.29065   0.16863   0.00000  Uiso   1.00
C130   C     0.62691   0.28895   0.18655   0.00000  Uiso   1.00
C131   C     0.33390   0.26345   0.14709   0.00000  Uiso   1.00
H132   H     0.65546   0.23060   0.14471   0.00000  Uiso   1.00
H133   H     0.34486   0.27752   0.10652   0.00000  Uiso   1.00
H134   H     0.36529   0.26314   0.16099   0.00000  Uiso   1.00
H135   H     0.63997   0.32128   0.18953   0.00000  Uiso   1.00
H136   H     0.61730   0.27443   0.22670   0.00000  Uiso   1.00
H137   H     0.57298   0.25862   0.15928   0.00000  Uiso   1.00
H138   H     0.59203   0.30810   0.13032   0.00000  Uiso   1.00
O139   O     0.79512   0.22775   0.25001   0.00000  Uiso   1.00
O140   O     0.87157   0.22774   0.25001   0.00000  Uiso   1.00
C141   C     0.83395   0.24655   0.24826   0.00000  Uiso   1.00
O142   O     0.77613   0.16666   0.32681   0.00000  Uiso   1.00
O143   O     0.85258   0.16665   0.32681   0.00000  Uiso   1.00
C144   C     0.80680   0.16675   0.35174   0.00000  Uiso   1.00
Zn145  Zn    0.78229   0.16667   0.25000   0.00000  Uiso   1.00
Zn146  Zn    0.88438   0.16666   0.25000   0.00000  Uiso   1.00
O147   O     0.79510   0.10559   0.24999   0.00000  Uiso   1.00
O148   O     0.87154   0.10558   0.24999   0.00000  Uiso   1.00
O149   O     0.81409   0.16668   0.17319   0.00000  Uiso   1.00
O150   O     0.89053   0.16667   0.17319   0.00000  Uiso   1.00
C151   C     0.83336   0.08676   0.24971   0.00000  Uiso   1.00
C152   C     0.85981   0.16801   0.14828   0.00000  Uiso   1.00
C153   C     0.91920   0.12739   0.01147   0.00000  Uiso   1.00
H154   H     0.93806   0.12914   0.08236   0.00000  Uiso   1.00
H155   H     0.90793   0.09091   0.42663   0.00000  Uiso   1.00
H156   H     0.94647   0.10421   0.49247   0.00000  Uiso   1.00
C157   C     0.87621   0.16765   0.09006   0.00000  Uiso   1.00
C158   C     0.75912   0.20906   0.42779   0.00000  Uiso   1.00
C159   C     0.76165   0.23329   0.47056   0.00000  Uiso   1.00
C160   C     0.79464   0.22331   0.49546   0.00000  Uiso   1.00
C161   C     0.82108   0.18535   0.48321   0.00000  Uiso   1.00
C162   C     0.81934   0.16156   0.43851   0.00000  Uiso   1.00
C163   C     0.85138   0.17134   0.01146   0.00000  Uiso   1.00
C164   C     0.88555   0.13916   0.48791   0.00000  Uiso   1.00
C165   C     0.88373   0.11685   0.44316   0.00000  Uiso   1.00
C166   C     0.84896   0.12611   0.42104   0.00000  Uiso   1.00
C167   C     0.84657   0.18520   0.06401   0.00000  Uiso   1.00
C168   C     0.91483   0.14198   0.06236   0.00000  Uiso   1.00
C169   C     0.79091   0.17555   0.40894   0.00000  Uiso   1.00
H170   H     0.73721   0.22002   0.40508   0.00000  Uiso   1.00
H171   H     0.80026   0.24686   0.02220   0.00000  Uiso   1.00
H172   H     0.74070   0.26176   0.48170   0.00000  Uiso   1.00
H173   H     0.84684   0.10636   0.38831   0.00000  Uiso   1.00
C174   C     0.87448   0.31222   0.21072   0.00000  Uiso   1.00
C175   C     0.87382   0.02216   0.21334   0.00000  Uiso   1.00
H176   H     0.90375   0.03990   0.18725   0.00000  Uiso   1.00
C177   C     0.83377   0.04268   0.24815   0.00000  Uiso   1.00
C178   C     0.79393   0.02128   0.28080   0.00000  Uiso   1.00
H179   H     0.76304   0.03774   0.30763   0.00000  Uiso   1.00
C180   C     0.79457   0.31173   0.27993   0.00000  Uiso   1.00
H181   H     0.76415   0.29488   0.30654   0.00000  Uiso   1.00
C182   C     0.83469   0.29073   0.24572   0.00000  Uiso   1.00
C183   C     0.98772   0.14611   0.21064   0.00000  Uiso   1.00
H184   H     0.97907   0.12967   0.17909   0.00000  Uiso   1.00
C185   C     0.70219   0.14601   0.21076   0.00000  Uiso   1.00
H186   H     0.72949   0.12932   0.17933   0.00000  Uiso   1.00
N187   N     0.71426   0.16668   0.25002   0.00000  Uiso   1.00
C188   C     0.67930   0.18688   0.28948   0.00000  Uiso   1.00
H189   H     0.68853   0.20317   0.32077   0.00000  Uiso   1.00
C190   C     0.96477   0.18716   0.28983   0.00000  Uiso   1.00
N191   N     0.95239   0.16665   0.25000   0.00000  Uiso   1.00
N192   N     0.92984   0.20883   0.33303   0.00000  Uiso   1.00
O193   O     0.90991   0.24256   0.32335   0.00000  Uiso   1.00
O194   O     0.92835   0.20224   0.38200   0.00000  Uiso   1.00
N195   N     0.80720   0.21124   0.09481   0.00000  Uiso   1.00
O196   O     0.76342   0.19790   0.10598   0.00000  Uiso   1.00
O197   O     0.81528   0.24517   0.11821   0.00000  Uiso   1.00
C198   C     0.91618   0.29065   0.16863   0.00000  Uiso   1.00
C199   C     0.96024   0.28895   0.18655   0.00000  Uiso   1.00
C200   C     0.66723   0.26345   0.14709   0.00000  Uiso   1.00
H201   H     0.98879   0.23060   0.14471   0.00000  Uiso   1.00
H202   H     0.67819   0.27752   0.10652   0.00000  Uiso   1.00
H203   H     0.69863   0.26314   0.16099   0.00000  Uiso   1.00
H204   H     0.97330   0.32128   0.18953   0.00000  Uiso   1.00
H205   H     0.95063   0.27443   0.22670   0.00000  Uiso   1.00
H206   H     0.90631   0.25862   0.15928   0.00000  Uiso   1.00
H207   H     0.92537   0.30810   0.13032   0.00000  Uiso   1.00
O208   O     0.12846   0.56108   0.25001   0.00000  Uiso   1.00
O209   O     0.20490   0.56107   0.25001   0.00000  Uiso   1.00
C210   C     0.16728   0.57988   0.24826   0.00000  Uiso   1.00
O211   O     0.10947   0.50000   0.32681   0.00000  Uiso   1.00
O212   O     0.18591   0.49999   0.32681   0.00000  Uiso   1.00
C213   C     0.14013   0.50008   0.35174   0.00000  Uiso   1.00
Zn214  Zn    0.11562   0.50001   0.25000   0.00000  Uiso   1.00
Zn215  Zn    0.21771   0.49999   0.25000   0.00000  Uiso   1.00
O216   O     0.12843   0.43893   0.24999   0.00000  Uiso   1.00
O217   O     0.20488   0.43892   0.24999   0.00000  Uiso   1.00
O218   O     0.14742   0.50001   0.17319   0.00000  Uiso   1.00
O219   O     0.22387   0.50000   0.17319   0.00000  Uiso   1.00
C220   C     0.16669   0.42009   0.24971   0.00000  Uiso   1.00
C221   C     0.19315   0.50135   0.14828   0.00000  Uiso   1.00
C222   C     0.25254   0.46072   0.01147   0.00000  Uiso   1.00
H223   H     0.27139   0.46247   0.08236   0.00000  Uiso   1.00
H224   H     0.24126   0.42425   0.42663   0.00000  Uiso   1.00
H225   H     0.27980   0.43754   0.49247   0.00000  Uiso   1.00
C226   C     0.20954   0.50098   0.09006   0.00000  Uiso   1.00
C227   C     0.09246   0.54239   0.42779   0.00000  Uiso   1.00
C228   C     0.09499   0.56663   0.47056   0.00000  Uiso   1.00
C229   C     0.12798   0.55664   0.49546   0.00000  Uiso   1.00
C230   C     0.15442   0.51869   0.48321   0.00000  Uiso   1.00
C231   C     0.15267   0.49490   0.43851   0.00000  Uiso   1.00
C232   C     0.18471   0.50468   0.01146   0.00000  Uiso   1.00
C233   C     0.21888   0.47250   0.48791   0.00000  Uiso   1.00
C234   C     0.21706   0.45019   0.44316   0.00000  Uiso   1.00
C235   C     0.18230   0.45944   0.42104   0.00000  Uiso   1.00
C236   C     0.17990   0.51854   0.06401   0.00000  Uiso   1.00
C237   C     0.24817   0.47531   0.06236   0.00000  Uiso   1.00
C238   C     0.12424   0.50888   0.40894   0.00000  Uiso   1.00
H239   H     0.07055   0.55335   0.40508   0.00000  Uiso   1.00
H240   H     0.13360   0.58020   0.02220   0.00000  Uiso   1.00
H241   H     0.07403   0.59509   0.48170   0.00000  Uiso   1.00
H242   H     0.18017   0.43970   0.38831   0.00000  Uiso   1.00
C243   C     0.20781   0.64555   0.21072   0.00000  Uiso   1.00
C244   C     0.20715   0.35549   0.21334   0.00000  Uiso   1.00
H245   H     0.23708   0.37323   0.18725   0.00000  Uiso   1.00
C246   C     0.16710   0.37602   0.24815   0.00000  Uiso   1.00
C247   C     0.12726   0.35461   0.28080   0.00000  Uiso   1.00
H248   H     0.09638   0.37107   0.30763   0.00000  Uiso   1.00
C249   C     0.12791   0.64506   0.27993   0.00000  Uiso   1.00
H250   H     0.09748   0.62821   0.30654   0.00000  Uiso   1.00
C251   C     0.16802   0.62406   0.24572   0.00000  Uiso   1.00
C252   C     0.32106   0.47945   0.21064   0.00000  Uiso   1.00
H253   H     0.31240   0.46300   0.17909   0.00000  Uiso   1.00
C254   C     0.03552   0.47934   0.21076   0.00000  Uiso   1.00
H255   H     0.06283   0.46265   0.17933   0.00000  Uiso   1.00
N256   N     0.04760   0.50001   0.25002   0.00000  Uiso   1.00
C257   C     0.01263   0.52021   0.28948   0.00000  Uiso   1.00
H258   H     0.02187   0.53651   0.32077   0.00000  Uiso   1.00
C259   C     0.29810   0.52049   0.28983   0.00000  Uiso   1.00
N260   N     0.28573   0.49998   0.25000   0.00000  Uiso   1.00
N261   N     0.26317   0.54216   0.33303   0.00000  Uiso   1.00
O262   O     0.24324   0.57589   0.32335   0.00000  Uiso   1.00
O263   O     0.26168   0.53558   0.38200   0.00000  Uiso   1.00
N264   N     0.14054   0.54457   0.09481   0.00000  Uiso   1.00
O265   O     0.09676   0.53123   0.10598   0.00000  Uiso   1.00
O266   O     0.14861   0.57851   0.11821   0.00000  Uiso   1.00
C267   C     0.24952   0.62399   0.16863   0.00000  Uiso   1.00
C268   C     0.29357   0.62229   0.18655   0.00000  Uiso   1.00
C269   C     0.00056   0.59678   0.14709   0.00000  Uiso   1.00
H270   H     0.32213   0.56393   0.14471   0.00000  Uiso   1.00
H271   H     0.01153   0.61085   0.10652   0.00000  Uiso   1.00
H272   H     0.03196   0.59647   0.16099   0.00000  Uiso   1.00
H273   H     0.30663   0.65461   0.18953   0.00000  Uiso   1.00
H274   H     0.28397   0.60777   0.22670   0.00000  Uiso   1.00
H275   H     0.23965   0.59195   0.15928   0.00000  Uiso   1.00
H276   H     0.25870   0.64143   0.13032   0.00000  Uiso   1.00
O277   O     0.46179   0.56108   0.25001   0.00000  Uiso   1.00
O278   O     0.53823   0.56107   0.25001   0.00000  Uiso   1.00
C279   C     0.50062   0.57988   0.24826   0.00000  Uiso   1.00
O280   O     0.44280   0.50000   0.32681   0.00000  Uiso   1.00
O281   O     0.51924   0.49999   0.32681   0.00000  Uiso   1.00
C282   C     0.47346   0.50008   0.35174   0.00000  Uiso   1.00
Zn283  Zn    0.44896   0.50001   0.25000   0.00000  Uiso   1.00
Zn284  Zn    0.55104   0.49999   0.25000   0.00000  Uiso   1.00
O285   O     0.46177   0.43893   0.24999   0.00000  Uiso   1.00
O286   O     0.53821   0.43892   0.24999   0.00000  Uiso   1.00
O287   O     0.48076   0.50001   0.17319   0.00000  Uiso   1.00
O288   O     0.55720   0.50000   0.17319   0.00000  Uiso   1.00
C289   C     0.50002   0.42009   0.24971   0.00000  Uiso   1.00
C290   C     0.52648   0.50135   0.14828   0.00000  Uiso   1.00
C291   C     0.58587   0.46072   0.01147   0.00000  Uiso   1.00
H292   H     0.60473   0.46247   0.08236   0.00000  Uiso   1.00
H293   H     0.57460   0.42425   0.42663   0.00000  Uiso   1.00
H294   H     0.61314   0.43754   0.49247   0.00000  Uiso   1.00
C295   C     0.54288   0.50098   0.09006   0.00000  Uiso   1.00
C296   C     0.42579   0.54239   0.42779   0.00000  Uiso   1.00
C297   C     0.42832   0.56663   0.47056   0.00000  Uiso   1.00
C298   C     0.46131   0.55664   0.49546   0.00000  Uiso   1.00
C299   C     0.48775   0.51869   0.48321   0.00000  Uiso   1.00
C300   C     0.48600   0.49490   0.43851   0.00000  Uiso   1.00
C301   C     0.51805   0.50468   0.01146   0.00000  Uiso   1.00
C302   C     0.55221   0.47250   0.48791   0.00000  Uiso   1.00
C303   C     0.55040   0.45019   0.44316   0.00000  Uiso   1.00
C304   C     0.51563   0.45944   0.42104   0.00000  Uiso   1.00
C305   C     0.51323   0.51854   0.06401   0.00000  Uiso   1.00
C306   C     0.58150   0.47531   0.06236   0.00000  Uiso   1.00
C307   C     0.45757   0.50888   0.40894   0.00000  Uiso   1.00
H308   H     0.40388   0.55335   0.40508   0.00000  Uiso   1.00
H309   H     0.46693   0.58020   0.02220   0.00000  Uiso   1.00
H310   H     0.40736   0.59509   0.48170   0.00000  Uiso   1.00
H311   H     0.51350   0.43970   0.38831   0.00000  Uiso   1.00
C312   C     0.54114   0.64555   0.21072   0.00000  Uiso   1.00
C313   C     0.54048   0.35549   0.21334   0.00000  Uiso   1.00
H314   H     0.57041   0.37323   0.18725   0.00000  Uiso   1.00
C315   C     0.50044   0.37602   0.24815   0.00000  Uiso   1.00
C316   C     0.46059   0.35461   0.28080   0.00000  Uiso   1.00
H317   H     0.42971   0.37107   0.30763   0.00000  Uiso   1.00
C318   C     0.46124   0.64506   0.27993   0.00000  Uiso   1.00
H319   H     0.43081   0.62821   0.30654   0.00000  Uiso   1.00
C320   C     0.50136   0.62406   0.24572   0.00000  Uiso   1.00
C321   C     0.65439   0.47945   0.21064   0.00000  Uiso   1.00
H322   H     0.64574   0.46300   0.17909   0.00000  Uiso   1.00
C323   C     0.36886   0.47934   0.21076   0.00000  Uiso   1.00
H324   H     0.39616   0.46265   0.17933   0.00000  Uiso   1.00
N325   N     0.38093   0.50001   0.25002   0.00000  Uiso   1.00
C326   C     0.34597   0.52021   0.28948   0.00000  Uiso   1.00
H327   H     0.35520   0.53651   0.32077   0.00000  Uiso   1.00
C328   C     0.63143   0.52049   0.28983   0.00000  Uiso   1.00
N329   N     0.61906   0.49998   0.25000   0.00000  Uiso   1.00
N330   N     0.59650   0.54216   0.33303   0.00000  Uiso   1.00
O331   O     0.57658   0.57589   0.32335   0.00000  Uiso   1.00
O332   O     0.59501   0.53558   0.38200   0.00000  Uiso   1.00
N333   N     0.47387   0.54457   0.09481   0.00000  Uiso   1.00
O334   O     0.43009   0.53123   0.10598   0.00000  Uiso   1.00
O335   O     0.48194   0.57851   0.11821   0.00000  Uiso   1.00
C336   C     0.58285   0.62399   0.16863   0.00000  Uiso   1.00
C337   C     0.62691   0.62229   0.18655   0.00000  Uiso   1.00
C338   C     0.33390   0.59678   0.14709   0.00000  Uiso   1.00
H339   H     0.65546   0.56393   0.14471   0.00000  Uiso   1.00
H340   H     0.34486   0.61085   0.10652   0.00000  Uiso   1.00
H341   H     0.36529   0.59647   0.16099   0.00000  Uiso   1.00
H342   H     0.63997   0.65461   0.18953   0.00000  Uiso   1.00
H343   H     0.61730   0.60777   0.22670   0.00000  Uiso   1.00
H344   H     0.57298   0.59195   0.15928   0.00000  Uiso   1.00
H345   H     0.59203   0.64143   0.13032   0.00000  Uiso   1.00
O346   O     0.79512   0.56108   0.25001   0.00000  Uiso   1.00
O347   O     0.87157   0.56107   0.25001   0.00000  Uiso   1.00
C348   C     0.83395   0.57988   0.24826   0.00000  Uiso   1.00
O349   O     0.77613   0.50000   0.32681   0.00000  Uiso   1.00
O350   O     0.85258   0.49999   0.32681   0.00000  Uiso   1.00
C351   C     0.80680   0.50008   0.35174   0.00000  Uiso   1.00
Zn352  Zn    0.78229   0.50001   0.25000   0.00000  Uiso   1.00
Zn353  Zn    0.88438   0.49999   0.25000   0.00000  Uiso   1.00
O354   O     0.79510   0.43893   0.24999   0.00000  Uiso   1.00
O355   O     0.87154   0.43892   0.24999   0.00000  Uiso   1.00
O356   O     0.81409   0.50001   0.17319   0.00000  Uiso   1.00
O357   O     0.89053   0.50000   0.17319   0.00000  Uiso   1.00
C358   C     0.83336   0.42009   0.24971   0.00000  Uiso   1.00
C359   C     0.85981   0.50135   0.14828   0.00000  Uiso   1.00
C360   C     0.91920   0.46072   0.01147   0.00000  Uiso   1.00
H361   H     0.93806   0.46247   0.08236   0.00000  Uiso   1.00
H362   H     0.90793   0.42425   0.42663   0.00000  Uiso   1.00
H363   H     0.94647   0.43754   0.49247   0.00000  Uiso   1.00
C364   C     0.87621   0.50098   0.09006   0.00000  Uiso   1.00
C365   C     0.75912   0.54239   0.42779   0.00000  Uiso   1.00
C366   C     0.76165   0.56663   0.47056   0.00000  Uiso   1.00
C367   C     0.79464   0.55664   0.49546   0.00000  Uiso   1.00
C368   C     0.82108   0.51869   0.48321   0.00000  Uiso   1.00
C369   C     0.81934   0.49490   0.43851   0.00000  Uiso   1.00
C370   C     0.85138   0.50468   0.01146   0.00000  Uiso   1.00
C371   C     0.88555   0.47250   0.48791   0.00000  Uiso   1.00
C372   C     0.88373   0.45019   0.44316   0.00000  Uiso   1.00
C373   C     0.84896   0.45944   0.42104   0.00000  Uiso   1.00
C374   C     0.84657   0.51854   0.06401   0.00000  Uiso   1.00
C375   C     0.91483   0.47531   0.06236   0.00000  Uiso   1.00
C376   C     0.79091   0.50888   0.40894   0.00000  Uiso   1.00
H377   H     0.73721   0.55335   0.40508   0.00000  Uiso   1.00
H378   H     0.80026   0.58020   0.02220   0.00000  Uiso   1.00
H379   H     0.74070   0.59509   0.48170   0.00000  Uiso   1.00
H380   H     0.84684   0.43970   0.38831   0.00000  Uiso   1.00
C381   C     0.87448   0.64555   0.21072   0.00000  Uiso   1.00
C382   C     0.87382   0.35549   0.21334   0.00000  Uiso   1.00
H383   H     0.90375   0.37323   0.18725   0.00000  Uiso   1.00
C384   C     0.83377   0.37602   0.24815   0.00000  Uiso   1.00
C385   C     0.79393   0.35461   0.28080   0.00000  Uiso   1.00
H386   H     0.76304   0.37107   0.30763   0.00000  Uiso   1.00
C387   C     0.79457   0.64506   0.27993   0.00000  Uiso   1.00
H388   H     0.76415   0.62821   0.30654   0.00000  Uiso   1.00
C389   C     0.83469   0.62406   0.24572   0.00000  Uiso   1.00
C390   C     0.98772   0.47945   0.21064   0.00000  Uiso   1.00
H391   H     0.97907   0.46300   0.17909   0.00000  Uiso   1.00
C392   C     0.70219   0.47934   0.21076   0.00000  Uiso   1.00
H393   H     0.72949   0.46265   0.17933   0.00000  Uiso   1.00
N394   N     0.71426   0.50001   0.25002   0.00000  Uiso   1.00
C395   C     0.67930   0.52021   0.28948   0.00000  Uiso   1.00
H396   H     0.68853   0.53651   0.32077   0.00000  Uiso   1.00
C397   C     0.96477   0.52049   0.28983   0.00000  Uiso   1.00
N398   N     0.95239   0.49998   0.25000   0.00000  Uiso   1.00
N399   N     0.92984   0.54216   0.33303   0.00000  Uiso   1.00
O400   O     0.90991   0.57589   0.32335   0.00000  Uiso   1.00
O401   O     0.92835   0.53558   0.38200   0.00000  Uiso   1.00
N402   N     0.80720   0.54457   0.09481   0.00000  Uiso   1.00
O403   O     0.76342   0.53123   0.10598   0.00000  Uiso   1.00
O404   O     0.81528   0.57851   0.11821   0.00000  Uiso   1.00
C405   C     0.91618   0.62399   0.16863   0.00000  Uiso   1.00
C406   C     0.96024   0.62229   0.18655   0.00000  Uiso   1.00
C407   C     0.66723   0.59678   0.14709   0.00000  Uiso   1.00
H408   H     0.98879   0.56393   0.14471   0.00000  Uiso   1.00
H409   H     0.67819   0.61085   0.10652   0.00000  Uiso   1.00
H410   H     0.69863   0.59647   0.16099   0.00000  Uiso   1.00
H411   H     0.97330   0.65461   0.18953   0.00000  Uiso   1.00
H412   H     0.95063   0.60777   0.22670   0.00000  Uiso   1.00
H413   H     0.90631   0.59195   0.15928   0.00000  Uiso   1.00
H414   H     0.92537   0.64143   0.13032   0.00000  Uiso   1.00
O415   O     0.12846   0.89442   0.25001   0.00000  Uiso   1.00
O416   O     0.20490   0.89441   0.25001   0.00000  Uiso   1.00
C417   C     0.16728   0.91321   0.24826   0.00000  Uiso   1.00
O418   O     0.10947   0.83333   0.32681   0.00000  Uiso   1.00
O419   O     0.18591   0.83332   0.32681   0.00000  Uiso   1.00
C420   C     0.14013   0.83341   0.35174   0.00000  Uiso   1.00
Zn421  Zn    0.11562   0.83334   0.25000   0.00000  Uiso   1.00
Zn422  Zn    0.21771   0.83333   0.25000   0.00000  Uiso   1.00
O423   O     0.12843   0.77226   0.24999   0.00000  Uiso   1.00
O424   O     0.20488   0.77225   0.24999   0.00000  Uiso   1.00
O425   O     0.14742   0.83335   0.17319   0.00000  Uiso   1.00
O426   O     0.22387   0.83334   0.17319   0.00000  Uiso   1.00
C427   C     0.16669   0.75343   0.24971   0.00000  Uiso   1.00
C428   C     0.19315   0.83468   0.14828   0.00000  Uiso   1.00
C429   C     0.25254   0.79405   0.01147   0.00000  Uiso   1.00
H430   H     0.27139   0.79581   0.08236   0.00000  Uiso   1.00
H431   H     0.24126   0.75758   0.42663   0.00000  Uiso   1.00
H432   H     0.27980   0.77087   0.49247   0.00000  Uiso   1.00
C433   C     0.20954   0.83432   0.09006   0.00000  Uiso   1.00
C434   C     0.09246   0.87573   0.42779   0.00000  Uiso   1.00
C435   C     0.09499   0.89996   0.47056   0.00000  Uiso   1.00
C436   C     0.12798   0.88998   0.49546   0.00000  Uiso   1.00
C437   C     0.15442   0.85202   0.48321   0.00000  Uiso   1.00
C438   C     0.15267   0.82823   0.43851   0.00000  Uiso   1.00
C439   C     0.18471   0.83801   0.01146   0.00000  Uiso   1.00
C440   C     0.21888   0.80583   0.48791   0.00000  Uiso   1.00
C441   C     0.21706   0.78352   0.44316   0.00000  Uiso   1.00
C442   C     0.18230   0.79278   0.42104   0.00000  Uiso   1.00
C443   C     0.17990   0.85187   0.06401   0.00000  Uiso   1.00
C444   C     0.24817   0.80864   0.06236   0.00000  Uiso   1.00
C445   C     0.12424   0.84222   0.40894   0.00000  Uiso   1.00
H446   H     0.07055   0.88668   0.40508   0.00000  Uiso   1.00
H447   H     0.13360   0.91353   0.02220   0.00000  Uiso   1.00
H448   H     0.07403   0.92843   0.48170   0.00000  Uiso   1.00
H449   H     0.18017   0.77303   0.38831   0.00000  Uiso   1.00
C450   C     0.20781   0.97889   0.21072   0.00000  Uiso   1.00
C451   C     0.20715   0.68883   0.21334   0.00000  Uiso   1.00
H452   H     0.23708   0.70657   0.18725   0.00000  Uiso   1.00
C453   C     0.16710   0.70935   0.24815   0.00000  Uiso   1.00
C454   C     0.12726   0.68794   0.28080   0.00000  Uiso   1.00
H455   H     0.09638   0.70440   0.30763   0.00000  Uiso   1.00
C456   C     0.12791   0.97839   0.27993   0.00000  Uiso   1.00
H457   H     0.09748   0.96155   0.30654   0.00000  Uiso   1.00
C458   C     0.16802   0.95739   0.24572   0.00000  Uiso   1.00
C459   C     0.32106   0.81278   0.21064   0.00000  Uiso   1.00
H460   H     0.31240   0.79633   0.17909   0.00000  Uiso   1.00
C461   C     0.03552   0.81267   0.21076   0.00000  Uiso   1.00
H462   H     0.06283   0.79599   0.17933   0.00000  Uiso   1.00
N463   N     0.04760   0.83334   0.25002   0.00000  Uiso   1.00
C464   C     0.01263   0.85355   0.28948   0.00000  Uiso   1.00
H465   H     0.02187   0.86984   0.32077   0.00000  Uiso   1.00
C466   C     0.29810   0.85383   0.28983   0.00000  Uiso   1.00
N467   N     0.28573   0.83331   0.25000   0.00000  Uiso   1.00
N468   N     0.26317   0.87550   0.33303   0.00000  Uiso   1.00
O469   O     0.24324   0.90922   0.32335   0.00000  Uiso   1.00
O470   O     0.26168   0.86891   0.38200   0.00000  Uiso   1.00
N471   N     0.14054   0.87791   0.09481   0.00000  Uiso   1.00
O472   O     0.09676   0.86456   0.10598   0.00000  Uiso   1.00
O473   O     0.14861   0.91184   0.11821   0.00000  Uiso   1.00
C474   C     0.24952   0.95732   0.16863   0.00000  Uiso   1.00
C475   C     0.29357   0.95562   0.18655   0.00000  Uiso   1.00
C476   C     0.00056   0.93011   0.14709   0.00000  Uiso   1.00
H477   H     0.32213   0.89727   0.14471   0.00000  Uiso   1.00
H478   H     0.01153   0.94418   0.10652   0.00000  Uiso   1.00
H479   H     0.03196   0.92980   0.16099   0.00000  Uiso   1.00
H480   H     0.30663   0.98795   0.18953   0.00000  Uiso   1.00
H481   H     0.28397   0.94110   0.22670   0.00000  Uiso   1.00
H482   H     0.23965   0.92528   0.15928   0.00000  Uiso   1.00
H483   H     0.25870   0.97477   0.13032   0.00000  Uiso   1.00
O484   O     0.46179   0.89442   0.25001   0.00000  Uiso   1.00
O485   O     0.53823   0.89441   0.25001   0.00000  Uiso   1.00
C486   C     0.50062   0.91321   0.24826   0.00000  Uiso   1.00
O487   O     0.44280   0.83333   0.32681   0.00000  Uiso   1.00
O488   O     0.51924   0.83332   0.32681   0.00000  Uiso   1.00
C489   C     0.47346   0.83341   0.35174   0.00000  Uiso   1.00
Zn490  Zn    0.44896   0.83334   0.25000   0.00000  Uiso   1.00
Zn491  Zn    0.55104   0.83333   0.25000   0.00000  Uiso   1.00
O492   O     0.46177   0.77226   0.24999   0.00000  Uiso   1.00
O493   O     0.53821   0.77225   0.24999   0.00000  Uiso   1.00
O494   O     0.48076   0.83335   0.17319   0.00000  Uiso   1.00
O495   O     0.55720   0.83334   0.17319   0.00000  Uiso   1.00
C496   C     0.50002   0.75343   0.24971   0.00000  Uiso   1.00
C497   C     0.52648   0.83468   0.14828   0.00000  Uiso   1.00
C498   C     0.58587   0.79405   0.01147   0.00000  Uiso   1.00
H499   H     0.60473   0.79581   0.08236   0.00000  Uiso   1.00
H500   H     0.57460   0.75758   0.42663   0.00000  Uiso   1.00
H501   H     0.61314   0.77087   0.49247   0.00000  Uiso   1.00
C502   C     0.54288   0.83432   0.09006   0.00000  Uiso   1.00
C503   C     0.42579   0.87573   0.42779   0.00000  Uiso   1.00
C504   C     0.42832   0.89996   0.47056   0.00000  Uiso   1.00
C505   C     0.46131   0.88998   0.49546   0.00000  Uiso   1.00
C506   C     0.48775   0.85202   0.48321   0.00000  Uiso   1.00
C507   C     0.48600   0.82823   0.43851   0.00000  Uiso   1.00
C508   C     0.51805   0.83801   0.01146   0.00000  Uiso   1.00
C509   C     0.55221   0.80583   0.48791   0.00000  Uiso   1.00
C510   C     0.55040   0.78352   0.44316   0.00000  Uiso   1.00
C511   C     0.51563   0.79278   0.42104   0.00000  Uiso   1.00
C512   C     0.51323   0.85187   0.06401   0.00000  Uiso   1.00
C513   C     0.58150   0.80864   0.06236   0.00000  Uiso   1.00
C514   C     0.45757   0.84222   0.40894   0.00000  Uiso   1.00
H515   H     0.40388   0.88668   0.40508   0.00000  Uiso   1.00
H516   H     0.46693   0.91353   0.02220   0.00000  Uiso   1.00
H517   H     0.40736   0.92843   0.48170   0.00000  Uiso   1.00
H518   H     0.51350   0.77303   0.38831   0.00000  Uiso   1.00
C519   C     0.54114   0.97889   0.21072   0.00000  Uiso   1.00
C520   C     0.54048   0.68883   0.21334   0.00000  Uiso   1.00
H521   H     0.57041   0.70657   0.18725   0.00000  Uiso   1.00
C522   C     0.50044   0.70935   0.24815   0.00000  Uiso   1.00
C523   C     0.46059   0.68794   0.28080   0.00000  Uiso   1.00
H524   H     0.42971   0.70440   0.30763   0.00000  Uiso   1.00
C525   C     0.46124   0.97839   0.27993   0.00000  Uiso   1.00
H526   H     0.43081   0.96155   0.30654   0.00000  Uiso   1.00
C527   C     0.50136   0.95739   0.24572   0.00000  Uiso   1.00
C528   C     0.65439   0.81278   0.21064   0.00000  Uiso   1.00
H529   H     0.64574   0.79633   0.17909   0.00000  Uiso   1.00
C530   C     0.36886   0.81267   0.21076   0.00000  Uiso   1.00
H531   H     0.39616   0.79599   0.17933   0.00000  Uiso   1.00
N532   N     0.38093   0.83334   0.25002   0.00000  Uiso   1.00
C533   C     0.34597   0.85355   0.28948   0.00000  Uiso   1.00
H534   H     0.35520   0.86984   0.32077   0.00000  Uiso   1.00
C535   C     0.63143   0.85383   0.28983   0.00000  Uiso   1.00
N536   N     0.61906   0.83331   0.25000   0.00000  Uiso   1.00
N537   N     0.59650   0.87550   0.33303   0.00000  Uiso   1.00
O538   O     0.57658   0.90922   0.32335   0.00000  Uiso   1.00
O539   O     0.59501   0.86891   0.38200   0.00000  Uiso   1.00
N540   N     0.47387   0.87791   0.09481   0.00000  Uiso   1.00
O541   O     0.43009   0.86456   0.10598   0.00000  Uiso   1.00
O542   O     0.48194   0.91184   0.11821   0.00000  Uiso   1.00
C543   C     0.58285   0.95732   0.16863   0.00000  Uiso   1.00
C544   C     0.62691   0.95562   0.18655   0.00000  Uiso   1.00
C545   C     0.33390   0.93011   0.14709   0.00000  Uiso   1.00
H546   H     0.65546   0.89727   0.14471   0.00000  Uiso   1.00
H547   H     0.34486   0.94418   0.10652   0.00000  Uiso   1.00
H548   H     0.36529   0.92980   0.16099   0.00000  Uiso   1.00
H549   H     0.63997   0.98795   0.18953   0.00000  Uiso   1.00
H550   H     0.61730   0.94110   0.22670   0.00000  Uiso   1.00
H551   H     0.57298   0.92528   0.15928   0.00000  Uiso   1.00
H552   H     0.59203   0.97477   0.13032   0.00000  Uiso   1.00
O553   O     0.79512   0.89442   0.25001   0.00000  Uiso   1.00
O554   O     0.87157   0.89441   0.25001   0.00000  Uiso   1.00
C555   C     0.83395   0.91321   0.24826   0.00000  Uiso   1.00
O556   O     0.77613   0.83333   0.32681   0.00000  Uiso   1.00
O557   O     0.85258   0.83332   0.32681   0.00000  Uiso   1.00
C558   C     0.80680   0.83341   0.35174   0.00000  Uiso   1.00
Zn559  Zn    0.78229   0.83334   0.25000   0.00000  Uiso   1.00
Zn560  Zn    0.88438   0.83333   0.25000   0.00000  Uiso   1.00
O561   O     0.79510   0.77226   0.24999   0.00000  Uiso   1.00
O562   O     0.87154   0.77225   0.24999   0.00000  Uiso   1.00
O563   O     0.81409   0.83335   0.17319   0.00000  Uiso   1.00
O564   O     0.89053   0.83334   0.17319   0.00000  Uiso   1.00
C565   C     0.83336   0.75343   0.24971   0.00000  Uiso   1.00
C566   C     0.85981   0.83468   0.14828   0.00000  Uiso   1.00
C567   C     0.91920   0.79405   0.01147   0.00000  Uiso   1.00
H568   H     0.93806   0.79581   0.08236   0.00000  Uiso   1.00
H569   H     0.90793   0.75758   0.42663   0.00000  Uiso   1.00
H570   H     0.94647   0.77087   0.49247   0.00000  Uiso   1.00
C571   C     0.87621   0.83432   0.09006   0.00000  Uiso   1.00
C572   C     0.75912   0.87573   0.42779   0.00000  Uiso   1.00
C573   C     0.76165   0.89996   0.47056   0.00000  Uiso   1.00
C574   C     0.79464   0.88998   0.49546   0.00000  Uiso   1.00
C575   C     0.82108   0.85202   0.48321   0.00000  Uiso   1.00
C576   C     0.81934   0.82823   0.43851   0.00000  Uiso   1.00
C577   C     0.85138   0.83801   0.01146   0.00000  Uiso   1.00
C578   C     0.88555   0.80583   0.48791   0.00000  Uiso   1.00
C579   C     0.88373   0.78352   0.44316   0.00000  Uiso   1.00
C580   C     0.84896   0.79278   0.42104   0.00000  Uiso   1.00
C581   C     0.84657   0.85187   0.06401   0.00000  Uiso   1.00
C582   C     0.91483   0.80864   0.06236   0.00000  Uiso   1.00
C583   C     0.79091   0.84222   0.40894   0.00000  Uiso   1.00
H584   H     0.73721   0.88668   0.40508   0.00000  Uiso   1.00
H585   H     0.80026   0.91353   0.02220   0.00000  Uiso   1.00
H586   H     0.74070   0.92843   0.48170   0.00000  Uiso   1.00
H587   H     0.84684   0.77303   0.38831   0.00000  Uiso   1.00
C588   C     0.87448   0.97889   0.21072   0.00000  Uiso   1.00
C589   C     0.87382   0.68883   0.21334   0.00000  Uiso   1.00
H590   H     0.90375   0.70657   0.18725   0.00000  Uiso   1.00
C591   C     0.83377   0.70935   0.24815   0.00000  Uiso   1.00
C592   C     0.79393   0.68794   0.28080   0.00000  Uiso   1.00
H593   H     0.76304   0.70440   0.30763   0.00000  Uiso   1.00
C594   C     0.79457   0.97839   0.27993   0.00000  Uiso   1.00
H595   H     0.76415   0.96155   0.30654   0.00000  Uiso   1.00
C596   C     0.83469   0.95739   0.24572   0.00000  Uiso   1.00
C597   C     0.98772   0.81278   0.21064   0.00000  Uiso   1.00
H598   H     0.97907   0.79633   0.17909   0.00000  Uiso   1.00
C599   C     0.70219   0.81267   0.21076   0.00000  Uiso   1.00
H600   H     0.72949   0.79599   0.17933   0.00000  Uiso   1.00
N601   N     0.71426   0.83334   0.25002   0.00000  Uiso   1.00
C602   C     0.67930   0.85355   0.28948   0.00000  Uiso   1.00
H603   H     0.68853   0.86984   0.32077   0.00000  Uiso   1.00
C604   C     0.96477   0.85383   0.28983   0.00000  Uiso   1.00
N605   N     0.95239   0.83331   0.25000   0.00000  Uiso   1.00
N606   N     0.92984   0.87550   0.33303   0.00000  Uiso   1.00
O607   O     0.90991   0.90922   0.32335   0.00000  Uiso   1.00
O608   O     0.92835   0.86891   0.38200   0.00000  Uiso   1.00
N609   N     0.80720   0.87791   0.09481   0.00000  Uiso   1.00
O610   O     0.76342   0.86456   0.10598   0.00000  Uiso   1.00
O611   O     0.81528   0.91184   0.11821   0.00000  Uiso   1.00
C612   C     0.91618   0.95732   0.16863   0.00000  Uiso   1.00
C613   C     0.96024   0.95562   0.18655   0.00000  Uiso   1.00
C614   C     0.66723   0.93011   0.14709   0.00000  Uiso   1.00
H615   H     0.98879   0.89727   0.14471   0.00000  Uiso   1.00
H616   H     0.67819   0.94418   0.10652   0.00000  Uiso   1.00
H617   H     0.69863   0.92980   0.16099   0.00000  Uiso   1.00
H618   H     0.97330   0.98795   0.18953   0.00000  Uiso   1.00
H619   H     0.95063   0.94110   0.22670   0.00000  Uiso   1.00
H620   H     0.90631   0.92528   0.15928   0.00000  Uiso   1.00
H621   H     0.92537   0.97477   0.13032   0.00000  Uiso   1.00
O622   O     0.12846   0.22775   0.75001   0.00000  Uiso   1.00
O623   O     0.20490   0.22774   0.75001   0.00000  Uiso   1.00
C624   C     0.16728   0.24655   0.74826   0.00000  Uiso   1.00
O625   O     0.10947   0.16666   0.82681   0.00000  Uiso   1.00
O626   O     0.18591   0.16665   0.82681   0.00000  Uiso   1.00
C627   C     0.14013   0.16675   0.85174   0.00000  Uiso   1.00
Zn628  Zn    0.11562   0.16667   0.75000   0.00000  Uiso   1.00
Zn629  Zn    0.21771   0.16666   0.75000   0.00000  Uiso   1.00
O630   O     0.12843   0.10559   0.74999   0.00000  Uiso   1.00
O631   O     0.20488   0.10558   0.74999   0.00000  Uiso   1.00
O632   O     0.14742   0.16668   0.67319   0.00000  Uiso   1.00
O633   O     0.22387   0.16667   0.67319   0.00000  Uiso   1.00
C634   C     0.16669   0.08676   0.74971   0.00000  Uiso   1.00
C635   C     0.19315   0.16801   0.64828   0.00000  Uiso   1.00
C636   C     0.25254   0.12739   0.51147   0.00000  Uiso   1.00
H637   H     0.27139   0.12914   0.58236   0.00000  Uiso   1.00
H638   H     0.24126   0.09091   0.92663   0.00000  Uiso   1.00
H639   H     0.27980   0.10421   0.99247   0.00000  Uiso   1.00
C640   C     0.20954   0.16765   0.59006   0.00000  Uiso   1.00
C641   C     0.09246   0.20906   0.92779   0.00000  Uiso   1.00
C642   C     0.09499   0.23329   0.97056   0.00000  Uiso   1.00
C643   C     0.12798   0.22331   0.99546   0.00000  Uiso   1.00
C644   C     0.15442   0.18535   0.98321   0.00000  Uiso   1.00
C645   C     0.15267   0.16156   0.93851   0.00000  Uiso   1.00
C646   C     0.18471   0.17134   0.51146   0.00000  Uiso   1.00
C647   C     0.21888   0.13916   0.98791   0.00000  Uiso   1.00
C648   C     0.21706   0.11685   0.94316   0.00000  Uiso   1.00
C649   C     0.18230   0.12611   0.92104   0.00000  Uiso   1.00
C650   C     0.17990   0.18520   0.56401   0.00000  Uiso   1.00
C651   C     0.24817   0.14198   0.56236   0.00000  Uiso   1.00
C652   C     0.12424   0.17555   0.90894   0.00000  Uiso   1.00
H653   H     0.07055   0.22002   0.90508   0.00000  Uiso   1.00
H654   H     0.13360   0.24686   0.52220   0.00000  Uiso   1.00
H655   H     0.07403   0.26176   0.98170   0.00000  Uiso   1.00
H656   H     0.18017   0.10636   0.88831   0.00000  Uiso   1.00
C657   C     0.20781   0.31222   0.71072   0.00000  Uiso   1.00
C658   C     0.20715   0.02216   0.71334   0.00000  Uiso   1.00
H659   H     0.23708   0.03990   0.68725   0.00000  Uiso   1.00
C660   C     0.16710   0.04268   0.74815   0.00000  Uiso   1.00
C661   C     0.12726   0.02128   0.78080   0.00000  Uiso   1.00
H662   H     0.09638   0.03774   0.80763   0.00000  Uiso   1.00
C663   C     0.12791   0.31173   0.77993   0.00000  Uiso   1.00
H664   H     0.09748   0.29488   0.80654   0.00000  Uiso   1.00
C665   C     0.16802   0.29073   0.74572   0.00000  Uiso   1.00
C666   C     0.32106   0.14611   0.71064   0.00000  Uiso   1.00
H667   H     0.31240   0.12967   0.67909   0.00000  Uiso   1.00
C668   C     0.03552   0.14601   0.71076   0.00000  Uiso   1.00
H669   H     0.06283   0.12932   0.67933   0.00000  Uiso   1.00
N670   N     0.04760   0.16668   0.75002   0.00000  Uiso   1.00
C671   C     0.01263   0.18688   0.78948   0.00000  Uiso   1.00
H672   H     0.02187   0.20317   0.82077   0.00000  Uiso   1.00
C673   C     0.29810   0.18716   0.78983   0.00000  Uiso   1.00
N674   N     0.28573   0.16665   0.75000   0.00000  Uiso   1.00
N675   N     0.26317   0.20883   0.83303   0.00000  Uiso   1.00
O676   O     0.24324   0.24256   0.82335   0.00000  Uiso   1.00
O677   O     0.26168   0.20224   0.88200   0.00000  Uiso   1.00
N678   N     0.14054   0.21124   0.59481   0.00000  Uiso   1.00
O679   O     0.09676   0.19790   0.60598   0.00000  Uiso   1.00
O680   O     0.14861   0.24517   0.61821   0.00000  Uiso   1.00
C681   C     0.24952   0.29065   0.66863   0.00000  Uiso   1.00
C682   C     0.29357   0.28895   0.68655   0.00000  Uiso   1.00
C683   C     0.00056   0.26345   0.64709   0.00000  Uiso   1.00
H684   H     0.32213   0.23060   0.64471   0.00000  Uiso   1.00
H685   H     0.01153   0.27752   0.60652   0.00000  Uiso   1.00
H686   H     0.03196   0.26314   0.66099   0.00000  Uiso   1.00
H687   H     0.30663   0.32128   0.68953   0.00000  Uiso   1.00
H688   H     0.28397   0.27443   0.72670   0.00000  Uiso   1.00
H689   H     0.23965   0.25862   0.65928   0.00000  Uiso   1.00
H690   H     0.25870   0.30810   0.63032   0.00000  Uiso   1.00
O691   O     0.46179   0.22775   0.75001   0.00000  Uiso   1.00
O692   O     0.53823   0.22774   0.75001   0.00000  Uiso   1.00
C693   C     0.50062   0.24655   0.74826   0.00000  Uiso   1.00
O694   O     0.44280   0.16666   0.82681   0.00000  Uiso   1.00
O695   O     0.51924   0.16665   0.82681   0.00000  Uiso   1.00
C696   C     0.47346   0.16675   0.85174   0.00000  Uiso   1.00
Zn697  Zn    0.44896   0.16667   0.75000   0.00000  Uiso   1.00
Zn698  Zn    0.55104   0.16666   0.75000   0.00000  Uiso   1.00
O699   O     0.46177   0.10559   0.74999   0.00000  Uiso   1.00
O700   O     0.53821   0.10558   0.74999   0.00000  Uiso   1.00
O701   O     0.48076   0.16668   0.67319   0.00000  Uiso   1.00
O702   O     0.55720   0.16667   0.67319   0.00000  Uiso   1.00
C703   C     0.50002   0.08676   0.74971   0.00000  Uiso   1.00
C704   C     0.52648   0.16801   0.64828   0.00000  Uiso   1.00
C705   C     0.58587   0.12739   0.51147   0.00000  Uiso   1.00
H706   H     0.60473   0.12914   0.58236   0.00000  Uiso   1.00
H707   H     0.57460   0.09091   0.92663   0.00000  Uiso   1.00
H708   H     0.61314   0.10421   0.99247   0.00000  Uiso   1.00
C709   C     0.54288   0.16765   0.59006   0.00000  Uiso   1.00
C710   C     0.42579   0.20906   0.92779   0.00000  Uiso   1.00
C711   C     0.42832   0.23329   0.97056   0.00000  Uiso   1.00
C712   C     0.46131   0.22331   0.99546   0.00000  Uiso   1.00
C713   C     0.48775   0.18535   0.98321   0.00000  Uiso   1.00
C714   C     0.48600   0.16156   0.93851   0.00000  Uiso   1.00
C715   C     0.51805   0.17134   0.51146   0.00000  Uiso   1.00
C716   C     0.55221   0.13916   0.98791   0.00000  Uiso   1.00
C717   C     0.55040   0.11685   0.94316   0.00000  Uiso   1.00
C718   C     0.51563   0.12611   0.92104   0.00000  Uiso   1.00
C719   C     0.51323   0.18520   0.56401   0.00000  Uiso   1.00
C720   C     0.58150   0.14198   0.56236   0.00000  Uiso   1.00
C721   C     0.45757   0.17555   0.90894   0.00000  Uiso   1.00
H722   H     0.40388   0.22002   0.90508   0.00000  Uiso   1.00
H723   H     0.46693   0.24686   0.52220   0.00000  Uiso   1.00
H724   H     0.40736   0.26176   0.98170   0.00000  Uiso   1.00
H725   H     0.51350   0.10636   0.88831   0.00000  Uiso   1.00
C726   C     0.54114   0.31222   0.71072   0.00000  Uiso   1.00
C727   C     0.54048   0.02216   0.71334   0.00000  Uiso   1.00
H728   H     0.57041   0.03990   0.68725   0.00000  Uiso   1.00
C729   C     0.50044   0.04268   0.74815   0.00000  Uiso   1.00
C730   C     0.46059   0.02128   0.78080   0.00000  Uiso   1.00
H731   H     0.42971   0.03774   0.80763   0.00000  Uiso   1.00
C732   C     0.46124   0.31173   0.77993   0.00000  Uiso   1.00
H733   H     0.43081   0.29488   0.80654   0.00000  Uiso   1.00
C734   C     0.50136   0.29073   0.74572   0.00000  Uiso   1.00
C735   C     0.65439   0.14611   0.71064   0.00000  Uiso   1.00
H736   H     0.64574   0.12967   0.67909   0.00000  Uiso   1.00
C737   C     0.36886   0.14601   0.71076   0.00000  Uiso   1.00
H738   H     0.39616   0.12932   0.67933   0.00000  Uiso   1.00
N739   N     0.38093   0.16668   0.75002   0.00000  Uiso   1.00
C740   C     0.34597   0.18688   0.78948   0.00000  Uiso   1.00
H741   H     0.35520   0.20317   0.82077   0.00000  Uiso   1.00
C742   C     0.63143   0.18716   0.78983   0.00000  Uiso   1.00
N743   N     0.61906   0.16665   0.75000   0.00000  Uiso   1.00
N744   N     0.59650   0.20883   0.83303   0.00000  Uiso   1.00
O745   O     0.57658   0.24256   0.82335   0.00000  Uiso   1.00
O746   O     0.59501   0.20224   0.88200   0.00000  Uiso   1.00
N747   N     0.47387   0.21124   0.59481   0.00000  Uiso   1.00
O748   O     0.43009   0.19790   0.60598   0.00000  Uiso   1.00
O749   O     0.48194   0.24517   0.61821   0.00000  Uiso   1.00
C750   C     0.58285   0.29065   0.66863   0.00000  Uiso   1.00
C751   C     0.62691   0.28895   0.68655   0.00000  Uiso   1.00
C752   C     0.33390   0.26345   0.64709   0.00000  Uiso   1.00
H753   H     0.65546   0.23060   0.64471   0.00000  Uiso   1.00
H754   H     0.34486   0.27752   0.60652   0.00000  Uiso   1.00
H755   H     0.36529   0.26314   0.66099   0.00000  Uiso   1.00
H756   H     0.63997   0.32128   0.68953   0.00000  Uiso   1.00
H757   H     0.61730   0.27443   0.72670   0.00000  Uiso   1.00
H758   H     0.57298   0.25862   0.65928   0.00000  Uiso   1.00
H759   H     0.59203   0.30810   0.63032   0.00000  Uiso   1.00
O760   O     0.79512   0.22775   0.75001   0.00000  Uiso   1.00
O761   O     0.87157   0.22774   0.75001   0.00000  Uiso   1.00
C762   C     0.83395   0.24655   0.74826   0.00000  Uiso   1.00
O763   O     0.77613   0.16666   0.82681   0.00000  Uiso   1.00
O764   O     0.85258   0.16665   0.82681   0.00000  Uiso   1.00
C765   C     0.80680   0.16675   0.85174   0.00000  Uiso   1.00
Zn766  Zn    0.78229   0.16667   0.75000   0.00000  Uiso   1.00
Zn767  Zn    0.88438   0.16666   0.75000   0.00000  Uiso   1.00
O768   O     0.79510   0.10559   0.74999   0.00000  Uiso   1.00
O769   O     0.87154   0.10558   0.74999   0.00000  Uiso   1.00
O770   O     0.81409   0.16668   0.67319   0.00000  Uiso   1.00
O771   O     0.89053   0.16667   0.67319   0.00000  Uiso   1.00
C772   C     0.83336   0.08676   0.74971   0.00000  Uiso   1.00
C773   C     0.85981   0.16801   0.64828   0.00000  Uiso   1.00
C774   C     0.91920   0.12739   0.51147   0.00000  Uiso   1.00
H775   H     0.93806   0.12914   0.58236   0.00000  Uiso   1.00
H776   H     0.90793   0.09091   0.92663   0.00000  Uiso   1.00
H777   H     0.94647   0.10421   0.99247   0.00000  Uiso   1.00
C778   C     0.87621   0.16765   0.59006   0.00000  Uiso   1.00
C779   C     0.75912   0.20906   0.92779   0.00000  Uiso   1.00
C780   C     0.76165   0.23329   0.97056   0.00000  Uiso   1.00
C781   C     0.79464   0.22331   0.99546   0.00000  Uiso   1.00
C782   C     0.82108   0.18535   0.98321   0.00000  Uiso   1.00
C783   C     0.81934   0.16156   0.93851   0.00000  Uiso   1.00
C784   C     0.85138   0.17134   0.51146   0.00000  Uiso   1.00
C785   C     0.88555   0.13916   0.98791   0.00000  Uiso   1.00
C786   C     0.88373   0.11685   0.94316   0.00000  Uiso   1.00
C787   C     0.84896   0.12611   0.92104   0.00000  Uiso   1.00
C788   C     0.84657   0.18520   0.56401   0.00000  Uiso   1.00
C789   C     0.91483   0.14198   0.56236   0.00000  Uiso   1.00
C790   C     0.79091   0.17555   0.90894   0.00000  Uiso   1.00
H791   H     0.73721   0.22002   0.90508   0.00000  Uiso   1.00
H792   H     0.80026   0.24686   0.52220   0.00000  Uiso   1.00
H793   H     0.74070   0.26176   0.98170   0.00000  Uiso   1.00
H794   H     0.84684   0.10636   0.88831   0.00000  Uiso   1.00
C795   C     0.87448   0.31222   0.71072   0.00000  Uiso   1.00
C796   C     0.87382   0.02216   0.71334   0.00000  Uiso   1.00
H797   H     0.90375   0.03990   0.68725   0.00000  Uiso   1.00
C798   C     0.83377   0.04268   0.74815   0.00000  Uiso   1.00
C799   C     0.79393   0.02128   0.78080   0.00000  Uiso   1.00
H800   H     0.76304   0.03774   0.80763   0.00000  Uiso   1.00
C801   C     0.79457   0.31173   0.77993   0.00000  Uiso   1.00
H802   H     0.76415   0.29488   0.80654   0.00000  Uiso   1.00
C803   C     0.83469   0.29073   0.74572   0.00000  Uiso   1.00
C804   C     0.98772   0.14611   0.71064   0.00000  Uiso   1.00
H805   H     0.97907   0.12967   0.67909   0.00000  Uiso   1.00
C806   C     0.70219   0.14601   0.71076   0.00000  Uiso   1.00
H807   H     0.72949   0.12932   0.67933   0.00000  Uiso   1.00
N808   N     0.71426   0.16668   0.75002   0.00000  Uiso   1.00
C809   C     0.67930   0.18688   0.78948   0.00000  Uiso   1.00
H810   H     0.68853   0.20317   0.82077   0.00000  Uiso   1.00
C811   C     0.96477   0.18716   0.78983   0.00000  Uiso   1.00
N812   N     0.95239   0.16665   0.75000   0.00000  Uiso   1.00
N813   N     0.92984   0.20883   0.83303   0.00000  Uiso   1.00
O814   O     0.90991   0.24256   0.82335   0.00000  Uiso   1.00
O815   O     0.92835   0.20224   0.88200   0.00000  Uiso   1.00
N816   N     0.80720   0.21124   0.59481   0.00000  Uiso   1.00
O817   O     0.76342   0.19790   0.60598   0.00000  Uiso   1.00
O818   O     0.81528   0.24517   0.61821   0.00000  Uiso   1.00
C819   C     0.91618   0.29065   0.66863   0.00000  Uiso   1.00
C820   C     0.96024   0.28895   0.68655   0.00000  Uiso   1.00
C821   C     0.66723   0.26345   0.64709   0.00000  Uiso   1.00
H822   H     0.98879   0.23060   0.64471   0.00000  Uiso   1.00
H823   H     0.67819   0.27752   0.60652   0.00000  Uiso   1.00
H824   H     0.69863   0.26314   0.66099   0.00000  Uiso   1.00
H825   H     0.97330   0.32128   0.68953   0.00000  Uiso   1.00
H826   H     0.95063   0.27443   0.72670   0.00000  Uiso   1.00
H827   H     0.90631   0.25862   0.65928   0.00000  Uiso   1.00
H828   H     0.92537   0.30810   0.63032   0.00000  Uiso   1.00
O829   O     0.12846   0.56108   0.75001   0.00000  Uiso   1.00
O830   O     0.20490   0.56107   0.75001   0.00000  Uiso   1.00
C831   C     0.16728   0.57988   0.74826   0.00000  Uiso   1.00
O832   O     0.10947   0.50000   0.82681   0.00000  Uiso   1.00
O833   O     0.18591   0.49999   0.82681   0.00000  Uiso   1.00
C834   C     0.14013   0.50008   0.85174   0.00000  Uiso   1.00
Zn835  Zn    0.11562   0.50001   0.75000   0.00000  Uiso   1.00
Zn836  Zn    0.21771   0.49999   0.75000   0.00000  Uiso   1.00
O837   O     0.12843   0.43893   0.74999   0.00000  Uiso   1.00
O838   O     0.20488   0.43892   0.74999   0.00000  Uiso   1.00
O839   O     0.14742   0.50001   0.67319   0.00000  Uiso   1.00
O840   O     0.22387   0.50000   0.67319   0.00000  Uiso   1.00
C841   C     0.16669   0.42009   0.74971   0.00000  Uiso   1.00
C842   C     0.19315   0.50135   0.64828   0.00000  Uiso   1.00
C843   C     0.25254   0.46072   0.51147   0.00000  Uiso   1.00
H844   H     0.27139   0.46247   0.58236   0.00000  Uiso   1.00
H845   H     0.24126   0.42425   0.92663   0.00000  Uiso   1.00
H846   H     0.27980   0.43754   0.99247   0.00000  Uiso   1.00
C847   C     0.20954   0.50098   0.59006   0.00000  Uiso   1.00
C848   C     0.09246   0.54239   0.92779   0.00000  Uiso   1.00
C849   C     0.09499   0.56663   0.97056   0.00000  Uiso   1.00
C850   C     0.12798   0.55664   0.99546   0.00000  Uiso   1.00
C851   C     0.15442   0.51869   0.98321   0.00000  Uiso   1.00
C852   C     0.15267   0.49490   0.93851   0.00000  Uiso   1.00
C853   C     0.18471   0.50468   0.51146   0.00000  Uiso   1.00
C854   C     0.21888   0.47250   0.98791   0.00000  Uiso   1.00
C855   C     0.21706   0.45019   0.94316   0.00000  Uiso   1.00
C856   C     0.18230   0.45944   0.92104   0.00000  Uiso   1.00
C857   C     0.17990   0.51854   0.56401   0.00000  Uiso   1.00
C858   C     0.24817   0.47531   0.56236   0.00000  Uiso   1.00
C859   C     0.12424   0.50888   0.90894   0.00000  Uiso   1.00
H860   H     0.07055   0.55335   0.90508   0.00000  Uiso   1.00
H861   H     0.13360   0.58020   0.52220   0.00000  Uiso   1.00
H862   H     0.07403   0.59509   0.98170   0.00000  Uiso   1.00
H863   H     0.18017   0.43970   0.88831   0.00000  Uiso   1.00
C864   C     0.20781   0.64555   0.71072   0.00000  Uiso   1.00
C865   C     0.20715   0.35549   0.71334   0.00000  Uiso   1.00
H866   H     0.23708   0.37323   0.68725   0.00000  Uiso   1.00
C867   C     0.16710   0.37602   0.74815   0.00000  Uiso   1.00
C868   C     0.12726   0.35461   0.78080   0.00000  Uiso   1.00
H869   H     0.09638   0.37107   0.80763   0.00000  Uiso   1.00
C870   C     0.12791   0.64506   0.77993   0.00000  Uiso   1.00
H871   H     0.09748   0.62821   0.80654   0.00000  Uiso   1.00
C872   C     0.16802   0.62406   0.74572   0.00000  Uiso   1.00
C873   C     0.32106   0.47945   0.71064   0.00000  Uiso   1.00
H874   H     0.31240   0.46300   0.67909   0.00000  Uiso   1.00
C875   C     0.03552   0.47934   0.71076   0.00000  Uiso   1.00
H876   H     0.06283   0.46265   0.67933   0.00000  Uiso   1.00
N877   N     0.04760   0.50001   0.75002   0.00000  Uiso   1.00
C878   C     0.01263   0.52021   0.78948   0.00000  Uiso   1.00
H879   H     0.02187   0.53651   0.82077   0.00000  Uiso   1.00
C880   C     0.29810   0.52049   0.78983   0.00000  Uiso   1.00
N881   N     0.28573   0.49998   0.75000   0.00000  Uiso   1.00
N882   N     0.26317   0.54216   0.83303   0.00000  Uiso   1.00
O883   O     0.24324   0.57589   0.82335   0.00000  Uiso   1.00
O884   O     0.26168   0.53558   0.88200   0.00000  Uiso   1.00
N885   N     0.14054   0.54457   0.59481   0.00000  Uiso   1.00
O886   O     0.09676   0.53123   0.60598   0.00000  Uiso   1.00
O887   O     0.14861   0.57851   0.61821   0.00000  Uiso   1.00
C888   C     0.24952   0.62399   0.66863   0.00000  Uiso   1.00
C889   C     0.29357   0.62229   0.68655   0.00000  Uiso   1.00
C890   C     0.00056   0.59678   0.64709   0.00000  Uiso   1.00
H891   H     0.32213   0.56393   0.64471   0.00000  Uiso   1.00
H892   H     0.01153   0.61085   0.60652   0.00000  Uiso   1.00
H893   H     0.03196   0.59647   0.66099   0.00000  Uiso   1.00
H894   H     0.30663   0.65461   0.68953   0.00000  Uiso   1.00
H895   H     0.28397   0.60777   0.72670   0.00000  Uiso   1.00
H896   H     0.23965   0.59195   0.65928   0.00000  Uiso   1.00
H897   H     0.25870   0.64143   0.63032   0.00000  Uiso   1.00
O898   O     0.46179   0.56108   0.75001   0.00000  Uiso   1.00
O899   O     0.53823   0.56107   0.75001   0.00000  Uiso   1.00
C900   C     0.50062   0.57988   0.74826   0.00000  Uiso   1.00
O901   O     0.44280   0.50000   0.82681   0.00000  Uiso   1.00
O902   O     0.51924   0.49999   0.82681   0.00000  Uiso   1.00
C903   C     0.47346   0.50008   0.85174   0.00000  Uiso   1.00
Zn904  Zn    0.44896   0.50001   0.75000   0.00000  Uiso   1.00
Zn905  Zn    0.55104   0.49999   0.75000   0.00000  Uiso   1.00
O906   O     0.46177   0.43893   0.74999   0.00000  Uiso   1.00
O907   O     0.53821   0.43892   0.74999   0.00000  Uiso   1.00
O908   O     0.48076   0.50001   0.67319   0.00000  Uiso   1.00
O909   O     0.55720   0.50000   0.67319   0.00000  Uiso   1.00
C910   C     0.50002   0.42009   0.74971   0.00000  Uiso   1.00
C911   C     0.52648   0.50135   0.64828   0.00000  Uiso   1.00
C912   C     0.58587   0.46072   0.51147   0.00000  Uiso   1.00
H913   H     0.60473   0.46247   0.58236   0.00000  Uiso   1.00
H914   H     0.57460   0.42425   0.92663   0.00000  Uiso   1.00
H915   H     0.61314   0.43754   0.99247   0.00000  Uiso   1.00
C916   C     0.54288   0.50098   0.59006   0.00000  Uiso   1.00
C917   C     0.42579   0.54239   0.92779   0.00000  Uiso   1.00
C918   C     0.42832   0.56663   0.97056   0.00000  Uiso   1.00
C919   C     0.46131   0.55664   0.99546   0.00000  Uiso   1.00
C920   C     0.48775   0.51869   0.98321   0.00000  Uiso   1.00
C921   C     0.48600   0.49490   0.93851   0.00000  Uiso   1.00
C922   C     0.51805   0.50468   0.51146   0.00000  Uiso   1.00
C923   C     0.55221   0.47250   0.98791   0.00000  Uiso   1.00
C924   C     0.55040   0.45019   0.94316   0.00000  Uiso   1.00
C925   C     0.51563   0.45944   0.92104   0.00000  Uiso   1.00
C926   C     0.51323   0.51854   0.56401   0.00000  Uiso   1.00
C927   C     0.58150   0.47531   0.56236   0.00000  Uiso   1.00
C928   C     0.45757   0.50888   0.90894   0.00000  Uiso   1.00
H929   H     0.40388   0.55335   0.90508   0.00000  Uiso   1.00
H930   H     0.46693   0.58020   0.52220   0.00000  Uiso   1.00
H931   H     0.40736   0.59509   0.98170   0.00000  Uiso   1.00
H932   H     0.51350   0.43970   0.88831   0.00000  Uiso   1.00
C933   C     0.54114   0.64555   0.71072   0.00000  Uiso   1.00
C934   C     0.54048   0.35549   0.71334   0.00000  Uiso   1.00
H935   H     0.57041   0.37323   0.68725   0.00000  Uiso   1.00
C936   C     0.50044   0.37602   0.74815   0.00000  Uiso   1.00
C937   C     0.46059   0.35461   0.78080   0.00000  Uiso   1.00
H938   H     0.42971   0.37107   0.80763   0.00000  Uiso   1.00
C939   C     0.46124   0.64506   0.77993   0.00000  Uiso   1.00
H940   H     0.43081   0.62821   0.80654   0.00000  Uiso   1.00
C941   C     0.50136   0.62406   0.74572   0.00000  Uiso   1.00
C942   C     0.65439   0.47945   0.71064   0.00000  Uiso   1.00
H943   H     0.64574   0.46300   0.67909   0.00000  Uiso   1.00
C944   C     0.36886   0.47934   0.71076   0.00000  Uiso   1.00
H945   H     0.39616   0.46265   0.67933   0.00000  Uiso   1.00
N946   N     0.38093   0.50001   0.75002   0.00000  Uiso   1.00
C947   C     0.34597   0.52021   0.78948   0.00000  Uiso   1.00
H948   H     0.35520   0.53651   0.82077   0.00000  Uiso   1.00
C949   C     0.63143   0.52049   0.78983   0.00000  Uiso   1.00
N950   N     0.61906   0.49998   0.75000   0.00000  Uiso   1.00
N951   N     0.59650   0.54216   0.83303   0.00000  Uiso   1.00
O952   O     0.57658   0.57589   0.82335   0.00000  Uiso   1.00
O953   O     0.59501   0.53558   0.88200   0.00000  Uiso   1.00
N954   N     0.47387   0.54457   0.59481   0.00000  Uiso   1.00
O955   O     0.43009   0.53123   0.60598   0.00000  Uiso   1.00
O956   O     0.48194   0.57851   0.61821   0.00000  Uiso   1.00
C957   C     0.58285   0.62399   0.66863   0.00000  Uiso   1.00
C958   C     0.62691   0.62229   0.68655   0.00000  Uiso   1.00
C959   C     0.33390   0.59678   0.64709   0.00000  Uiso   1.00
H960   H     0.65546   0.56393   0.64471   0.00000  Uiso   1.00
H961   H     0.34486   0.61085   0.60652   0.00000  Uiso   1.00
H962   H     0.36529   0.59647   0.66099   0.00000  Uiso   1.00
H963   H     0.63997   0.65461   0.68953   0.00000  Uiso   1.00
H964   H     0.61730   0.60777   0.72670   0.00000  Uiso   1.00
H965   H     0.57298   0.59195   0.65928   0.00000  Uiso   1.00
H966   H     0.59203   0.64143   0.63032   0.00000  Uiso   1.00
O967   O     0.79512   0.56108   0.75001   0.00000  Uiso   1.00
O968   O     0.87157   0.56107   0.75001   0.00000  Uiso   1.00
C969   C     0.83395   0.57988   0.74826   0.00000  Uiso   1.00
O970   O     0.77613   0.50000   0.82681   0.00000  Uiso   1.00
O971   O     0.85258   0.49999   0.82681   0.00000  Uiso   1.00
C972   C     0.80680   0.50008   0.85174   0.00000  Uiso   1.00
Zn973  Zn    0.78229   0.50001   0.75000   0.00000  Uiso   1.00
Zn974  Zn    0.88438   0.49999   0.75000   0.00000  Uiso   1.00
O975   O     0.79510   0.43893   0.74999   0.00000  Uiso   1.00
O976   O     0.87154   0.43892   0.74999   0.00000  Uiso   1.00
O977   O     0.81409   0.50001   0.67319   0.00000  Uiso   1.00
O978   O     0.89053   0.50000   0.67319   0.00000  Uiso   1.00
C979   C     0.83336   0.42009   0.74971   0.00000  Uiso   1.00
C980   C     0.85981   0.50135   0.64828   0.00000  Uiso   1.00
C981   C     0.91920   0.46072   0.51147   0.00000  Uiso   1.00
H982   H     0.93806   0.46247   0.58236   0.00000  Uiso   1.00
H983   H     0.90793   0.42425   0.92663   0.00000  Uiso   1.00
H984   H     0.94647   0.43754   0.99247   0.00000  Uiso   1.00
C985   C     0.87621   0.50098   0.59006   0.00000  Uiso   1.00
C986   C     0.75912   0.54239   0.92779   0.00000  Uiso   1.00
C987   C     0.76165   0.56663   0.97056   0.00000  Uiso   1.00
C988   C     0.79464   0.55664   0.99546   0.00000  Uiso   1.00
C989   C     0.82108   0.51869   0.98321   0.00000  Uiso   1.00
C990   C     0.81934   0.49490   0.93851   0.00000  Uiso   1.00
C991   C     0.85138   0.50468   0.51146   0.00000  Uiso   1.00
C992   C     0.88555   0.47250   0.98791   0.00000  Uiso   1.00
C993   C     0.88373   0.45019   0.94316   0.00000  Uiso   1.00
C994   C     0.84896   0.45944   0.92104   0.00000  Uiso   1.00
C995   C     0.84657   0.51854   0.56401   0.00000  Uiso   1.00
C996   C     0.91483   0.47531   0.56236   0.00000  Uiso   1.00
C997   C     0.79091   0.50888   0.90894   0.00000  Uiso   1.00
H998   H     0.73721   0.55335   0.90508   0.00000  Uiso   1.00
H999   H     0.80026   0.58020   0.52220   0.00000  Uiso   1.00
H1000  H     0.74070   0.59509   0.98170   0.00000  Uiso   1.00
H1001  H     0.84684   0.43970   0.88831   0.00000  Uiso   1.00
C1002  C     0.87448   0.64555   0.71072   0.00000  Uiso   1.00
C1003  C     0.87382   0.35549   0.71334   0.00000  Uiso   1.00
H1004  H     0.90375   0.37323   0.68725   0.00000  Uiso   1.00
C1005  C     0.83377   0.37602   0.74815   0.00000  Uiso   1.00
C1006  C     0.79393   0.35461   0.78080   0.00000  Uiso   1.00
H1007  H     0.76304   0.37107   0.80763   0.00000  Uiso   1.00
C1008  C     0.79457   0.64506   0.77993   0.00000  Uiso   1.00
H1009  H     0.76415   0.62821   0.80654   0.00000  Uiso   1.00
C1010  C     0.83469   0.62406   0.74572   0.00000  Uiso   1.00
C1011  C     0.98772   0.47945   0.71064   0.00000  Uiso   1.00
H1012  H     0.97907   0.46300   0.67909   0.00000  Uiso   1.00
C1013  C     0.70219   0.47934   0.71076   0.00000  Uiso   1.00
H1014  H     0.72949   0.46265   0.67933   0.00000  Uiso   1.00
N1015  N     0.71426   0.50001   0.75002   0.00000  Uiso   1.00
C1016  C     0.67930   0.52021   0.78948   0.00000  Uiso   1.00
H1017  H     0.68853   0.53651   0.82077   0.00000  Uiso   1.00
C1018  C     0.96477   0.52049   0.78983   0.00000  Uiso   1.00
N1019  N     0.95239   0.49998   0.75000   0.00000  Uiso   1.00
N1020  N     0.92984   0.54216   0.83303   0.00000  Uiso   1.00
O1021  O     0.90991   0.57589   0.82335   0.00000  Uiso   1.00
O1022  O     0.92835   0.53558   0.88200   0.00000  Uiso   1.00
N1023  N     0.80720   0.54457   0.59481   0.00000  Uiso   1.00
O1024  O     0.76342   0.53123   0.60598   0.00000  Uiso   1.00
O1025  O     0.81528   0.57851   0.61821   0.00000  Uiso   1.00
C1026  C     0.91618   0.62399   0.66863   0.00000  Uiso   1.00
C1027  C     0.96024   0.62229   0.68655   0.00000  Uiso   1.00
C1028  C     0.66723   0.59678   0.64709   0.00000  Uiso   1.00
H1029  H     0.98879   0.56393   0.64471   0.00000  Uiso   1.00
H1030  H     0.67819   0.61085   0.60652   0.00000  Uiso   1.00
H1031  H     0.69863   0.59647   0.66099   0.00000  Uiso   1.00
H1032  H     0.97330   0.65461   0.68953   0.00000  Uiso   1.00
H1033  H     0.95063   0.60777   0.72670   0.00000  Uiso   1.00
H1034  H     0.90631   0.59195   0.65928   0.00000  Uiso   1.00
H1035  H     0.92537   0.64143   0.63032   0.00000  Uiso   1.00
O1036  O     0.12846   0.89442   0.75001   0.00000  Uiso   1.00
O1037  O     0.20490   0.89441   0.75001   0.00000  Uiso   1.00
C1038  C     0.16728   0.91321   0.74826   0.00000  Uiso   1.00
O1039  O     0.10947   0.83333   0.82681   0.00000  Uiso   1.00
O1040  O     0.18591   0.83332   0.82681   0.00000  Uiso   1.00
C1041  C     0.14013   0.83341   0.85174   0.00000  Uiso   1.00
Zn1042 Zn    0.11562   0.83334   0.75000   0.00000  Uiso   1.00
Zn1043 Zn    0.21771   0.83333   0.75000   0.00000  Uiso   1.00
O1044  O     0.12843   0.77226   0.74999   0.00000  Uiso   1.00
O1045  O     0.20488   0.77225   0.74999   0.00000  Uiso   1.00
O1046  O     0.14742   0.83335   0.67319   0.00000  Uiso   1.00
O1047  O     0.22387   0.83334   0.67319   0.00000  Uiso   1.00
C1048  C     0.16669   0.75343   0.74971   0.00000  Uiso   1.00
C1049  C     0.19315   0.83468   0.64828   0.00000  Uiso   1.00
C1050  C     0.25254   0.79405   0.51147   0.00000  Uiso   1.00
H1051  H     0.27139   0.79581   0.58236   0.00000  Uiso   1.00
H1052  H     0.24126   0.75758   0.92663   0.00000  Uiso   1.00
H1053  H     0.27980   0.77087   0.99247   0.00000  Uiso   1.00
C1054  C     0.20954   0.83432   0.59006   0.00000  Uiso   1.00
C1055  C     0.09246   0.87573   0.92779   0.00000  Uiso   1.00
C1056  C     0.09499   0.89996   0.97056   0.00000  Uiso   1.00
C1057  C     0.12798   0.88998   0.99546   0.00000  Uiso   1.00
C1058  C     0.15442   0.85202   0.98321   0.00000  Uiso   1.00
C1059  C     0.15267   0.82823   0.93851   0.00000  Uiso   1.00
C1060  C     0.18471   0.83801   0.51146   0.00000  Uiso   1.00
C1061  C     0.21888   0.80583   0.98791   0.00000  Uiso   1.00
C1062  C     0.21706   0.78352   0.94316   0.00000  Uiso   1.00
C1063  C     0.18230   0.79278   0.92104   0.00000  Uiso   1.00
C1064  C     0.17990   0.85187   0.56401   0.00000  Uiso   1.00
C1065  C     0.24817   0.80864   0.56236   0.00000  Uiso   1.00
C1066  C     0.12424   0.84222   0.90894   0.00000  Uiso   1.00
H1067  H     0.07055   0.88668   0.90508   0.00000  Uiso   1.00
H1068  H     0.13360   0.91353   0.52220   0.00000  Uiso   1.00
H1069  H     0.07403   0.92843   0.98170   0.00000  Uiso   1.00
H1070  H     0.18017   0.77303   0.88831   0.00000  Uiso   1.00
C1071  C     0.20781   0.97889   0.71072   0.00000  Uiso   1.00
C1072  C     0.20715   0.68883   0.71334   0.00000  Uiso   1.00
H1073  H     0.23708   0.70657   0.68725   0.00000  Uiso   1.00
C1074  C     0.16710   0.70935   0.74815   0.00000  Uiso   1.00
C1075  C     0.12726   0.68794   0.78080   0.00000  Uiso   1.00
H1076  H     0.09638   0.70440   0.80763   0.00000  Uiso   1.00
C1077  C     0.12791   0.97839   0.77993   0.00000  Uiso   1.00
H1078  H     0.09748   0.96155   0.80654   0.00000  Uiso   1.00
C1079  C     0.16802   0.95739   0.74572   0.00000  Uiso   1.00
C1080  C     0.32106   0.81278   0.71064   0.00000  Uiso   1.00
H1081  H     0.31240   0.79633   0.67909   0.00000  Uiso   1.00
C1082  C     0.03552   0.81267   0.71076   0.00000  Uiso   1.00
H1083  H     0.06283   0.79599   0.67933   0.00000  Uiso   1.00
N1084  N     0.04760   0.83334   0.75002   0.00000  Uiso   1.00
C1085  C     0.01263   0.85355   0.78948   0.00000  Uiso   1.00
H1086  H     0.02187   0.86984   0.82077   0.00000  Uiso   1.00
C1087  C     0.29810   0.85383   0.78983   0.00000  Uiso   1.00
N1088  N     0.28573   0.83331   0.75000   0.00000  Uiso   1.00
N1089  N     0.26317   0.87550   0.83303   0.00000  Uiso   1.00
O1090  O     0.24324   0.90922   0.82335   0.00000  Uiso   1.00
O1091  O     0.26168   0.86891   0.88200   0.00000  Uiso   1.00
N1092  N     0.14054   0.87791   0.59481   0.00000  Uiso   1.00
O1093  O     0.09676   0.86456   0.60598   0.00000  Uiso   1.00
O1094  O     0.14861   0.91184   0.61821   0.00000  Uiso   1.00
C1095  C     0.24952   0.95732   0.66863   0.00000  Uiso   1.00
C1096  C     0.29357   0.95562   0.68655   0.00000  Uiso   1.00
C1097  C     0.00056   0.93011   0.64709   0.00000  Uiso   1.00
H1098  H     0.32213   0.89727   0.64471   0.00000  Uiso   1.00
H1099  H     0.01153   0.94418   0.60652   0.00000  Uiso   1.00
H1100  H     0.03196   0.92980   0.66099   0.00000  Uiso   1.00
H1101  H     0.30663   0.98795   0.68953   0.00000  Uiso   1.00
H1102  H     0.28397   0.94110   0.72670   0.00000  Uiso   1.00
H1103  H     0.23965   0.92528   0.65928   0.00000  Uiso   1.00
H1104  H     0.25870   0.97477   0.63032   0.00000  Uiso   1.00
O1105  O     0.46179   0.89442   0.75001   0.00000  Uiso   1.00
O1106  O     0.53823   0.89441   0.75001   0.00000  Uiso   1.00
C1107  C     0.50062   0.91321   0.74826   0.00000  Uiso   1.00
O1108  O     0.44280   0.83333   0.82681   0.00000  Uiso   1.00
O1109  O     0.51924   0.83332   0.82681   0.00000  Uiso   1.00
C1110  C     0.47346   0.83341   0.85174   0.00000  Uiso   1.00
Zn1111 Zn    0.44896   0.83334   0.75000   0.00000  Uiso   1.00
Zn1112 Zn    0.55104   0.83333   0.75000   0.00000  Uiso   1.00
O1113  O     0.46177   0.77226   0.74999   0.00000  Uiso   1.00
O1114  O     0.53821   0.77225   0.74999   0.00000  Uiso   1.00
O1115  O     0.48076   0.83335   0.67319   0.00000  Uiso   1.00
O1116  O     0.55720   0.83334   0.67319   0.00000  Uiso   1.00
C1117  C     0.50002   0.75343   0.74971   0.00000  Uiso   1.00
C1118  C     0.52648   0.83468   0.64828   0.00000  Uiso   1.00
C1119  C     0.58587   0.79405   0.51147   0.00000  Uiso   1.00
H1120  H     0.60473   0.79581   0.58236   0.00000  Uiso   1.00
H1121  H     0.57460   0.75758   0.92663   0.00000  Uiso   1.00
H1122  H     0.61314   0.77087   0.99247   0.00000  Uiso   1.00
C1123  C     0.54288   0.83432   0.59006   0.00000  Uiso   1.00
C1124  C     0.42579   0.87573   0.92779   0.00000  Uiso   1.00
C1125  C     0.42832   0.89996   0.97056   0.00000  Uiso   1.00
C1126  C     0.46131   0.88998   0.99546   0.00000  Uiso   1.00
C1127  C     0.48775   0.85202   0.98321   0.00000  Uiso   1.00
C1128  C     0.48600   0.82823   0.93851   0.00000  Uiso   1.00
C1129  C     0.51805   0.83801   0.51146   0.00000  Uiso   1.00
C1130  C     0.55221   0.80583   0.98791   0.00000  Uiso   1.00
C1131  C     0.55040   0.78352   0.94316   0.00000  Uiso   1.00
C1132  C     0.51563   0.79278   0.92104   0.00000  Uiso   1.00
C1133  C     0.51323   0.85187   0.56401   0.00000  Uiso   1.00
C1134  C     0.58150   0.80864   0.56236   0.00000  Uiso   1.00
C1135  C     0.45757   0.84222   0.90894   0.00000  Uiso   1.00
H1136  H     0.40388   0.88668   0.90508   0.00000  Uiso   1.00
H1137  H     0.46693   0.91353   0.52220   0.00000  Uiso   1.00
H1138  H     0.40736   0.92843   0.98170   0.00000  Uiso   1.00
H1139  H     0.51350   0.77303   0.88831   0.00000  Uiso   1.00
C1140  C     0.54114   0.97889   0.71072   0.00000  Uiso   1.00
C1141  C     0.54048   0.68883   0.71334   0.00000  Uiso   1.00
H1142  H     0.57041   0.70657   0.68725   0.00000  Uiso   1.00
C1143  C     0.50044   0.70935   0.74815   0.00000  Uiso   1.00
C1144  C     0.46059   0.68794   0.78080   0.00000  Uiso   1.00
H1145  H     0.42971   0.70440   0.80763   0.00000  Uiso   1.00
C1146  C     0.46124   0.97839   0.77993   0.00000  Uiso   1.00
H1147  H     0.43081   0.96155   0.80654   0.00000  Uiso   1.00
C1148  C     0.50136   0.95739   0.74572   0.00000  Uiso   1.00
C1149  C     0.65439   0.81278   0.71064   0.00000  Uiso   1.00
H1150  H     0.64574   0.79633   0.67909   0.00000  Uiso   1.00
C1151  C     0.36886   0.81267   0.71076   0.00000  Uiso   1.00
H1152  H     0.39616   0.79599   0.67933   0.00000  Uiso   1.00
N1153  N     0.38093   0.83334   0.75002   0.00000  Uiso   1.00
C1154  C     0.34597   0.85355   0.78948   0.00000  Uiso   1.00
H1155  H     0.35520   0.86984   0.82077   0.00000  Uiso   1.00
C1156  C     0.63143   0.85383   0.78983   0.00000  Uiso   1.00
N1157  N     0.61906   0.83331   0.75000   0.00000  Uiso   1.00
N1158  N     0.59650   0.87550   0.83303   0.00000  Uiso   1.00
O1159  O     0.57658   0.90922   0.82335   0.00000  Uiso   1.00
O1160  O     0.59501   0.86891   0.88200   0.00000  Uiso   1.00
N1161  N     0.47387   0.87791   0.59481   0.00000  Uiso   1.00
O1162  O     0.43009   0.86456   0.60598   0.00000  Uiso   1.00
O1163  O     0.48194   0.91184   0.61821   0.00000  Uiso   1.00
C1164  C     0.58285   0.95732   0.66863   0.00000  Uiso   1.00
C1165  C     0.62691   0.95562   0.68655   0.00000  Uiso   1.00
C1166  C     0.33390   0.93011   0.64709   0.00000  Uiso   1.00
H1167  H     0.65546   0.89727   0.64471   0.00000  Uiso   1.00
H1168  H     0.34486   0.94418   0.60652   0.00000  Uiso   1.00
H1169  H     0.36529   0.92980   0.66099   0.00000  Uiso   1.00
H1170  H     0.63997   0.98795   0.68953   0.00000  Uiso   1.00
H1171  H     0.61730   0.94110   0.72670   0.00000  Uiso   1.00
H1172  H     0.57298   0.92528   0.65928   0.00000  Uiso   1.00
H1173  H     0.59203   0.97477   0.63032   0.00000  Uiso   1.00
O1174  O     0.79512   0.89442   0.75001   0.00000  Uiso   1.00
O1175  O     0.87157   0.89441   0.75001   0.00000  Uiso   1.00
C1176  C     0.83395   0.91321   0.74826   0.00000  Uiso   1.00
O1177  O     0.77613   0.83333   0.82681   0.00000  Uiso   1.00
O1178  O     0.85258   0.83332   0.82681   0.00000  Uiso   1.00
C1179  C     0.80680   0.83341   0.85174   0.00000  Uiso   1.00
Zn1180 Zn    0.78229   0.83334   0.75000   0.00000  Uiso   1.00
Zn1181 Zn    0.88438   0.83333   0.75000   0.00000  Uiso   1.00
O1182  O     0.79510   0.77226   0.74999   0.00000  Uiso   1.00
O1183  O     0.87154   0.77225   0.74999   0.00000  Uiso   1.00
O1184  O     0.81409   0.83335   0.67319   0.00000  Uiso   1.00
O1185  O     0.89053   0.83334   0.67319   0.00000  Uiso   1.00
C1186  C     0.83336   0.75343   0.74971   0.00000  Uiso   1.00
C1187  C     0.85981   0.83468   0.64828   0.00000  Uiso   1.00
C1188  C     0.91920   0.79405   0.51147   0.00000  Uiso   1.00
H1189  H     0.93806   0.79581   0.58236   0.00000  Uiso   1.00
H1190  H     0.90793   0.75758   0.92663   0.00000  Uiso   1.00
H1191  H     0.94647   0.77087   0.99247   0.00000  Uiso   1.00
C1192  C     0.87621   0.83432   0.59006   0.00000  Uiso   1.00
C1193  C     0.75912   0.87573   0.92779   0.00000  Uiso   1.00
C1194  C     0.76165   0.89996   0.97056   0.00000  Uiso   1.00
C1195  C     0.79464   0.88998   0.99546   0.00000  Uiso   1.00
C1196  C     0.82108   0.85202   0.98321   0.00000  Uiso   1.00
C1197  C     0.81934   0.82823   0.93851   0.00000  Uiso   1.00
C1198  C     0.85138   0.83801   0.51146   0.00000  Uiso   1.00
C1199  C     0.88555   0.80583   0.98791   0.00000  Uiso   1.00
C1200  C     0.88373   0.78352   0.94316   0.00000  Uiso   1.00
C1201  C     0.84896   0.79278   0.92104   0.00000  Uiso   1.00
C1202  C     0.84657   0.85187   0.56401   0.00000  Uiso   1.00
C1203  C     0.91483   0.80864   0.56236   0.00000  Uiso   1.00
C1204  C     0.79091   0.84222   0.90894   0.00000  Uiso   1.00
H1205  H     0.73721   0.88668   0.90508   0.00000  Uiso   1.00
H1206  H     0.80026   0.91353   0.52220   0.00000  Uiso   1.00
H1207  H     0.74070   0.92843   0.98170   0.00000  Uiso   1.00
H1208  H     0.84684   0.77303   0.88831   0.00000  Uiso   1.00
C1209  C     0.87448   0.97889   0.71072   0.00000  Uiso   1.00
C1210  C     0.87382   0.68883   0.71334   0.00000  Uiso   1.00
H1211  H     0.90375   0.70657   0.68725   0.00000  Uiso   1.00
C1212  C     0.83377   0.70935   0.74815   0.00000  Uiso   1.00
C1213  C     0.79393   0.68794   0.78080   0.00000  Uiso   1.00
H1214  H     0.76304   0.70440   0.80763   0.00000  Uiso   1.00
C1215  C     0.79457   0.97839   0.77993   0.00000  Uiso   1.00
H1216  H     0.76415   0.96155   0.80654   0.00000  Uiso   1.00
C1217  C     0.83469   0.95739   0.74572   0.00000  Uiso   1.00
C1218  C     0.98772   0.81278   0.71064   0.00000  Uiso   1.00
H1219  H     0.97907   0.79633   0.67909   0.00000  Uiso   1.00
C1220  C     0.70219   0.81267   0.71076   0.00000  Uiso   1.00
H1221  H     0.72949   0.79599   0.67933   0.00000  Uiso   1.00
N1222  N     0.71426   0.83334   0.75002   0.00000  Uiso   1.00
C1223  C     0.67930   0.85355   0.78948   0.00000  Uiso   1.00
H1224  H     0.68853   0.86984   0.82077   0.00000  Uiso   1.00
C1225  C     0.96477   0.85383   0.78983   0.00000  Uiso   1.00
N1226  N     0.95239   0.83331   0.75000   0.00000  Uiso   1.00
N1227  N     0.92984   0.87550   0.83303   0.00000  Uiso   1.00
O1228  O     0.90991   0.90922   0.82335   0.00000  Uiso   1.00
O1229  O     0.92835   0.86891   0.88200   0.00000  Uiso   1.00
N1230  N     0.80720   0.87791   0.59481   0.00000  Uiso   1.00
O1231  O     0.76342   0.86456   0.60598   0.00000  Uiso   1.00
O1232  O     0.81528   0.91184   0.61821   0.00000  Uiso   1.00
C1233  C     0.91618   0.95732   0.66863   0.00000  Uiso   1.00
C1234  C     0.96024   0.95562   0.68655   0.00000  Uiso   1.00
C1235  C     0.66723   0.93011   0.64709   0.00000  Uiso   1.00
H1236  H     0.98879   0.89727   0.64471   0.00000  Uiso   1.00
H1237  H     0.67819   0.94418   0.60652   0.00000  Uiso   1.00
H1238  H     0.69863   0.92980   0.66099   0.00000  Uiso   1.00
H1239  H     0.97330   0.98795   0.68953   0.00000  Uiso   1.00
H1240  H     0.95063   0.94110   0.72670   0.00000  Uiso   1.00
H1241  H     0.90631   0.92528   0.65928   0.00000  Uiso   1.00
H1242  H     0.92537   0.97477   0.63032   0.00000  Uiso   1.00
loop_
_geom_bond_atom_site_label_1
_geom_bond_atom_site_label_2
_geom_bond_distance
_geom_bond_site_symmetry_2
_ccdc_geom_bond_type
O1     Zn7     1.984   .     S
O1     C3      1.284   .     A
O2     C3      1.283   .     A
O2     Zn8     1.987   .     S
C3     C44     1.412   .     S
O4     Zn7     1.978   .     S
O4     C6      1.291   .     A
O5     Zn8     1.931   .     S
O5     C6      1.294   .     A
C6     C31     1.449   .     S
Zn7    O11     1.931   .     S
Zn7    N49     2.017   .     S
Zn7    O9      1.987   .     S
Zn8    N53     2.017   .     S
Zn8    O12     1.978   .     S
Zn8    O10     1.984   .     S
O9     C13     1.284   .     A
O10    C13     1.282   .     A
O11    C14     1.294   .     A
O12    C14     1.293   .     A
C13    C39     1.407   .     S
C14    C19     1.450   .     S
C15    C30     1.383   .     A
C15    H639    1.084   1_554 S
C15    C647    1.398   1_554 S
H16    C30     1.084   .     S
H17    C27     1.084   .     S
H18    C636    1.084   .     S
C19    C30     1.396   .     A
C19    C29     1.408   .     A
C20    C21     1.385   .     A
C20    H32     1.084   .     S
C20    C31     1.400   .     A
C21    C22     1.391   .     A
C21    H34     1.083   .     S
C22    C23     1.419   .     A
C22    H654    1.076   .     S
C23    C24     1.413   .     A
C23    C646    1.424   .     S
C24    C31     1.406   .     A
C24    C28     1.410   .     A
C25    C29     1.414   .     A
C25    C644    1.424   1_554 S
C25    C647    1.427   1_554 S
C26    C27     1.390   .     A
C26    C636    1.398   .     S
C26    C646    1.427   .     S
C27    C28     1.380   .     A
C28    H35     1.083   .     S
C29    N57     1.438   .     S
H33    C643    1.076   1_554 S
C36    C44     1.412   .     A
C36    C60     1.518   .     S
C36    C244    1.382   .     S
C37    H38     1.085   .     S
C37    C39     1.394   .     A
C37    C450    1.382   1_545 S
C39    C40     1.389   .     A
C40    H41     1.084   .     S
C40    C456    1.368   1_545 S
C42    C44     1.396   .     A
C42    H43     1.085   .     S
C42    C247    1.368   .     S
C45    N53     1.366   .     A
C45    H46     1.082   .     S
C45    C116    1.419   .     S
C47    H48     1.082   .     S
C47    N49     1.369   .     A
C47    C183    1.419   1_455 S
N49    C50     1.357   .     A
C50    H51     1.082   .     S
C50    C190    1.417   1_455 S
C52    N53     1.384   .     A
C52    N54     1.431   .     S
C52    C119    1.417   .     S
N54    O56     1.301   .     A
N54    O55     1.299   .     A
N57    O58     1.302   .     A
N57    O59     1.302   .     A
C60    H69     1.112   .     S
C60    H68     1.110   .     S
C60    C61     1.534   .     S
C61    H67     1.110   .     S
C61    H66     1.112   .     S
C61    C131    1.526   .     S
C62    H64     1.111   .     S
C62    H65     1.110   .     S
C62    C199    1.526   1_455 S
C62    H201    1.111   1_455 S
H63    C131    1.111   .     S
O70    Zn76    1.984   .     S
O70    C72     1.284   .     A
O71    C72     1.283   .     A
O71    Zn77    1.987   .     S
C72    C113    1.412   .     S
O73    Zn76    1.978   .     S
O73    C75     1.291   .     A
O74    Zn77    1.931   .     S
O74    C75     1.294   .     A
C75    C100    1.449   .     S
Zn76   O80     1.931   .     S
Zn76   N118    2.017   .     S
Zn76   O78     1.987   .     S
Zn77   N122    2.017   .     S
Zn77   O81     1.978   .     S
Zn77   O79     1.984   .     S
O78    C82     1.284   .     A
O79    C82     1.282   .     A
O80    C83     1.294   .     A
O81    C83     1.293   .     A
C82    C108    1.407   .     S
C83    C88     1.450   .     S
C84    C99     1.383   .     A
C84    H708    1.084   1_554 S
C84    C716    1.398   1_554 S
H85    C99     1.084   .     S
H86    C96     1.084   .     S
H87    C705    1.084   .     S
C88    C99     1.396   .     A
C88    C98     1.408   .     A
C89    C90     1.385   .     A
C89    H101    1.084   .     S
C89    C100    1.400   .     A
C90    C91     1.391   .     A
C90    H103    1.083   .     S
C91    C92     1.419   .     A
C91    H723    1.076   .     S
C92    C93     1.413   .     A
C92    C715    1.424   .     S
C93    C100    1.406   .     A
C93    C97     1.410   .     A
C94    C98     1.414   .     A
C94    C713    1.424   1_554 S
C94    C716    1.427   1_554 S
C95    C96     1.390   .     A
C95    C705    1.398   .     S
C95    C715    1.427   .     S
C96    C97     1.380   .     A
C97    H104    1.083   .     S
C98    N126    1.438   .     S
H102   C712    1.076   1_554 S
C105   C113    1.412   .     A
C105   C129    1.518   .     S
C105   C313    1.382   .     S
C106   H107    1.085   .     S
C106   C108    1.394   .     A
C106   C519    1.382   1_545 S
C108   C109    1.389   .     A
C109   H110    1.084   .     S
C109   C525    1.368   1_545 S
C111   C113    1.396   .     A
C111   H112    1.085   .     S
C111   C316    1.368   .     S
C114   N122    1.366   .     A
C114   H115    1.082   .     S
C114   C185    1.419   .     S
C116   H117    1.082   .     S
C116   N118    1.369   .     A
N118   C119    1.357   .     A
C119   H120    1.082   .     S
C121   N122    1.384   .     A
C121   N123    1.431   .     S
C121   C188    1.417   .     S
N123   O125    1.301   .     A
N123   O124    1.299   .     A
N126   O127    1.302   .     A
N126   O128    1.302   .     A
C129   H138    1.112   .     S
C129   H137    1.110   .     S
C129   C130    1.534   .     S
C130   H136    1.110   .     S
C130   H135    1.112   .     S
C130   C200    1.526   .     S
C131   H133    1.111   .     S
C131   H134    1.110   .     S
H132   C200    1.111   .     S
O139   Zn145   1.984   .     S
O139   C141    1.284   .     A
O140   C141    1.283   .     A
O140   Zn146   1.987   .     S
C141   C182    1.412   .     S
O142   Zn145   1.978   .     S
O142   C144    1.291   .     A
O143   Zn146   1.931   .     S
O143   C144    1.294   .     A
C144   C169    1.449   .     S
Zn145  O149    1.931   .     S
Zn145  N187    2.017   .     S
Zn145  O147    1.987   .     S
Zn146  N191    2.017   .     S
Zn146  O150    1.978   .     S
Zn146  O148    1.984   .     S
O147   C151    1.284   .     A
O148   C151    1.282   .     A
O149   C152    1.294   .     A
O150   C152    1.293   .     A
C151   C177    1.407   .     S
C152   C157    1.450   .     S
C153   C168    1.383   .     A
C153   H777    1.084   1_554 S
C153   C785    1.398   1_554 S
H154   C168    1.084   .     S
H155   C165    1.084   .     S
H156   C774    1.084   .     S
C157   C168    1.396   .     A
C157   C167    1.408   .     A
C158   C159    1.385   .     A
C158   H170    1.084   .     S
C158   C169    1.400   .     A
C159   C160    1.391   .     A
C159   H172    1.083   .     S
C160   C161    1.419   .     A
C160   H792    1.076   .     S
C161   C162    1.413   .     A
C161   C784    1.424   .     S
C162   C169    1.406   .     A
C162   C166    1.410   .     A
C163   C167    1.414   .     A
C163   C782    1.424   1_554 S
C163   C785    1.427   1_554 S
C164   C165    1.390   .     A
C164   C774    1.398   .     S
C164   C784    1.427   .     S
C165   C166    1.380   .     A
C166   H173    1.083   .     S
C167   N195    1.438   .     S
H171   C781    1.076   1_554 S
C174   C182    1.412   .     A
C174   C198    1.518   .     S
C174   C382    1.382   .     S
C175   H176    1.085   .     S
C175   C177    1.394   .     A
C175   C588    1.382   1_545 S
C177   C178    1.389   .     A
C178   H179    1.084   .     S
C178   C594    1.368   1_545 S
C180   C182    1.396   .     A
C180   H181    1.085   .     S
C180   C385    1.368   .     S
C183   N191    1.366   .     A
C183   H184    1.082   .     S
C183   C47     1.419   1_655 S
C185   H186    1.082   .     S
C185   N187    1.369   .     A
N187   C188    1.357   .     A
C188   H189    1.082   .     S
C190   N191    1.384   .     A
C190   N192    1.431   .     S
C190   C50     1.417   1_655 S
N192   O194    1.301   .     A
N192   O193    1.299   .     A
N195   O196    1.302   .     A
N195   O197    1.302   .     A
C198   H207    1.112   .     S
C198   H206    1.110   .     S
C198   C199    1.534   .     S
C199   H205    1.110   .     S
C199   H204    1.112   .     S
C199   C62     1.526   1_655 S
C200   H202    1.111   .     S
C200   H203    1.110   .     S
H201   C62     1.111   1_655 S
O208   Zn214   1.984   .     S
O208   C210    1.284   .     A
O209   C210    1.283   .     A
O209   Zn215   1.987   .     S
C210   C251    1.412   .     S
O211   Zn214   1.978   .     S
O211   C213    1.291   .     A
O212   Zn215   1.931   .     S
O212   C213    1.294   .     A
C213   C238    1.449   .     S
Zn214  O218    1.931   .     S
Zn214  N256    2.017   .     S
Zn214  O216    1.987   .     S
Zn215  N260    2.017   .     S
Zn215  O219    1.978   .     S
Zn215  O217    1.984   .     S
O216   C220    1.284   .     A
O217   C220    1.282   .     A
O218   C221    1.294   .     A
O219   C221    1.293   .     A
C220   C246    1.407   .     S
C221   C226    1.450   .     S
C222   C237    1.383   .     A
C222   H846    1.084   1_554 S
C222   C854    1.398   1_554 S
H223   C237    1.084   .     S
H224   C234    1.084   .     S
H225   C843    1.084   .     S
C226   C237    1.396   .     A
C226   C236    1.408   .     A
C227   C228    1.385   .     A
C227   H239    1.084   .     S
C227   C238    1.400   .     A
C228   C229    1.391   .     A
C228   H241    1.083   .     S
C229   C230    1.419   .     A
C229   H861    1.076   .     S
C230   C231    1.413   .     A
C230   C853    1.424   .     S
C231   C238    1.406   .     A
C231   C235    1.410   .     A
C232   C236    1.414   .     A
C232   C851    1.424   1_554 S
C232   C854    1.427   1_554 S
C233   C234    1.390   .     A
C233   C843    1.398   .     S
C233   C853    1.427   .     S
C234   C235    1.380   .     A
C235   H242    1.083   .     S
C236   N264    1.438   .     S
H240   C850    1.076   1_554 S
C243   C251    1.412   .     A
C243   C267    1.518   .     S
C243   C451    1.382   .     S
C244   H245    1.085   .     S
C244   C246    1.394   .     A
C246   C247    1.389   .     A
C247   H248    1.084   .     S
C249   C251    1.396   .     A
C249   H250    1.085   .     S
C249   C454    1.368   .     S
C252   N260    1.366   .     A
C252   H253    1.082   .     S
C252   C323    1.419   .     S
C254   H255    1.082   .     S
C254   N256    1.369   .     A
C254   C390    1.419   1_455 S
N256   C257    1.357   .     A
C257   H258    1.082   .     S
C257   C397    1.417   1_455 S
C259   N260    1.384   .     A
C259   N261    1.431   .     S
C259   C326    1.417   .     S
N261   O263    1.301   .     A
N261   O262    1.299   .     A
N264   O265    1.302   .     A
N264   O266    1.302   .     A
C267   H276    1.112   .     S
C267   H275    1.110   .     S
C267   C268    1.534   .     S
C268   H274    1.110   .     S
C268   H273    1.112   .     S
C268   C338    1.526   .     S
C269   H271    1.111   .     S
C269   H272    1.110   .     S
C269   C406    1.526   1_455 S
C269   H408    1.111   1_455 S
H270   C338    1.111   .     S
O277   Zn283   1.984   .     S
O277   C279    1.284   .     A
O278   C279    1.283   .     A
O278   Zn284   1.987   .     S
C279   C320    1.412   .     S
O280   Zn283   1.978   .     S
O280   C282    1.291   .     A
O281   Zn284   1.931   .     S
O281   C282    1.294   .     A
C282   C307    1.449   .     S
Zn283  O287    1.931   .     S
Zn283  N325    2.017   .     S
Zn283  O285    1.987   .     S
Zn284  N329    2.017   .     S
Zn284  O288    1.978   .     S
Zn284  O286    1.984   .     S
O285   C289    1.284   .     A
O286   C289    1.282   .     A
O287   C290    1.294   .     A
O288   C290    1.293   .     A
C289   C315    1.407   .     S
C290   C295    1.450   .     S
C291   C306    1.383   .     A
C291   H915    1.084   1_554 S
C291   C923    1.398   1_554 S
H292   C306    1.084   .     S
H293   C303    1.084   .     S
H294   C912    1.084   .     S
C295   C306    1.396   .     A
C295   C305    1.408   .     A
C296   C297    1.385   .     A
C296   H308    1.084   .     S
C296   C307    1.400   .     A
C297   C298    1.391   .     A
C297   H310    1.083   .     S
C298   C299    1.419   .     A
C298   H930    1.076   .     S
C299   C300    1.413   .     A
C299   C922    1.424   .     S
C300   C307    1.406   .     A
C300   C304    1.410   .     A
C301   C305    1.414   .     A
C301   C920    1.424   1_554 S
C301   C923    1.427   1_554 S
C302   C303    1.390   .     A
C302   C912    1.398   .     S
C302   C922    1.427   .     S
C303   C304    1.380   .     A
C304   H311    1.083   .     S
C305   N333    1.438   .     S
H309   C919    1.076   1_554 S
C312   C320    1.412   .     A
C312   C336    1.518   .     S
C312   C520    1.382   .     S
C313   H314    1.085   .     S
C313   C315    1.394   .     A
C315   C316    1.389   .     A
C316   H317    1.084   .     S
C318   C320    1.396   .     A
C318   H319    1.085   .     S
C318   C523    1.368   .     S
C321   N329    1.366   .     A
C321   H322    1.082   .     S
C321   C392    1.419   .     S
C323   H324    1.082   .     S
C323   N325    1.369   .     A
N325   C326    1.357   .     A
C326   H327    1.082   .     S
C328   N329    1.384   .     A
C328   N330    1.431   .     S
C328   C395    1.417   .     S
N330   O332    1.301   .     A
N330   O331    1.299   .     A
N333   O334    1.302   .     A
N333   O335    1.302   .     A
C336   H345    1.112   .     S
C336   H344    1.110   .     S
C336   C337    1.534   .     S
C337   H343    1.110   .     S
C337   H342    1.112   .     S
C337   C407    1.526   .     S
C338   H340    1.111   .     S
C338   H341    1.110   .     S
H339   C407    1.111   .     S
O346   Zn352   1.984   .     S
O346   C348    1.284   .     A
O347   C348    1.283   .     A
O347   Zn353   1.987   .     S
C348   C389    1.412   .     S
O349   Zn352   1.978   .     S
O349   C351    1.291   .     A
O350   Zn353   1.931   .     S
O350   C351    1.294   .     A
C351   C376    1.449   .     S
Zn352  O356    1.931   .     S
Zn352  N394    2.017   .     S
Zn352  O354    1.987   .     S
Zn353  N398    2.017   .     S
Zn353  O357    1.978   .     S
Zn353  O355    1.984   .     S
O354   C358    1.284   .     A
O355   C358    1.282   .     A
O356   C359    1.294   .     A
O357   C359    1.293   .     A
C358   C384    1.407   .     S
C359   C364    1.450   .     S
C360   C375    1.383   .     A
C360   H984    1.084   1_554 S
C360   C992    1.398   1_554 S
H361   C375    1.084   .     S
H362   C372    1.084   .     S
H363   C981    1.084   .     S
C364   C375    1.396   .     A
C364   C374    1.408   .     A
C365   C366    1.385   .     A
C365   H377    1.084   .     S
C365   C376    1.400   .     A
C366   C367    1.391   .     A
C366   H379    1.083   .     S
C367   C368    1.419   .     A
C367   H999    1.076   .     S
C368   C369    1.413   .     A
C368   C991    1.424   .     S
C369   C376    1.406   .     A
C369   C373    1.410   .     A
C370   C374    1.414   .     A
C370   C989    1.424   1_554 S
C370   C992    1.427   1_554 S
C371   C372    1.390   .     A
C371   C981    1.398   .     S
C371   C991    1.427   .     S
C372   C373    1.380   .     A
C373   H380    1.083   .     S
C374   N402    1.438   .     S
H378   C988    1.076   1_554 S
C381   C389    1.412   .     A
C381   C405    1.518   .     S
C381   C589    1.382   .     S
C382   H383    1.085   .     S
C382   C384    1.394   .     A
C384   C385    1.389   .     A
C385   H386    1.084   .     S
C387   C389    1.396   .     A
C387   H388    1.085   .     S
C387   C592    1.368   .     S
C390   N398    1.366   .     A
C390   H391    1.082   .     S
C390   C254    1.419   1_655 S
C392   H393    1.082   .     S
C392   N394    1.369   .     A
N394   C395    1.357   .     A
C395   H396    1.082   .     S
C397   N398    1.384   .     A
C397   N399    1.431   .     S
C397   C257    1.417   1_655 S
N399   O401    1.301   .     A
N399   O400    1.299   .     A
N402   O403    1.302   .     A
N402   O404    1.302   .     A
C405   H414    1.112   .     S
C405   H413    1.110   .     S
C405   C406    1.534   .     S
C406   H412    1.110   .     S
C406   H411    1.112   .     S
C406   C269    1.526   1_655 S
C407   H409    1.111   .     S
C407   H410    1.110   .     S
H408   C269    1.111   1_655 S
O415   Zn421   1.984   .     S
O415   C417    1.284   .     A
O416   C417    1.283   .     A
O416   Zn422   1.987   .     S
C417   C458    1.412   .     S
O418   Zn421   1.978   .     S
O418   C420    1.291   .     A
O419   Zn422   1.931   .     S
O419   C420    1.294   .     A
C420   C445    1.449   .     S
Zn421  O425    1.931   .     S
Zn421  N463    2.017   .     S
Zn421  O423    1.987   .     S
Zn422  N467    2.017   .     S
Zn422  O426    1.978   .     S
Zn422  O424    1.984   .     S
O423   C427    1.284   .     A
O424   C427    1.282   .     A
O425   C428    1.294   .     A
O426   C428    1.293   .     A
C427   C453    1.407   .     S
C428   C433    1.450   .     S
C429   C444    1.383   .     A
C429   H1053   1.084   1_554 S
C429   C1061   1.398   1_554 S
H430   C444    1.084   .     S
H431   C441    1.084   .     S
H432   C1050   1.084   .     S
C433   C444    1.396   .     A
C433   C443    1.408   .     A
C434   C435    1.385   .     A
C434   H446    1.084   .     S
C434   C445    1.400   .     A
C435   C436    1.391   .     A
C435   H448    1.083   .     S
C436   C437    1.419   .     A
C436   H1068   1.076   .     S
C437   C438    1.413   .     A
C437   C1060   1.424   .     S
C438   C445    1.406   .     A
C438   C442    1.410   .     A
C439   C443    1.414   .     A
C439   C1058   1.424   1_554 S
C439   C1061   1.427   1_554 S
C440   C441    1.390   .     A
C440   C1050   1.398   .     S
C440   C1060   1.427   .     S
C441   C442    1.380   .     A
C442   H449    1.083   .     S
C443   N471    1.438   .     S
H447   C1057   1.076   1_554 S
C450   C458    1.412   .     A
C450   C474    1.518   .     S
C450   C37     1.382   1_565 S
C451   H452    1.085   .     S
C451   C453    1.394   .     A
C453   C454    1.389   .     A
C454   H455    1.084   .     S
C456   C458    1.396   .     A
C456   H457    1.085   .     S
C456   C40     1.368   1_565 S
C459   N467    1.366   .     A
C459   H460    1.082   .     S
C459   C530    1.419   .     S
C461   H462    1.082   .     S
C461   N463    1.369   .     A
C461   C597    1.419   1_455 S
N463   C464    1.357   .     A
C464   H465    1.082   .     S
C464   C604    1.417   1_455 S
C466   N467    1.384   .     A
C466   N468    1.431   .     S
C466   C533    1.417   .     S
N468   O470    1.301   .     A
N468   O469    1.299   .     A
N471   O472    1.302   .     A
N471   O473    1.302   .     A
C474   H483    1.112   .     S
C474   H482    1.110   .     S
C474   C475    1.534   .     S
C475   H481    1.110   .     S
C475   H480    1.112   .     S
C475   C545    1.526   .     S
C476   H478    1.111   .     S
C476   H479    1.110   .     S
C476   C613    1.526   1_455 S
C476   H615    1.111   1_455 S
H477   C545    1.111   .     S
O484   Zn490   1.984   .     S
O484   C486    1.284   .     A
O485   C486    1.283   .     A
O485   Zn491   1.987   .     S
C486   C527    1.412   .     S
O487   Zn490   1.978   .     S
O487   C489    1.291   .     A
O488   Zn491   1.931   .     S
O488   C489    1.294   .     A
C489   C514    1.449   .     S
Zn490  O494    1.931   .     S
Zn490  N532    2.017   .     S
Zn490  O492    1.987   .     S
Zn491  N536    2.017   .     S
Zn491  O495    1.978   .     S
Zn491  O493    1.984   .     S
O492   C496    1.284   .     A
O493   C496    1.282   .     A
O494   C497    1.294   .     A
O495   C497    1.293   .     A
C496   C522    1.407   .     S
C497   C502    1.450   .     S
C498   C513    1.383   .     A
C498   H1122   1.084   1_554 S
C498   C1130   1.398   1_554 S
H499   C513    1.084   .     S
H500   C510    1.084   .     S
H501   C1119   1.084   .     S
C502   C513    1.396   .     A
C502   C512    1.408   .     A
C503   C504    1.385   .     A
C503   H515    1.084   .     S
C503   C514    1.400   .     A
C504   C505    1.391   .     A
C504   H517    1.083   .     S
C505   C506    1.419   .     A
C505   H1137   1.076   .     S
C506   C507    1.413   .     A
C506   C1129   1.424   .     S
C507   C514    1.406   .     A
C507   C511    1.410   .     A
C508   C512    1.414   .     A
C508   C1127   1.424   1_554 S
C508   C1130   1.427   1_554 S
C509   C510    1.390   .     A
C509   C1119   1.398   .     S
C509   C1129   1.427   .     S
C510   C511    1.380   .     A
C511   H518    1.083   .     S
C512   N540    1.438   .     S
H516   C1126   1.076   1_554 S
C519   C527    1.412   .     A
C519   C543    1.518   .     S
C519   C106    1.382   1_565 S
C520   H521    1.085   .     S
C520   C522    1.394   .     A
C522   C523    1.389   .     A
C523   H524    1.084   .     S
C525   C527    1.396   .     A
C525   H526    1.085   .     S
C525   C109    1.368   1_565 S
C528   N536    1.366   .     A
C528   H529    1.082   .     S
C528   C599    1.419   .     S
C530   H531    1.082   .     S
C530   N532    1.369   .     A
N532   C533    1.357   .     A
C533   H534    1.082   .     S
C535   N536    1.384   .     A
C535   N537    1.431   .     S
C535   C602    1.417   .     S
N537   O539    1.301   .     A
N537   O538    1.299   .     A
N540   O541    1.302   .     A
N540   O542    1.302   .     A
C543   H552    1.112   .     S
C543   H551    1.110   .     S
C543   C544    1.534   .     S
C544   H550    1.110   .     S
C544   H549    1.112   .     S
C544   C614    1.526   .     S
C545   H547    1.111   .     S
C545   H548    1.110   .     S
H546   C614    1.111   .     S
O553   Zn559   1.984   .     S
O553   C555    1.284   .     A
O554   C555    1.283   .     A
O554   Zn560   1.987   .     S
C555   C596    1.412   .     S
O556   Zn559   1.978   .     S
O556   C558    1.291   .     A
O557   Zn560   1.931   .     S
O557   C558    1.294   .     A
C558   C583    1.449   .     S
Zn559  O563    1.931   .     S
Zn559  N601    2.017   .     S
Zn559  O561    1.987   .     S
Zn560  N605    2.017   .     S
Zn560  O564    1.978   .     S
Zn560  O562    1.984   .     S
O561   C565    1.284   .     A
O562   C565    1.282   .     A
O563   C566    1.294   .     A
O564   C566    1.293   .     A
C565   C591    1.407   .     S
C566   C571    1.450   .     S
C567   C582    1.383   .     A
C567   H1191   1.084   1_554 S
C567   C1199   1.398   1_554 S
H568   C582    1.084   .     S
H569   C579    1.084   .     S
H570   C1188   1.084   .     S
C571   C582    1.396   .     A
C571   C581    1.408   .     A
C572   C573    1.385   .     A
C572   H584    1.084   .     S
C572   C583    1.400   .     A
C573   C574    1.391   .     A
C573   H586    1.083   .     S
C574   C575    1.419   .     A
C574   H1206   1.076   .     S
C575   C576    1.413   .     A
C575   C1198   1.424   .     S
C576   C583    1.406   .     A
C576   C580    1.410   .     A
C577   C581    1.414   .     A
C577   C1196   1.424   1_554 S
C577   C1199   1.427   1_554 S
C578   C579    1.390   .     A
C578   C1188   1.398   .     S
C578   C1198   1.427   .     S
C579   C580    1.380   .     A
C580   H587    1.083   .     S
C581   N609    1.438   .     S
H585   C1195   1.076   1_554 S
C588   C596    1.412   .     A
C588   C612    1.518   .     S
C588   C175    1.382   1_565 S
C589   H590    1.085   .     S
C589   C591    1.394   .     A
C591   C592    1.389   .     A
C592   H593    1.084   .     S
C594   C596    1.396   .     A
C594   H595    1.085   .     S
C594   C178    1.368   1_565 S
C597   N605    1.366   .     A
C597   H598    1.082   .     S
C597   C461    1.419   1_655 S
C599   H600    1.082   .     S
C599   N601    1.369   .     A
N601   C602    1.357   .     A
C602   H603    1.082   .     S
C604   N605    1.384   .     A
C604   N606    1.431   .     S
C604   C464    1.417   1_655 S
N606   O608    1.301   .     A
N606   O607    1.299   .     A
N609   O610    1.302   .     A
N609   O611    1.302   .     A
C612   H621    1.112   .     S
C612   H620    1.110   .     S
C612   C613    1.534   .     S
C613   H619    1.110   .     S
C613   H618    1.112   .     S
C613   C476    1.526   1_655 S
C614   H616    1.111   .     S
C614   H617    1.110   .     S
H615   C476    1.111   1_655 S
O622   Zn628   1.984   .     S
O622   C624    1.284   .     A
O623   C624    1.283   .     A
O623   Zn629   1.987   .     S
C624   C665    1.412   .     S
O625   Zn628   1.978   .     S
O625   C627    1.291   .     A
O626   Zn629   1.931   .     S
O626   C627    1.294   .     A
C627   C652    1.449   .     S
Zn628  O632    1.931   .     S
Zn628  N670    2.017   .     S
Zn628  O630    1.987   .     S
Zn629  N674    2.017   .     S
Zn629  O633    1.978   .     S
Zn629  O631    1.984   .     S
O630   C634    1.284   .     A
O631   C634    1.282   .     A
O632   C635    1.294   .     A
O633   C635    1.293   .     A
C634   C660    1.407   .     S
C635   C640    1.450   .     S
C636   C651    1.383   .     A
H637   C651    1.084   .     S
H638   C648    1.084   .     S
H639   C15     1.084   1_556 S
C640   C651    1.396   .     A
C640   C650    1.408   .     A
C641   C642    1.385   .     A
C641   H653    1.084   .     S
C641   C652    1.400   .     A
C642   C643    1.391   .     A
C642   H655    1.083   .     S
C643   C644    1.419   .     A
C643   H33     1.076   1_556 S
C644   C645    1.413   .     A
C644   C25     1.424   1_556 S
C645   C652    1.406   .     A
C645   C649    1.410   .     A
C646   C650    1.414   .     A
C647   C648    1.390   .     A
C647   C15     1.398   1_556 S
C647   C25     1.427   1_556 S
C648   C649    1.380   .     A
C649   H656    1.083   .     S
C650   N678    1.438   .     S
C657   C665    1.412   .     A
C657   C681    1.518   .     S
C657   C865    1.382   .     S
C658   H659    1.085   .     S
C658   C660    1.394   .     A
C658   C1071   1.382   1_545 S
C660   C661    1.389   .     A
C661   H662    1.084   .     S
C661   C1077   1.368   1_545 S
C663   C665    1.396   .     A
C663   H664    1.085   .     S
C663   C868    1.368   .     S
C666   N674    1.366   .     A
C666   H667    1.082   .     S
C666   C737    1.419   .     S
C668   H669    1.082   .     S
C668   N670    1.369   .     A
C668   C804    1.419   1_455 S
N670   C671    1.357   .     A
C671   H672    1.082   .     S
C671   C811    1.417   1_455 S
C673   N674    1.384   .     A
C673   N675    1.431   .     S
C673   C740    1.417   .     S
N675   O677    1.301   .     A
N675   O676    1.299   .     A
N678   O679    1.302   .     A
N678   O680    1.302   .     A
C681   H690    1.112   .     S
C681   H689    1.110   .     S
C681   C682    1.534   .     S
C682   H688    1.110   .     S
C682   H687    1.112   .     S
C682   C752    1.526   .     S
C683   H685    1.111   .     S
C683   H686    1.110   .     S
C683   C820    1.526   1_455 S
C683   H822    1.111   1_455 S
H684   C752    1.111   .     S
O691   Zn697   1.984   .     S
O691   C693    1.284   .     A
O692   C693    1.283   .     A
O692   Zn698   1.987   .     S
C693   C734    1.412   .     S
O694   Zn697   1.978   .     S
O694   C696    1.291   .     A
O695   Zn698   1.931   .     S
O695   C696    1.294   .     A
C696   C721    1.449   .     S
Zn697  O701    1.931   .     S
Zn697  N739    2.017   .     S
Zn697  O699    1.987   .     S
Zn698  N743    2.017   .     S
Zn698  O702    1.978   .     S
Zn698  O700    1.984   .     S
O699   C703    1.284   .     A
O700   C703    1.282   .     A
O701   C704    1.294   .     A
O702   C704    1.293   .     A
C703   C729    1.407   .     S
C704   C709    1.450   .     S
C705   C720    1.383   .     A
H706   C720    1.084   .     S
H707   C717    1.084   .     S
H708   C84     1.084   1_556 S
C709   C720    1.396   .     A
C709   C719    1.408   .     A
C710   C711    1.385   .     A
C710   H722    1.084   .     S
C710   C721    1.400   .     A
C711   C712    1.391   .     A
C711   H724    1.083   .     S
C712   C713    1.419   .     A
C712   H102    1.076   1_556 S
C713   C714    1.413   .     A
C713   C94     1.424   1_556 S
C714   C721    1.406   .     A
C714   C718    1.410   .     A
C715   C719    1.414   .     A
C716   C717    1.390   .     A
C716   C84     1.398   1_556 S
C716   C94     1.427   1_556 S
C717   C718    1.380   .     A
C718   H725    1.083   .     S
C719   N747    1.438   .     S
C726   C734    1.412   .     A
C726   C750    1.518   .     S
C726   C934    1.382   .     S
C727   H728    1.085   .     S
C727   C729    1.394   .     A
C727   C1140   1.382   1_545 S
C729   C730    1.389   .     A
C730   H731    1.084   .     S
C730   C1146   1.368   1_545 S
C732   C734    1.396   .     A
C732   H733    1.085   .     S
C732   C937    1.368   .     S
C735   N743    1.366   .     A
C735   H736    1.082   .     S
C735   C806    1.419   .     S
C737   H738    1.082   .     S
C737   N739    1.369   .     A
N739   C740    1.357   .     A
C740   H741    1.082   .     S
C742   N743    1.384   .     A
C742   N744    1.431   .     S
C742   C809    1.417   .     S
N744   O746    1.301   .     A
N744   O745    1.299   .     A
N747   O748    1.302   .     A
N747   O749    1.302   .     A
C750   H759    1.112   .     S
C750   H758    1.110   .     S
C750   C751    1.534   .     S
C751   H757    1.110   .     S
C751   H756    1.112   .     S
C751   C821    1.526   .     S
C752   H754    1.111   .     S
C752   H755    1.110   .     S
H753   C821    1.111   .     S
O760   Zn766   1.984   .     S
O760   C762    1.284   .     A
O761   C762    1.283   .     A
O761   Zn767   1.987   .     S
C762   C803    1.412   .     S
O763   Zn766   1.978   .     S
O763   C765    1.291   .     A
O764   Zn767   1.931   .     S
O764   C765    1.294   .     A
C765   C790    1.449   .     S
Zn766  O770    1.931   .     S
Zn766  N808    2.017   .     S
Zn766  O768    1.987   .     S
Zn767  N812    2.017   .     S
Zn767  O771    1.978   .     S
Zn767  O769    1.984   .     S
O768   C772    1.284   .     A
O769   C772    1.282   .     A
O770   C773    1.294   .     A
O771   C773    1.293   .     A
C772   C798    1.407   .     S
C773   C778    1.450   .     S
C774   C789    1.383   .     A
H775   C789    1.084   .     S
H776   C786    1.084   .     S
H777   C153    1.084   1_556 S
C778   C789    1.396   .     A
C778   C788    1.408   .     A
C779   C780    1.385   .     A
C779   H791    1.084   .     S
C779   C790    1.400   .     A
C780   C781    1.391   .     A
C780   H793    1.083   .     S
C781   C782    1.419   .     A
C781   H171    1.076   1_556 S
C782   C783    1.413   .     A
C782   C163    1.424   1_556 S
C783   C790    1.406   .     A
C783   C787    1.410   .     A
C784   C788    1.414   .     A
C785   C786    1.390   .     A
C785   C153    1.398   1_556 S
C785   C163    1.427   1_556 S
C786   C787    1.380   .     A
C787   H794    1.083   .     S
C788   N816    1.438   .     S
C795   C803    1.412   .     A
C795   C819    1.518   .     S
C795   C1003   1.382   .     S
C796   H797    1.085   .     S
C796   C798    1.394   .     A
C796   C1209   1.382   1_545 S
C798   C799    1.389   .     A
C799   H800    1.084   .     S
C799   C1215   1.368   1_545 S
C801   C803    1.396   .     A
C801   H802    1.085   .     S
C801   C1006   1.368   .     S
C804   N812    1.366   .     A
C804   H805    1.082   .     S
C804   C668    1.419   1_655 S
C806   H807    1.082   .     S
C806   N808    1.369   .     A
N808   C809    1.357   .     A
C809   H810    1.082   .     S
C811   N812    1.384   .     A
C811   N813    1.431   .     S
C811   C671    1.417   1_655 S
N813   O815    1.301   .     A
N813   O814    1.299   .     A
N816   O817    1.302   .     A
N816   O818    1.302   .     A
C819   H828    1.112   .     S
C819   H827    1.110   .     S
C819   C820    1.534   .     S
C820   H826    1.110   .     S
C820   H825    1.112   .     S
C820   C683    1.526   1_655 S
C821   H823    1.111   .     S
C821   H824    1.110   .     S
H822   C683    1.111   1_655 S
O829   Zn835   1.984   .     S
O829   C831    1.284   .     A
O830   C831    1.283   .     A
O830   Zn836   1.987   .     S
C831   C872    1.412   .     S
O832   Zn835   1.978   .     S
O832   C834    1.291   .     A
O833   Zn836   1.931   .     S
O833   C834    1.294   .     A
C834   C859    1.449   .     S
Zn835  O839    1.931   .     S
Zn835  N877    2.017   .     S
Zn835  O837    1.987   .     S
Zn836  N881    2.017   .     S
Zn836  O840    1.978   .     S
Zn836  O838    1.984   .     S
O837   C841    1.284   .     A
O838   C841    1.282   .     A
O839   C842    1.294   .     A
O840   C842    1.293   .     A
C841   C867    1.407   .     S
C842   C847    1.450   .     S
C843   C858    1.383   .     A
H844   C858    1.084   .     S
H845   C855    1.084   .     S
H846   C222    1.084   1_556 S
C847   C858    1.396   .     A
C847   C857    1.408   .     A
C848   C849    1.385   .     A
C848   H860    1.084   .     S
C848   C859    1.400   .     A
C849   C850    1.391   .     A
C849   H862    1.083   .     S
C850   C851    1.419   .     A
C850   H240    1.076   1_556 S
C851   C852    1.413   .     A
C851   C232    1.424   1_556 S
C852   C859    1.406   .     A
C852   C856    1.410   .     A
C853   C857    1.414   .     A
C854   C855    1.390   .     A
C854   C222    1.398   1_556 S
C854   C232    1.427   1_556 S
C855   C856    1.380   .     A
C856   H863    1.083   .     S
C857   N885    1.438   .     S
C864   C872    1.412   .     A
C864   C888    1.518   .     S
C864   C1072   1.382   .     S
C865   H866    1.085   .     S
C865   C867    1.394   .     A
C867   C868    1.389   .     A
C868   H869    1.084   .     S
C870   C872    1.396   .     A
C870   H871    1.085   .     S
C870   C1075   1.368   .     S
C873   N881    1.366   .     A
C873   H874    1.082   .     S
C873   C944    1.419   .     S
C875   H876    1.082   .     S
C875   N877    1.369   .     A
C875   C1011   1.419   1_455 S
N877   C878    1.357   .     A
C878   H879    1.082   .     S
C878   C1018   1.417   1_455 S
C880   N881    1.384   .     A
C880   N882    1.431   .     S
C880   C947    1.417   .     S
N882   O884    1.301   .     A
N882   O883    1.299   .     A
N885   O886    1.302   .     A
N885   O887    1.302   .     A
C888   H897    1.112   .     S
C888   H896    1.110   .     S
C888   C889    1.534   .     S
C889   H895    1.110   .     S
C889   H894    1.112   .     S
C889   C959    1.526   .     S
C890   H892    1.111   .     S
C890   H893    1.110   .     S
C890   C1027   1.526   1_455 S
C890   H1029   1.111   1_455 S
H891   C959    1.111   .     S
O898   Zn904   1.984   .     S
O898   C900    1.284   .     A
O899   C900    1.283   .     A
O899   Zn905   1.987   .     S
C900   C941    1.412   .     S
O901   Zn904   1.978   .     S
O901   C903    1.291   .     A
O902   Zn905   1.931   .     S
O902   C903    1.294   .     A
C903   C928    1.449   .     S
Zn904  O908    1.931   .     S
Zn904  N946    2.017   .     S
Zn904  O906    1.987   .     S
Zn905  N950    2.017   .     S
Zn905  O909    1.978   .     S
Zn905  O907    1.984   .     S
O906   C910    1.284   .     A
O907   C910    1.282   .     A
O908   C911    1.294   .     A
O909   C911    1.293   .     A
C910   C936    1.407   .     S
C911   C916    1.450   .     S
C912   C927    1.383   .     A
H913   C927    1.084   .     S
H914   C924    1.084   .     S
H915   C291    1.084   1_556 S
C916   C927    1.396   .     A
C916   C926    1.408   .     A
C917   C918    1.385   .     A
C917   H929    1.084   .     S
C917   C928    1.400   .     A
C918   C919    1.391   .     A
C918   H931    1.083   .     S
C919   C920    1.419   .     A
C919   H309    1.076   1_556 S
C920   C921    1.413   .     A
C920   C301    1.424   1_556 S
C921   C928    1.406   .     A
C921   C925    1.410   .     A
C922   C926    1.414   .     A
C923   C924    1.390   .     A
C923   C291    1.398   1_556 S
C923   C301    1.427   1_556 S
C924   C925    1.380   .     A
C925   H932    1.083   .     S
C926   N954    1.438   .     S
C933   C941    1.412   .     A
C933   C957    1.518   .     S
C933   C1141   1.382   .     S
C934   H935    1.085   .     S
C934   C936    1.394   .     A
C936   C937    1.389   .     A
C937   H938    1.084   .     S
C939   C941    1.396   .     A
C939   H940    1.085   .     S
C939   C1144   1.368   .     S
C942   N950    1.366   .     A
C942   H943    1.082   .     S
C942   C1013   1.419   .     S
C944   H945    1.082   .     S
C944   N946    1.369   .     A
N946   C947    1.357   .     A
C947   H948    1.082   .     S
C949   N950    1.384   .     A
C949   N951    1.431   .     S
C949   C1016   1.417   .     S
N951   O953    1.301   .     A
N951   O952    1.299   .     A
N954   O955    1.302   .     A
N954   O956    1.302   .     A
C957   H966    1.112   .     S
C957   H965    1.110   .     S
C957   C958    1.534   .     S
C958   H964    1.110   .     S
C958   H963    1.112   .     S
C958   C1028   1.526   .     S
C959   H961    1.111   .     S
C959   H962    1.110   .     S
H960   C1028   1.111   .     S
O967   Zn973   1.984   .     S
O967   C969    1.284   .     A
O968   C969    1.283   .     A
O968   Zn974   1.987   .     S
C969   C1010   1.412   .     S
O970   Zn973   1.978   .     S
O970   C972    1.291   .     A
O971   Zn974   1.931   .     S
O971   C972    1.294   .     A
C972   C997    1.449   .     S
Zn973  O977    1.931   .     S
Zn973  N1015   2.017   .     S
Zn973  O975    1.987   .     S
Zn974  N1019   2.017   .     S
Zn974  O978    1.978   .     S
Zn974  O976    1.984   .     S
O975   C979    1.284   .     A
O976   C979    1.282   .     A
O977   C980    1.294   .     A
O978   C980    1.293   .     A
C979   C1005   1.407   .     S
C980   C985    1.450   .     S
C981   C996    1.383   .     A
H982   C996    1.084   .     S
H983   C993    1.084   .     S
H984   C360    1.084   1_556 S
C985   C996    1.396   .     A
C985   C995    1.408   .     A
C986   C987    1.385   .     A
C986   H998    1.084   .     S
C986   C997    1.400   .     A
C987   C988    1.391   .     A
C987   H1000   1.083   .     S
C988   C989    1.419   .     A
C988   H378    1.076   1_556 S
C989   C990    1.413   .     A
C989   C370    1.424   1_556 S
C990   C997    1.406   .     A
C990   C994    1.410   .     A
C991   C995    1.414   .     A
C992   C993    1.390   .     A
C992   C360    1.398   1_556 S
C992   C370    1.427   1_556 S
C993   C994    1.380   .     A
C994   H1001   1.083   .     S
C995   N1023   1.438   .     S
C1002  C1010   1.412   .     A
C1002  C1026   1.518   .     S
C1002  C1210   1.382   .     S
C1003  H1004   1.085   .     S
C1003  C1005   1.394   .     A
C1005  C1006   1.389   .     A
C1006  H1007   1.084   .     S
C1008  C1010   1.396   .     A
C1008  H1009   1.085   .     S
C1008  C1213   1.368   .     S
C1011  N1019   1.366   .     A
C1011  H1012   1.082   .     S
C1011  C875    1.419   1_655 S
C1013  H1014   1.082   .     S
C1013  N1015   1.369   .     A
N1015  C1016   1.357   .     A
C1016  H1017   1.082   .     S
C1018  N1019   1.384   .     A
C1018  N1020   1.431   .     S
C1018  C878    1.417   1_655 S
N1020  O1022   1.301   .     A
N1020  O1021   1.299   .     A
N1023  O1024   1.302   .     A
N1023  O1025   1.302   .     A
C1026  H1035   1.112   .     S
C1026  H1034   1.110   .     S
C1026  C1027   1.534   .     S
C1027  H1033   1.110   .     S
C1027  H1032   1.112   .     S
C1027  C890    1.526   1_655 S
C1028  H1030   1.111   .     S
C1028  H1031   1.110   .     S
H1029  C890    1.111   1_655 S
O1036  Zn1042  1.984   .     S
O1036  C1038   1.284   .     A
O1037  C1038   1.283   .     A
O1037  Zn1043  1.987   .     S
C1038  C1079   1.412   .     S
O1039  Zn1042  1.978   .     S
O1039  C1041   1.291   .     A
O1040  Zn1043  1.931   .     S
O1040  C1041   1.294   .     A
C1041  C1066   1.449   .     S
Zn1042 O1046   1.931   .     S
Zn1042 N1084   2.017   .     S
Zn1042 O1044   1.987   .     S
Zn1043 N1088   2.017   .     S
Zn1043 O1047   1.978   .     S
Zn1043 O1045   1.984   .     S
O1044  C1048   1.284   .     A
O1045  C1048   1.282   .     A
O1046  C1049   1.294   .     A
O1047  C1049   1.293   .     A
C1048  C1074   1.407   .     S
C1049  C1054   1.450   .     S
C1050  C1065   1.383   .     A
H1051  C1065   1.084   .     S
H1052  C1062   1.084   .     S
H1053  C429    1.084   1_556 S
C1054  C1065   1.396   .     A
C1054  C1064   1.408   .     A
C1055  C1056   1.385   .     A
C1055  H1067   1.084   .     S
C1055  C1066   1.400   .     A
C1056  C1057   1.391   .     A
C1056  H1069   1.083   .     S
C1057  C1058   1.419   .     A
C1057  H447    1.076   1_556 S
C1058  C1059   1.413   .     A
C1058  C439    1.424   1_556 S
C1059  C1066   1.406   .     A
C1059  C1063   1.410   .     A
C1060  C1064   1.414   .     A
C1061  C1062   1.390   .     A
C1061  C429    1.398   1_556 S
C1061  C439    1.427   1_556 S
C1062  C1063   1.380   .     A
C1063  H1070   1.083   .     S
C1064  N1092   1.438   .     S
C1071  C1079   1.412   .     A
C1071  C1095   1.518   .     S
C1071  C658    1.382   1_565 S
C1072  H1073   1.085   .     S
C1072  C1074   1.394   .     A
C1074  C1075   1.389   .     A
C1075  H1076   1.084   .     S
C1077  C1079   1.396   .     A
C1077  H1078   1.085   .     S
C1077  C661    1.368   1_565 S
C1080  N1088   1.366   .     A
C1080  H1081   1.082   .     S
C1080  C1151   1.419   .     S
C1082  H1083   1.082   .     S
C1082  N1084   1.369   .     A
C1082  C1218   1.419   1_455 S
N1084  C1085   1.357   .     A
C1085  H1086   1.082   .     S
C1085  C1225   1.417   1_455 S
C1087  N1088   1.384   .     A
C1087  N1089   1.431   .     S
C1087  C1154   1.417   .     S
N1089  O1091   1.301   .     A
N1089  O1090   1.299   .     A
N1092  O1093   1.302   .     A
N1092  O1094   1.302   .     A
C1095  H1104   1.112   .     S
C1095  H1103   1.110   .     S
C1095  C1096   1.534   .     S
C1096  H1102   1.110   .     S
C1096  H1101   1.112   .     S
C1096  C1166   1.526   .     S
C1097  H1099   1.111   .     S
C1097  H1100   1.110   .     S
C1097  C1234   1.526   1_455 S
C1097  H1236   1.111   1_455 S
H1098  C1166   1.111   .     S
O1105  Zn1111  1.984   .     S
O1105  C1107   1.284   .     A
O1106  C1107   1.283   .     A
O1106  Zn1112  1.987   .     S
C1107  C1148   1.412   .     S
O1108  Zn1111  1.978   .     S
O1108  C1110   1.291   .     A
O1109  Zn1112  1.931   .     S
O1109  C1110   1.294   .     A
C1110  C1135   1.449   .     S
Zn1111 O1115   1.931   .     S
Zn1111 N1153   2.017   .     S
Zn1111 O1113   1.987   .     S
Zn1112 N1157   2.017   .     S
Zn1112 O1116   1.978   .     S
Zn1112 O1114   1.984   .     S
O1113  C1117   1.284   .     A
O1114  C1117   1.282   .     A
O1115  C1118   1.294   .     A
O1116  C1118   1.293   .     A
C1117  C1143   1.407   .     S
C1118  C1123   1.450   .     S
C1119  C1134   1.383   .     A
H1120  C1134   1.084   .     S
H1121  C1131   1.084   .     S
H1122  C498    1.084   1_556 S
C1123  C1134   1.396   .     A
C1123  C1133   1.408   .     A
C1124  C1125   1.385   .     A
C1124  H1136   1.084   .     S
C1124  C1135   1.400   .     A
C1125  C1126   1.391   .     A
C1125  H1138   1.083   .     S
C1126  C1127   1.419   .     A
C1126  H516    1.076   1_556 S
C1127  C1128   1.413   .     A
C1127  C508    1.424   1_556 S
C1128  C1135   1.406   .     A
C1128  C1132   1.410   .     A
C1129  C1133   1.414   .     A
C1130  C1131   1.390   .     A
C1130  C498    1.398   1_556 S
C1130  C508    1.427   1_556 S
C1131  C1132   1.380   .     A
C1132  H1139   1.083   .     S
C1133  N1161   1.438   .     S
C1140  C1148   1.412   .     A
C1140  C1164   1.518   .     S
C1140  C727    1.382   1_565 S
C1141  H1142   1.085   .     S
C1141  C1143   1.394   .     A
C1143  C1144   1.389   .     A
C1144  H1145   1.084   .     S
C1146  C1148   1.396   .     A
C1146  H1147   1.085   .     S
C1146  C730    1.368   1_565 S
C1149  N1157   1.366   .     A
C1149  H1150   1.082   .     S
C1149  C1220   1.419   .     S
C1151  H1152   1.082   .     S
C1151  N1153   1.369   .     A
N1153  C1154   1.357   .     A
C1154  H1155   1.082   .     S
C1156  N1157   1.384   .     A
C1156  N1158   1.431   .     S
C1156  C1223   1.417   .     S
N1158  O1160   1.301   .     A
N1158  O1159   1.299   .     A
N1161  O1162   1.302   .     A
N1161  O1163   1.302   .     A
C1164  H1173   1.112   .     S
C1164  H1172   1.110   .     S
C1164  C1165   1.534   .     S
C1165  H1171   1.110   .     S
C1165  H1170   1.112   .     S
C1165  C1235   1.526   .     S
C1166  H1168   1.111   .     S
C1166  H1169   1.110   .     S
H1167  C1235   1.111   .     S
O1174  Zn1180  1.984   .     S
O1174  C1176   1.284   .     A
O1175  C1176   1.283   .     A
O1175  Zn1181  1.987   .     S
C1176  C1217   1.412   .     S
O1177  Zn1180  1.978   .     S
O1177  C1179   1.291   .     A
O1178  Zn1181  1.931   .     S
O1178  C1179   1.294   .     A
C1179  C1204   1.449   .     S
Zn1180 O1184   1.931   .     S
Zn1180 N1222   2.017   .     S
Zn1180 O1182   1.987   .     S
Zn1181 N1226   2.017   .     S
Zn1181 O1185   1.978   .     S
Zn1181 O1183   1.984   .     S
O1182  C1186   1.284   .     A
O1183  C1186   1.282   .     A
O1184  C1187   1.294   .     A
O1185  C1187   1.293   .     A
C1186  C1212   1.407   .     S
C1187  C1192   1.450   .     S
C1188  C1203   1.383   .     A
H1189  C1203   1.084   .     S
H1190  C1200   1.084   .     S
H1191  C567    1.084   1_556 S
C1192  C1203   1.396   .     A
C1192  C1202   1.408   .     A
C1193  C1194   1.385   .     A
C1193  H1205   1.084   .     S
C1193  C1204   1.400   .     A
C1194  C1195   1.391   .     A
C1194  H1207   1.083   .     S
C1195  C1196   1.419   .     A
C1195  H585    1.076   1_556 S
C1196  C1197   1.413   .     A
C1196  C577    1.424   1_556 S
C1197  C1204   1.406   .     A
C1197  C1201   1.410   .     A
C1198  C1202   1.414   .     A
C1199  C1200   1.390   .     A
C1199  C567    1.398   1_556 S
C1199  C577    1.427   1_556 S
C1200  C1201   1.380   .     A
C1201  H1208   1.083   .     S
C1202  N1230   1.438   .     S
C1209  C1217   1.412   .     A
C1209  C1233   1.518   .     S
C1209  C796    1.382   1_565 S
C1210  H1211   1.085   .     S
C1210  C1212   1.394   .     A
C1212  C1213   1.389   .     A
C1213  H1214   1.084   .     S
C1215  C1217   1.396   .     A
C1215  H1216   1.085   .     S
C1215  C799    1.368   1_565 S
C1218  N1226   1.366   .     A
C1218  H1219   1.082   .     S
C1218  C1082   1.419   1_655 S
C1220  H1221   1.082   .     S
C1220  N1222   1.369   .     A
N1222  C1223   1.357   .     A
C1223  H1224   1.082   .     S
C1225  N1226   1.384   .     A
C1225  N1227   1.431   .     S
C1225  C1085   1.417   1_655 S
N1227  O1229   1.301   .     A
N1227  O1228   1.299   .     A
N1230  O1231   1.302   .     A
N1230  O1232   1.302   .     A
C1233  H1242   1.112   .     S
C1233  H1241   1.110   .     S
C1233  C1234   1.534   .     S
C1234  H1240   1.110   .     S
C1234  H1239   1.112   .     S
C1234  C1097   1.526   1_655 S
C1235  H1237   1.111   .     S
C1235  H1238   1.110   .     S
H1236  C1097   1.111   1_655 S
