data_str_m3_o1_o16_pcu_sym.96
_audit_creation_date              2020-01-03
_audit_creation_method            'Materials Studio'
_symmetry_space_group_name_H-M    'P1'
_symmetry_Int_Tables_number       1
_symmetry_cell_setting            triclinic
loop_
_symmetry_equiv_pos_as_xyz
  x,y,z
_cell_length_a                    29.5942
_cell_length_b                    32.0535
_cell_length_c                    26.1943
_cell_angle_alpha                 90.2045
_cell_angle_beta                  70.0364
_cell_angle_gamma                 89.5391
loop_
_atom_site_label
_atom_site_type_symbol
_atom_site_fract_x
_atom_site_fract_y
_atom_site_fract_z
_atom_site_U_iso_or_equiv
_atom_site_adp_type
_atom_site_occupancy
O1     O     0.12846   0.22775   0.25001   0.00000  Uiso   1.00
O2     O     0.20490   0.22774   0.25001   0.00000  Uiso   1.00
C3     C     0.16655   0.24666   0.25008   0.00000  Uiso   1.00
O4     O     0.10947   0.16666   0.32681   0.00000  Uiso   1.00
O5     O     0.18591   0.16665   0.32681   0.00000  Uiso   1.00
C6     C     0.13979   0.16731   0.35235   0.00000  Uiso   1.00
Zn7    Zn    0.11562   0.16667   0.25000   0.00000  Uiso   1.00
Zn8    Zn    0.21771   0.16666   0.25000   0.00000  Uiso   1.00
O9     O     0.12843   0.10559   0.25000   0.00000  Uiso   1.00
O10    O     0.20488   0.10558   0.25000   0.00000  Uiso   1.00
O11    O     0.14742   0.16668   0.17319   0.00000  Uiso   1.00
O12    O     0.22387   0.16667   0.17319   0.00000  Uiso   1.00
C13    C     0.16683   0.08666   0.24982   0.00000  Uiso   1.00
C14    C     0.19344   0.16763   0.14775   0.00000  Uiso   1.00
C15    C     0.25110   0.22080   0.01373   0.00000  Uiso   1.00
H16    H     0.24622   0.24960   0.41836   0.00000  Uiso   1.00
C17    C     0.20962   0.17589   0.08962   0.00000  Uiso   1.00
C18    C     0.07913   0.14649   0.44159   0.00000  Uiso   1.00
C19    C     0.06681   0.14252   0.49765   0.00000  Uiso   1.00
C20    C     0.09849   0.15516   0.02329   0.00000  Uiso   1.00
C21    C     0.14218   0.17476   0.49370   0.00000  Uiso   1.00
C22    C     0.15010   0.18616   0.43961   0.00000  Uiso   1.00
C23    C     0.17826   0.18349   0.01618   0.00000  Uiso   1.00
C24    C     0.21623   0.21108   0.48969   0.00000  Uiso   1.00
C25    C     0.21867   0.22776   0.43952   0.00000  Uiso   1.00
C26    C     0.18655   0.21511   0.41450   0.00000  Uiso   1.00
C27    C     0.17810   0.16407   0.06355   0.00000  Uiso   1.00
C28    C     0.24754   0.20337   0.06421   0.00000  Uiso   1.00
C29    C     0.12179   0.16781   0.41187   0.00000  Uiso   1.00
H30    H     0.15200   0.14042   0.08255   0.00000  Uiso   1.00
H31    H     0.08751   0.15017   0.06656   0.00000  Uiso   1.00
H32    H     0.03388   0.12706   0.02108   0.00000  Uiso   1.00
H33    H     0.19019   0.22875   0.37558   0.00000  Uiso   1.00
C34    C     0.19861   0.31175   0.26955   0.00000  Uiso   1.00
H35    H     0.22292   0.29518   0.28549   0.00000  Uiso   1.00
C36    C     0.19893   0.02117   0.26918   0.00000  Uiso   1.00
H37    H     0.22346   0.03745   0.28482   0.00000  Uiso   1.00
C38    C     0.16704   0.04250   0.24953   0.00000  Uiso   1.00
C39    C     0.13504   0.02154   0.22993   0.00000  Uiso   1.00
H40    H     0.11059   0.03811   0.21420   0.00000  Uiso   1.00
C41    C     0.13492   0.31212   0.23000   0.00000  Uiso   1.00
H42    H     0.11045   0.29583   0.21429   0.00000  Uiso   1.00
C43    C     0.16656   0.29080   0.25000   0.00000  Uiso   1.00
C44    C     0.31515   0.13269   0.23200   0.00000  Uiso   1.00
H45    H     0.30183   0.10549   0.21733   0.00000  Uiso   1.00
C46    C     0.02967   0.13270   0.23199   0.00000  Uiso   1.00
H47    H     0.05235   0.10555   0.21720   0.00000  Uiso   1.00
N48    N     0.04760   0.16668   0.25002   0.00000  Uiso   1.00
C49    C     0.01807   0.20078   0.26859   0.00000  Uiso   1.00
C50    C     0.30344   0.20065   0.26796   0.00000  Uiso   1.00
H51    H     0.28076   0.22800   0.28083   0.00000  Uiso   1.00
N52    N     0.28573   0.16665   0.25001   0.00000  Uiso   1.00
N53    N     0.28014   0.21614   0.09100   0.00000  Uiso   1.00
O54    O     0.28348   0.25537   0.10202   0.00000  Uiso   1.00
O55    O     0.30992   0.18921   0.09940   0.00000  Uiso   1.00
O56    O     0.03727   0.23666   0.28182   0.00000  Uiso   1.00
C57    C     0.01131   0.24957   0.33545   0.00000  Uiso   1.00
H58    H     0.00321   0.22288   0.36431   0.00000  Uiso   1.00
H59    H     0.31075   0.26556   0.33701   0.00000  Uiso   1.00
C60    C     0.04151   0.28077   0.35336   0.00000  Uiso   1.00
H61    H     0.05058   0.30758   0.32506   0.00000  Uiso   1.00
H62    H     0.02123   0.29282   0.39458   0.00000  Uiso   1.00
H63    H     0.07519   0.26557   0.35394   0.00000  Uiso   1.00
N64    N     0.28912   0.24934   0.48830   0.00000  Uiso   1.00
O65    O     0.00025   0.23841   0.47963   0.00000  Uiso   1.00
O66    O     0.27888   0.28819   0.48243   0.00000  Uiso   1.00
N67    N     0.04907   0.12712   0.41562   0.00000  Uiso   1.00
O68    O     0.06649   0.09745   0.38011   0.00000  Uiso   1.00
O69    O     0.00273   0.13284   0.43533   0.00000  Uiso   1.00
O70    O     0.46179   0.22775   0.25001   0.00000  Uiso   1.00
O71    O     0.53823   0.22774   0.25001   0.00000  Uiso   1.00
C72    C     0.49989   0.24666   0.25008   0.00000  Uiso   1.00
O73    O     0.44280   0.16666   0.32681   0.00000  Uiso   1.00
O74    O     0.51924   0.16665   0.32681   0.00000  Uiso   1.00
C75    C     0.47312   0.16731   0.35235   0.00000  Uiso   1.00
Zn76   Zn    0.44896   0.16667   0.25000   0.00000  Uiso   1.00
Zn77   Zn    0.55104   0.16666   0.25000   0.00000  Uiso   1.00
O78    O     0.46177   0.10559   0.25000   0.00000  Uiso   1.00
O79    O     0.53821   0.10558   0.25000   0.00000  Uiso   1.00
O80    O     0.48076   0.16668   0.17319   0.00000  Uiso   1.00
O81    O     0.55720   0.16667   0.17319   0.00000  Uiso   1.00
C82    C     0.50016   0.08666   0.24982   0.00000  Uiso   1.00
C83    C     0.52677   0.16763   0.14775   0.00000  Uiso   1.00
C84    C     0.58443   0.22080   0.01373   0.00000  Uiso   1.00
H85    H     0.57955   0.24960   0.41836   0.00000  Uiso   1.00
C86    C     0.54296   0.17589   0.08962   0.00000  Uiso   1.00
C87    C     0.41246   0.14649   0.44159   0.00000  Uiso   1.00
C88    C     0.40015   0.14252   0.49765   0.00000  Uiso   1.00
C89    C     0.43182   0.15516   0.02329   0.00000  Uiso   1.00
C90    C     0.47551   0.17476   0.49370   0.00000  Uiso   1.00
C91    C     0.48344   0.18616   0.43961   0.00000  Uiso   1.00
C92    C     0.51159   0.18349   0.01618   0.00000  Uiso   1.00
C93    C     0.54956   0.21108   0.48969   0.00000  Uiso   1.00
C94    C     0.55200   0.22776   0.43952   0.00000  Uiso   1.00
C95    C     0.51989   0.21511   0.41450   0.00000  Uiso   1.00
C96    C     0.51143   0.16407   0.06355   0.00000  Uiso   1.00
C97    C     0.58087   0.20337   0.06421   0.00000  Uiso   1.00
C98    C     0.45512   0.16781   0.41187   0.00000  Uiso   1.00
H99    H     0.48533   0.14042   0.08255   0.00000  Uiso   1.00
H100   H     0.42085   0.15017   0.06656   0.00000  Uiso   1.00
H101   H     0.36722   0.12706   0.02108   0.00000  Uiso   1.00
H102   H     0.52352   0.22875   0.37558   0.00000  Uiso   1.00
C103   C     0.53194   0.31175   0.26955   0.00000  Uiso   1.00
H104   H     0.55626   0.29518   0.28549   0.00000  Uiso   1.00
C105   C     0.53227   0.02117   0.26918   0.00000  Uiso   1.00
H106   H     0.55679   0.03745   0.28482   0.00000  Uiso   1.00
C107   C     0.50038   0.04250   0.24953   0.00000  Uiso   1.00
C108   C     0.46837   0.02154   0.22993   0.00000  Uiso   1.00
H109   H     0.44393   0.03811   0.21420   0.00000  Uiso   1.00
C110   C     0.46825   0.31212   0.23000   0.00000  Uiso   1.00
H111   H     0.44378   0.29583   0.21429   0.00000  Uiso   1.00
C112   C     0.49990   0.29080   0.25000   0.00000  Uiso   1.00
C113   C     0.64849   0.13269   0.23200   0.00000  Uiso   1.00
H114   H     0.63517   0.10549   0.21733   0.00000  Uiso   1.00
C115   C     0.36300   0.13270   0.23199   0.00000  Uiso   1.00
H116   H     0.38569   0.10555   0.21720   0.00000  Uiso   1.00
N117   N     0.38093   0.16668   0.25002   0.00000  Uiso   1.00
C118   C     0.35140   0.20078   0.26859   0.00000  Uiso   1.00
C119   C     0.63678   0.20065   0.26796   0.00000  Uiso   1.00
H120   H     0.61409   0.22800   0.28083   0.00000  Uiso   1.00
N121   N     0.61906   0.16665   0.25001   0.00000  Uiso   1.00
N122   N     0.61347   0.21614   0.09100   0.00000  Uiso   1.00
O123   O     0.61682   0.25537   0.10202   0.00000  Uiso   1.00
O124   O     0.64326   0.18921   0.09940   0.00000  Uiso   1.00
O125   O     0.37060   0.23666   0.28182   0.00000  Uiso   1.00
C126   C     0.34465   0.24957   0.33545   0.00000  Uiso   1.00
H127   H     0.33654   0.22288   0.36431   0.00000  Uiso   1.00
H128   H     0.64408   0.26556   0.33701   0.00000  Uiso   1.00
C129   C     0.37484   0.28077   0.35336   0.00000  Uiso   1.00
H130   H     0.38391   0.30758   0.32506   0.00000  Uiso   1.00
H131   H     0.35456   0.29282   0.39458   0.00000  Uiso   1.00
H132   H     0.40853   0.26557   0.35394   0.00000  Uiso   1.00
N133   N     0.62246   0.24934   0.48830   0.00000  Uiso   1.00
O134   O     0.33358   0.23841   0.47963   0.00000  Uiso   1.00
O135   O     0.61222   0.28819   0.48243   0.00000  Uiso   1.00
N136   N     0.38241   0.12712   0.41562   0.00000  Uiso   1.00
O137   O     0.39983   0.09745   0.38011   0.00000  Uiso   1.00
O138   O     0.33606   0.13284   0.43533   0.00000  Uiso   1.00
O139   O     0.79512   0.22775   0.25001   0.00000  Uiso   1.00
O140   O     0.87157   0.22774   0.25001   0.00000  Uiso   1.00
C141   C     0.83322   0.24666   0.25008   0.00000  Uiso   1.00
O142   O     0.77613   0.16666   0.32681   0.00000  Uiso   1.00
O143   O     0.85258   0.16665   0.32681   0.00000  Uiso   1.00
C144   C     0.80646   0.16731   0.35235   0.00000  Uiso   1.00
Zn145  Zn    0.78229   0.16667   0.25000   0.00000  Uiso   1.00
Zn146  Zn    0.88438   0.16666   0.25000   0.00000  Uiso   1.00
O147   O     0.79510   0.10559   0.25000   0.00000  Uiso   1.00
O148   O     0.87154   0.10558   0.25000   0.00000  Uiso   1.00
O149   O     0.81409   0.16668   0.17319   0.00000  Uiso   1.00
O150   O     0.89053   0.16667   0.17319   0.00000  Uiso   1.00
C151   C     0.83350   0.08666   0.24982   0.00000  Uiso   1.00
C152   C     0.86010   0.16763   0.14775   0.00000  Uiso   1.00
C153   C     0.91777   0.22080   0.01373   0.00000  Uiso   1.00
H154   H     0.91288   0.24960   0.41836   0.00000  Uiso   1.00
C155   C     0.87629   0.17589   0.08962   0.00000  Uiso   1.00
C156   C     0.74580   0.14649   0.44159   0.00000  Uiso   1.00
C157   C     0.73348   0.14252   0.49765   0.00000  Uiso   1.00
C158   C     0.76516   0.15516   0.02329   0.00000  Uiso   1.00
C159   C     0.80884   0.17476   0.49370   0.00000  Uiso   1.00
C160   C     0.81677   0.18616   0.43961   0.00000  Uiso   1.00
C161   C     0.84492   0.18349   0.01618   0.00000  Uiso   1.00
C162   C     0.88289   0.21108   0.48969   0.00000  Uiso   1.00
C163   C     0.88534   0.22776   0.43952   0.00000  Uiso   1.00
C164   C     0.85322   0.21511   0.41450   0.00000  Uiso   1.00
C165   C     0.84477   0.16407   0.06355   0.00000  Uiso   1.00
C166   C     0.91420   0.20337   0.06421   0.00000  Uiso   1.00
C167   C     0.78845   0.16781   0.41187   0.00000  Uiso   1.00
H168   H     0.81867   0.14042   0.08255   0.00000  Uiso   1.00
H169   H     0.75418   0.15017   0.06656   0.00000  Uiso   1.00
H170   H     0.70055   0.12706   0.02108   0.00000  Uiso   1.00
H171   H     0.85686   0.22875   0.37558   0.00000  Uiso   1.00
C172   C     0.86528   0.31175   0.26955   0.00000  Uiso   1.00
H173   H     0.88959   0.29518   0.28549   0.00000  Uiso   1.00
C174   C     0.86560   0.02117   0.26918   0.00000  Uiso   1.00
H175   H     0.89013   0.03745   0.28482   0.00000  Uiso   1.00
C176   C     0.83371   0.04250   0.24953   0.00000  Uiso   1.00
C177   C     0.80171   0.02154   0.22993   0.00000  Uiso   1.00
H178   H     0.77726   0.03811   0.21420   0.00000  Uiso   1.00
C179   C     0.80159   0.31212   0.23000   0.00000  Uiso   1.00
H180   H     0.77711   0.29583   0.21429   0.00000  Uiso   1.00
C181   C     0.83323   0.29080   0.25000   0.00000  Uiso   1.00
C182   C     0.98182   0.13269   0.23200   0.00000  Uiso   1.00
H183   H     0.96850   0.10549   0.21733   0.00000  Uiso   1.00
C184   C     0.69633   0.13270   0.23199   0.00000  Uiso   1.00
H185   H     0.71902   0.10555   0.21720   0.00000  Uiso   1.00
N186   N     0.71426   0.16668   0.25002   0.00000  Uiso   1.00
C187   C     0.68474   0.20078   0.26859   0.00000  Uiso   1.00
C188   C     0.97011   0.20065   0.26796   0.00000  Uiso   1.00
H189   H     0.94742   0.22800   0.28083   0.00000  Uiso   1.00
N190   N     0.95239   0.16665   0.25001   0.00000  Uiso   1.00
N191   N     0.94681   0.21614   0.09100   0.00000  Uiso   1.00
O192   O     0.95015   0.25537   0.10202   0.00000  Uiso   1.00
O193   O     0.97659   0.18921   0.09940   0.00000  Uiso   1.00
O194   O     0.70394   0.23666   0.28182   0.00000  Uiso   1.00
C195   C     0.67798   0.24957   0.33545   0.00000  Uiso   1.00
H196   H     0.66987   0.22288   0.36431   0.00000  Uiso   1.00
H197   H     0.97742   0.26556   0.33701   0.00000  Uiso   1.00
C198   C     0.70817   0.28077   0.35336   0.00000  Uiso   1.00
H199   H     0.71724   0.30758   0.32506   0.00000  Uiso   1.00
H200   H     0.68789   0.29282   0.39458   0.00000  Uiso   1.00
H201   H     0.74186   0.26557   0.35394   0.00000  Uiso   1.00
N202   N     0.95579   0.24934   0.48830   0.00000  Uiso   1.00
O203   O     0.66692   0.23841   0.47963   0.00000  Uiso   1.00
O204   O     0.94555   0.28819   0.48243   0.00000  Uiso   1.00
N205   N     0.71574   0.12712   0.41562   0.00000  Uiso   1.00
O206   O     0.73316   0.09745   0.38011   0.00000  Uiso   1.00
O207   O     0.66939   0.13284   0.43533   0.00000  Uiso   1.00
O208   O     0.12846   0.56108   0.25001   0.00000  Uiso   1.00
O209   O     0.20490   0.56107   0.25001   0.00000  Uiso   1.00
C210   C     0.16655   0.57999   0.25008   0.00000  Uiso   1.00
O211   O     0.10947   0.50000   0.32681   0.00000  Uiso   1.00
O212   O     0.18591   0.49999   0.32681   0.00000  Uiso   1.00
C213   C     0.13979   0.50065   0.35235   0.00000  Uiso   1.00
Zn214  Zn    0.11562   0.50001   0.25000   0.00000  Uiso   1.00
Zn215  Zn    0.21771   0.49999   0.25000   0.00000  Uiso   1.00
O216   O     0.12843   0.43893   0.25000   0.00000  Uiso   1.00
O217   O     0.20488   0.43892   0.25000   0.00000  Uiso   1.00
O218   O     0.14742   0.50001   0.17319   0.00000  Uiso   1.00
O219   O     0.22387   0.50000   0.17319   0.00000  Uiso   1.00
C220   C     0.16683   0.42000   0.24982   0.00000  Uiso   1.00
C221   C     0.19344   0.50097   0.14775   0.00000  Uiso   1.00
C222   C     0.25110   0.55414   0.01373   0.00000  Uiso   1.00
H223   H     0.24622   0.58293   0.41836   0.00000  Uiso   1.00
C224   C     0.20962   0.50923   0.08962   0.00000  Uiso   1.00
C225   C     0.07913   0.47982   0.44159   0.00000  Uiso   1.00
C226   C     0.06681   0.47585   0.49765   0.00000  Uiso   1.00
C227   C     0.09849   0.48849   0.02329   0.00000  Uiso   1.00
C228   C     0.14218   0.50810   0.49370   0.00000  Uiso   1.00
C229   C     0.15010   0.51949   0.43961   0.00000  Uiso   1.00
C230   C     0.17826   0.51682   0.01618   0.00000  Uiso   1.00
C231   C     0.21623   0.54441   0.48969   0.00000  Uiso   1.00
C232   C     0.21867   0.56110   0.43952   0.00000  Uiso   1.00
C233   C     0.18655   0.54845   0.41450   0.00000  Uiso   1.00
C234   C     0.17810   0.49740   0.06355   0.00000  Uiso   1.00
C235   C     0.24754   0.53671   0.06421   0.00000  Uiso   1.00
C236   C     0.12179   0.50115   0.41187   0.00000  Uiso   1.00
H237   H     0.15200   0.47376   0.08255   0.00000  Uiso   1.00
H238   H     0.08751   0.48350   0.06656   0.00000  Uiso   1.00
H239   H     0.03388   0.46040   0.02108   0.00000  Uiso   1.00
H240   H     0.19019   0.56208   0.37558   0.00000  Uiso   1.00
C241   C     0.19861   0.64508   0.26955   0.00000  Uiso   1.00
H242   H     0.22292   0.62851   0.28549   0.00000  Uiso   1.00
C243   C     0.19893   0.35450   0.26918   0.00000  Uiso   1.00
H244   H     0.22346   0.37078   0.28482   0.00000  Uiso   1.00
C245   C     0.16704   0.37584   0.24953   0.00000  Uiso   1.00
C246   C     0.13504   0.35487   0.22993   0.00000  Uiso   1.00
H247   H     0.11059   0.37144   0.21420   0.00000  Uiso   1.00
C248   C     0.13492   0.64545   0.23000   0.00000  Uiso   1.00
H249   H     0.11045   0.62916   0.21429   0.00000  Uiso   1.00
C250   C     0.16656   0.62413   0.25000   0.00000  Uiso   1.00
C251   C     0.31515   0.46602   0.23200   0.00000  Uiso   1.00
H252   H     0.30183   0.43882   0.21733   0.00000  Uiso   1.00
C253   C     0.02967   0.46603   0.23199   0.00000  Uiso   1.00
H254   H     0.05235   0.43888   0.21720   0.00000  Uiso   1.00
N255   N     0.04760   0.50001   0.25002   0.00000  Uiso   1.00
C256   C     0.01807   0.53411   0.26859   0.00000  Uiso   1.00
C257   C     0.30344   0.53398   0.26796   0.00000  Uiso   1.00
H258   H     0.28076   0.56134   0.28083   0.00000  Uiso   1.00
N259   N     0.28573   0.49998   0.25001   0.00000  Uiso   1.00
N260   N     0.28014   0.54948   0.09100   0.00000  Uiso   1.00
O261   O     0.28348   0.58870   0.10202   0.00000  Uiso   1.00
O262   O     0.30992   0.52254   0.09940   0.00000  Uiso   1.00
O263   O     0.03727   0.57000   0.28182   0.00000  Uiso   1.00
C264   C     0.01131   0.58291   0.33545   0.00000  Uiso   1.00
H265   H     0.00321   0.55621   0.36431   0.00000  Uiso   1.00
H266   H     0.31075   0.59889   0.33701   0.00000  Uiso   1.00
C267   C     0.04151   0.61411   0.35336   0.00000  Uiso   1.00
H268   H     0.05058   0.64091   0.32506   0.00000  Uiso   1.00
H269   H     0.02123   0.62616   0.39458   0.00000  Uiso   1.00
H270   H     0.07519   0.59891   0.35394   0.00000  Uiso   1.00
N271   N     0.28912   0.58268   0.48830   0.00000  Uiso   1.00
O272   O     0.00025   0.57175   0.47963   0.00000  Uiso   1.00
O273   O     0.27888   0.62152   0.48243   0.00000  Uiso   1.00
N274   N     0.04907   0.46045   0.41562   0.00000  Uiso   1.00
O275   O     0.06649   0.43078   0.38011   0.00000  Uiso   1.00
O276   O     0.00273   0.46617   0.43533   0.00000  Uiso   1.00
O277   O     0.46179   0.56108   0.25001   0.00000  Uiso   1.00
O278   O     0.53823   0.56107   0.25001   0.00000  Uiso   1.00
C279   C     0.49989   0.57999   0.25008   0.00000  Uiso   1.00
O280   O     0.44280   0.50000   0.32681   0.00000  Uiso   1.00
O281   O     0.51924   0.49999   0.32681   0.00000  Uiso   1.00
C282   C     0.47312   0.50065   0.35235   0.00000  Uiso   1.00
Zn283  Zn    0.44896   0.50001   0.25000   0.00000  Uiso   1.00
Zn284  Zn    0.55104   0.49999   0.25000   0.00000  Uiso   1.00
O285   O     0.46177   0.43893   0.25000   0.00000  Uiso   1.00
O286   O     0.53821   0.43892   0.25000   0.00000  Uiso   1.00
O287   O     0.48076   0.50001   0.17319   0.00000  Uiso   1.00
O288   O     0.55720   0.50000   0.17319   0.00000  Uiso   1.00
C289   C     0.50016   0.42000   0.24982   0.00000  Uiso   1.00
C290   C     0.52677   0.50097   0.14775   0.00000  Uiso   1.00
C291   C     0.58443   0.55414   0.01373   0.00000  Uiso   1.00
H292   H     0.57955   0.58293   0.41836   0.00000  Uiso   1.00
C293   C     0.54296   0.50923   0.08962   0.00000  Uiso   1.00
C294   C     0.41246   0.47982   0.44159   0.00000  Uiso   1.00
C295   C     0.40015   0.47585   0.49765   0.00000  Uiso   1.00
C296   C     0.43182   0.48849   0.02329   0.00000  Uiso   1.00
C297   C     0.47551   0.50810   0.49370   0.00000  Uiso   1.00
C298   C     0.48344   0.51949   0.43961   0.00000  Uiso   1.00
C299   C     0.51159   0.51682   0.01618   0.00000  Uiso   1.00
C300   C     0.54956   0.54441   0.48969   0.00000  Uiso   1.00
C301   C     0.55200   0.56110   0.43952   0.00000  Uiso   1.00
C302   C     0.51989   0.54845   0.41450   0.00000  Uiso   1.00
C303   C     0.51143   0.49740   0.06355   0.00000  Uiso   1.00
C304   C     0.58087   0.53671   0.06421   0.00000  Uiso   1.00
C305   C     0.45512   0.50115   0.41187   0.00000  Uiso   1.00
H306   H     0.48533   0.47376   0.08255   0.00000  Uiso   1.00
H307   H     0.42085   0.48350   0.06656   0.00000  Uiso   1.00
H308   H     0.36722   0.46040   0.02108   0.00000  Uiso   1.00
H309   H     0.52352   0.56208   0.37558   0.00000  Uiso   1.00
C310   C     0.53194   0.64508   0.26955   0.00000  Uiso   1.00
H311   H     0.55626   0.62851   0.28549   0.00000  Uiso   1.00
C312   C     0.53227   0.35450   0.26918   0.00000  Uiso   1.00
H313   H     0.55679   0.37078   0.28482   0.00000  Uiso   1.00
C314   C     0.50038   0.37584   0.24953   0.00000  Uiso   1.00
C315   C     0.46837   0.35487   0.22993   0.00000  Uiso   1.00
H316   H     0.44393   0.37144   0.21420   0.00000  Uiso   1.00
C317   C     0.46825   0.64545   0.23000   0.00000  Uiso   1.00
H318   H     0.44378   0.62916   0.21429   0.00000  Uiso   1.00
C319   C     0.49990   0.62413   0.25000   0.00000  Uiso   1.00
C320   C     0.64849   0.46602   0.23200   0.00000  Uiso   1.00
H321   H     0.63517   0.43882   0.21733   0.00000  Uiso   1.00
C322   C     0.36300   0.46603   0.23199   0.00000  Uiso   1.00
H323   H     0.38569   0.43888   0.21720   0.00000  Uiso   1.00
N324   N     0.38093   0.50001   0.25002   0.00000  Uiso   1.00
C325   C     0.35140   0.53411   0.26859   0.00000  Uiso   1.00
C326   C     0.63678   0.53398   0.26796   0.00000  Uiso   1.00
H327   H     0.61409   0.56134   0.28083   0.00000  Uiso   1.00
N328   N     0.61906   0.49998   0.25001   0.00000  Uiso   1.00
N329   N     0.61347   0.54948   0.09100   0.00000  Uiso   1.00
O330   O     0.61682   0.58870   0.10202   0.00000  Uiso   1.00
O331   O     0.64326   0.52254   0.09940   0.00000  Uiso   1.00
O332   O     0.37060   0.57000   0.28182   0.00000  Uiso   1.00
C333   C     0.34465   0.58291   0.33545   0.00000  Uiso   1.00
H334   H     0.33654   0.55621   0.36431   0.00000  Uiso   1.00
H335   H     0.64408   0.59889   0.33701   0.00000  Uiso   1.00
C336   C     0.37484   0.61411   0.35336   0.00000  Uiso   1.00
H337   H     0.38391   0.64091   0.32506   0.00000  Uiso   1.00
H338   H     0.35456   0.62616   0.39458   0.00000  Uiso   1.00
H339   H     0.40853   0.59891   0.35394   0.00000  Uiso   1.00
N340   N     0.62246   0.58268   0.48830   0.00000  Uiso   1.00
O341   O     0.33358   0.57175   0.47963   0.00000  Uiso   1.00
O342   O     0.61222   0.62152   0.48243   0.00000  Uiso   1.00
N343   N     0.38241   0.46045   0.41562   0.00000  Uiso   1.00
O344   O     0.39983   0.43078   0.38011   0.00000  Uiso   1.00
O345   O     0.33606   0.46617   0.43533   0.00000  Uiso   1.00
O346   O     0.79512   0.56108   0.25001   0.00000  Uiso   1.00
O347   O     0.87157   0.56107   0.25001   0.00000  Uiso   1.00
C348   C     0.83322   0.57999   0.25008   0.00000  Uiso   1.00
O349   O     0.77613   0.50000   0.32681   0.00000  Uiso   1.00
O350   O     0.85258   0.49999   0.32681   0.00000  Uiso   1.00
C351   C     0.80646   0.50065   0.35235   0.00000  Uiso   1.00
Zn352  Zn    0.78229   0.50001   0.25000   0.00000  Uiso   1.00
Zn353  Zn    0.88438   0.49999   0.25000   0.00000  Uiso   1.00
O354   O     0.79510   0.43893   0.25000   0.00000  Uiso   1.00
O355   O     0.87154   0.43892   0.25000   0.00000  Uiso   1.00
O356   O     0.81409   0.50001   0.17319   0.00000  Uiso   1.00
O357   O     0.89053   0.50000   0.17319   0.00000  Uiso   1.00
C358   C     0.83350   0.42000   0.24982   0.00000  Uiso   1.00
C359   C     0.86010   0.50097   0.14775   0.00000  Uiso   1.00
C360   C     0.91777   0.55414   0.01373   0.00000  Uiso   1.00
H361   H     0.91288   0.58293   0.41836   0.00000  Uiso   1.00
C362   C     0.87629   0.50923   0.08962   0.00000  Uiso   1.00
C363   C     0.74580   0.47982   0.44159   0.00000  Uiso   1.00
C364   C     0.73348   0.47585   0.49765   0.00000  Uiso   1.00
C365   C     0.76516   0.48849   0.02329   0.00000  Uiso   1.00
C366   C     0.80884   0.50810   0.49370   0.00000  Uiso   1.00
C367   C     0.81677   0.51949   0.43961   0.00000  Uiso   1.00
C368   C     0.84492   0.51682   0.01618   0.00000  Uiso   1.00
C369   C     0.88289   0.54441   0.48969   0.00000  Uiso   1.00
C370   C     0.88534   0.56110   0.43952   0.00000  Uiso   1.00
C371   C     0.85322   0.54845   0.41450   0.00000  Uiso   1.00
C372   C     0.84477   0.49740   0.06355   0.00000  Uiso   1.00
C373   C     0.91420   0.53671   0.06421   0.00000  Uiso   1.00
C374   C     0.78845   0.50115   0.41187   0.00000  Uiso   1.00
H375   H     0.81867   0.47376   0.08255   0.00000  Uiso   1.00
H376   H     0.75418   0.48350   0.06656   0.00000  Uiso   1.00
H377   H     0.70055   0.46040   0.02108   0.00000  Uiso   1.00
H378   H     0.85686   0.56208   0.37558   0.00000  Uiso   1.00
C379   C     0.86528   0.64508   0.26955   0.00000  Uiso   1.00
H380   H     0.88959   0.62851   0.28549   0.00000  Uiso   1.00
C381   C     0.86560   0.35450   0.26918   0.00000  Uiso   1.00
H382   H     0.89013   0.37078   0.28482   0.00000  Uiso   1.00
C383   C     0.83371   0.37584   0.24953   0.00000  Uiso   1.00
C384   C     0.80171   0.35487   0.22993   0.00000  Uiso   1.00
H385   H     0.77726   0.37144   0.21420   0.00000  Uiso   1.00
C386   C     0.80159   0.64545   0.23000   0.00000  Uiso   1.00
H387   H     0.77711   0.62916   0.21429   0.00000  Uiso   1.00
C388   C     0.83323   0.62413   0.25000   0.00000  Uiso   1.00
C389   C     0.98182   0.46602   0.23200   0.00000  Uiso   1.00
H390   H     0.96850   0.43882   0.21733   0.00000  Uiso   1.00
C391   C     0.69633   0.46603   0.23199   0.00000  Uiso   1.00
H392   H     0.71902   0.43888   0.21720   0.00000  Uiso   1.00
N393   N     0.71426   0.50001   0.25002   0.00000  Uiso   1.00
C394   C     0.68474   0.53411   0.26859   0.00000  Uiso   1.00
C395   C     0.97011   0.53398   0.26796   0.00000  Uiso   1.00
H396   H     0.94742   0.56134   0.28083   0.00000  Uiso   1.00
N397   N     0.95239   0.49998   0.25001   0.00000  Uiso   1.00
N398   N     0.94681   0.54948   0.09100   0.00000  Uiso   1.00
O399   O     0.95015   0.58870   0.10202   0.00000  Uiso   1.00
O400   O     0.97659   0.52254   0.09940   0.00000  Uiso   1.00
O401   O     0.70394   0.57000   0.28182   0.00000  Uiso   1.00
C402   C     0.67798   0.58291   0.33545   0.00000  Uiso   1.00
H403   H     0.66987   0.55621   0.36431   0.00000  Uiso   1.00
H404   H     0.97742   0.59889   0.33701   0.00000  Uiso   1.00
C405   C     0.70817   0.61411   0.35336   0.00000  Uiso   1.00
H406   H     0.71724   0.64091   0.32506   0.00000  Uiso   1.00
H407   H     0.68789   0.62616   0.39458   0.00000  Uiso   1.00
H408   H     0.74186   0.59891   0.35394   0.00000  Uiso   1.00
N409   N     0.95579   0.58268   0.48830   0.00000  Uiso   1.00
O410   O     0.66692   0.57175   0.47963   0.00000  Uiso   1.00
O411   O     0.94555   0.62152   0.48243   0.00000  Uiso   1.00
N412   N     0.71574   0.46045   0.41562   0.00000  Uiso   1.00
O413   O     0.73316   0.43078   0.38011   0.00000  Uiso   1.00
O414   O     0.66939   0.46617   0.43533   0.00000  Uiso   1.00
O415   O     0.12846   0.89442   0.25001   0.00000  Uiso   1.00
O416   O     0.20490   0.89441   0.25001   0.00000  Uiso   1.00
C417   C     0.16655   0.91333   0.25008   0.00000  Uiso   1.00
O418   O     0.10947   0.83333   0.32681   0.00000  Uiso   1.00
O419   O     0.18591   0.83332   0.32681   0.00000  Uiso   1.00
C420   C     0.13979   0.83398   0.35235   0.00000  Uiso   1.00
Zn421  Zn    0.11562   0.83334   0.25000   0.00000  Uiso   1.00
Zn422  Zn    0.21771   0.83333   0.25000   0.00000  Uiso   1.00
O423   O     0.12843   0.77226   0.25000   0.00000  Uiso   1.00
O424   O     0.20488   0.77225   0.25000   0.00000  Uiso   1.00
O425   O     0.14742   0.83335   0.17319   0.00000  Uiso   1.00
O426   O     0.22387   0.83334   0.17319   0.00000  Uiso   1.00
C427   C     0.16683   0.75333   0.24982   0.00000  Uiso   1.00
C428   C     0.19344   0.83430   0.14775   0.00000  Uiso   1.00
C429   C     0.25110   0.88747   0.01373   0.00000  Uiso   1.00
H430   H     0.24622   0.91626   0.41836   0.00000  Uiso   1.00
C431   C     0.20962   0.84256   0.08962   0.00000  Uiso   1.00
C432   C     0.07913   0.81315   0.44159   0.00000  Uiso   1.00
C433   C     0.06681   0.80918   0.49765   0.00000  Uiso   1.00
C434   C     0.09849   0.82182   0.02329   0.00000  Uiso   1.00
C435   C     0.14218   0.84143   0.49370   0.00000  Uiso   1.00
C436   C     0.15010   0.85283   0.43961   0.00000  Uiso   1.00
C437   C     0.17826   0.85016   0.01618   0.00000  Uiso   1.00
C438   C     0.21623   0.87774   0.48969   0.00000  Uiso   1.00
C439   C     0.21867   0.89443   0.43952   0.00000  Uiso   1.00
C440   C     0.18655   0.88178   0.41450   0.00000  Uiso   1.00
C441   C     0.17810   0.83073   0.06355   0.00000  Uiso   1.00
C442   C     0.24754   0.87004   0.06421   0.00000  Uiso   1.00
C443   C     0.12179   0.83448   0.41187   0.00000  Uiso   1.00
H444   H     0.15200   0.80709   0.08255   0.00000  Uiso   1.00
H445   H     0.08751   0.81683   0.06656   0.00000  Uiso   1.00
H446   H     0.03388   0.79373   0.02108   0.00000  Uiso   1.00
H447   H     0.19019   0.89542   0.37558   0.00000  Uiso   1.00
C448   C     0.19861   0.97842   0.26955   0.00000  Uiso   1.00
H449   H     0.22292   0.96185   0.28549   0.00000  Uiso   1.00
C450   C     0.19893   0.68783   0.26918   0.00000  Uiso   1.00
H451   H     0.22346   0.70411   0.28482   0.00000  Uiso   1.00
C452   C     0.16704   0.70917   0.24953   0.00000  Uiso   1.00
C453   C     0.13504   0.68821   0.22993   0.00000  Uiso   1.00
H454   H     0.11059   0.70477   0.21420   0.00000  Uiso   1.00
C455   C     0.13492   0.97879   0.23000   0.00000  Uiso   1.00
H456   H     0.11045   0.96250   0.21429   0.00000  Uiso   1.00
C457   C     0.16656   0.95746   0.25000   0.00000  Uiso   1.00
C458   C     0.31515   0.79935   0.23200   0.00000  Uiso   1.00
H459   H     0.30183   0.77216   0.21733   0.00000  Uiso   1.00
C460   C     0.02967   0.79936   0.23199   0.00000  Uiso   1.00
H461   H     0.05235   0.77221   0.21720   0.00000  Uiso   1.00
N462   N     0.04760   0.83334   0.25002   0.00000  Uiso   1.00
C463   C     0.01807   0.86744   0.26859   0.00000  Uiso   1.00
C464   C     0.30344   0.86732   0.26796   0.00000  Uiso   1.00
H465   H     0.28076   0.89467   0.28083   0.00000  Uiso   1.00
N466   N     0.28573   0.83331   0.25001   0.00000  Uiso   1.00
N467   N     0.28014   0.88281   0.09100   0.00000  Uiso   1.00
O468   O     0.28348   0.92203   0.10202   0.00000  Uiso   1.00
O469   O     0.30992   0.85587   0.09940   0.00000  Uiso   1.00
O470   O     0.03727   0.90333   0.28182   0.00000  Uiso   1.00
C471   C     0.01131   0.91624   0.33545   0.00000  Uiso   1.00
H472   H     0.00321   0.88954   0.36431   0.00000  Uiso   1.00
H473   H     0.31075   0.93222   0.33701   0.00000  Uiso   1.00
C474   C     0.04151   0.94744   0.35336   0.00000  Uiso   1.00
H475   H     0.05058   0.97425   0.32506   0.00000  Uiso   1.00
H476   H     0.02123   0.95949   0.39458   0.00000  Uiso   1.00
H477   H     0.07519   0.93224   0.35394   0.00000  Uiso   1.00
N478   N     0.28912   0.91601   0.48830   0.00000  Uiso   1.00
O479   O     0.00025   0.90508   0.47963   0.00000  Uiso   1.00
O480   O     0.27888   0.95485   0.48243   0.00000  Uiso   1.00
N481   N     0.04907   0.79378   0.41562   0.00000  Uiso   1.00
O482   O     0.06649   0.76412   0.38011   0.00000  Uiso   1.00
O483   O     0.00273   0.79950   0.43533   0.00000  Uiso   1.00
O484   O     0.46179   0.89442   0.25001   0.00000  Uiso   1.00
O485   O     0.53823   0.89441   0.25001   0.00000  Uiso   1.00
C486   C     0.49989   0.91333   0.25008   0.00000  Uiso   1.00
O487   O     0.44280   0.83333   0.32681   0.00000  Uiso   1.00
O488   O     0.51924   0.83332   0.32681   0.00000  Uiso   1.00
C489   C     0.47312   0.83398   0.35235   0.00000  Uiso   1.00
Zn490  Zn    0.44896   0.83334   0.25000   0.00000  Uiso   1.00
Zn491  Zn    0.55104   0.83333   0.25000   0.00000  Uiso   1.00
O492   O     0.46177   0.77226   0.25000   0.00000  Uiso   1.00
O493   O     0.53821   0.77225   0.25000   0.00000  Uiso   1.00
O494   O     0.48076   0.83335   0.17319   0.00000  Uiso   1.00
O495   O     0.55720   0.83334   0.17319   0.00000  Uiso   1.00
C496   C     0.50016   0.75333   0.24982   0.00000  Uiso   1.00
C497   C     0.52677   0.83430   0.14775   0.00000  Uiso   1.00
C498   C     0.58443   0.88747   0.01373   0.00000  Uiso   1.00
H499   H     0.57955   0.91626   0.41836   0.00000  Uiso   1.00
C500   C     0.54296   0.84256   0.08962   0.00000  Uiso   1.00
C501   C     0.41246   0.81315   0.44159   0.00000  Uiso   1.00
C502   C     0.40015   0.80918   0.49765   0.00000  Uiso   1.00
C503   C     0.43182   0.82182   0.02329   0.00000  Uiso   1.00
C504   C     0.47551   0.84143   0.49370   0.00000  Uiso   1.00
C505   C     0.48344   0.85283   0.43961   0.00000  Uiso   1.00
C506   C     0.51159   0.85016   0.01618   0.00000  Uiso   1.00
C507   C     0.54956   0.87774   0.48969   0.00000  Uiso   1.00
C508   C     0.55200   0.89443   0.43952   0.00000  Uiso   1.00
C509   C     0.51989   0.88178   0.41450   0.00000  Uiso   1.00
C510   C     0.51143   0.83073   0.06355   0.00000  Uiso   1.00
C511   C     0.58087   0.87004   0.06421   0.00000  Uiso   1.00
C512   C     0.45512   0.83448   0.41187   0.00000  Uiso   1.00
H513   H     0.48533   0.80709   0.08255   0.00000  Uiso   1.00
H514   H     0.42085   0.81683   0.06656   0.00000  Uiso   1.00
H515   H     0.36722   0.79373   0.02108   0.00000  Uiso   1.00
H516   H     0.52352   0.89542   0.37558   0.00000  Uiso   1.00
C517   C     0.53194   0.97842   0.26955   0.00000  Uiso   1.00
H518   H     0.55626   0.96185   0.28549   0.00000  Uiso   1.00
C519   C     0.53227   0.68783   0.26918   0.00000  Uiso   1.00
H520   H     0.55679   0.70411   0.28482   0.00000  Uiso   1.00
C521   C     0.50038   0.70917   0.24953   0.00000  Uiso   1.00
C522   C     0.46837   0.68821   0.22993   0.00000  Uiso   1.00
H523   H     0.44393   0.70477   0.21420   0.00000  Uiso   1.00
C524   C     0.46825   0.97879   0.23000   0.00000  Uiso   1.00
H525   H     0.44378   0.96250   0.21429   0.00000  Uiso   1.00
C526   C     0.49990   0.95746   0.25000   0.00000  Uiso   1.00
C527   C     0.64849   0.79935   0.23200   0.00000  Uiso   1.00
H528   H     0.63517   0.77216   0.21733   0.00000  Uiso   1.00
C529   C     0.36300   0.79936   0.23199   0.00000  Uiso   1.00
H530   H     0.38569   0.77221   0.21720   0.00000  Uiso   1.00
N531   N     0.38093   0.83334   0.25002   0.00000  Uiso   1.00
C532   C     0.35140   0.86744   0.26859   0.00000  Uiso   1.00
C533   C     0.63678   0.86732   0.26796   0.00000  Uiso   1.00
H534   H     0.61409   0.89467   0.28083   0.00000  Uiso   1.00
N535   N     0.61906   0.83331   0.25001   0.00000  Uiso   1.00
N536   N     0.61347   0.88281   0.09100   0.00000  Uiso   1.00
O537   O     0.61682   0.92203   0.10202   0.00000  Uiso   1.00
O538   O     0.64326   0.85587   0.09940   0.00000  Uiso   1.00
O539   O     0.37060   0.90333   0.28182   0.00000  Uiso   1.00
C540   C     0.34465   0.91624   0.33545   0.00000  Uiso   1.00
H541   H     0.33654   0.88954   0.36431   0.00000  Uiso   1.00
H542   H     0.64408   0.93222   0.33701   0.00000  Uiso   1.00
C543   C     0.37484   0.94744   0.35336   0.00000  Uiso   1.00
H544   H     0.38391   0.97425   0.32506   0.00000  Uiso   1.00
H545   H     0.35456   0.95949   0.39458   0.00000  Uiso   1.00
H546   H     0.40853   0.93224   0.35394   0.00000  Uiso   1.00
N547   N     0.62246   0.91601   0.48830   0.00000  Uiso   1.00
O548   O     0.33358   0.90508   0.47963   0.00000  Uiso   1.00
O549   O     0.61222   0.95485   0.48243   0.00000  Uiso   1.00
N550   N     0.38241   0.79378   0.41562   0.00000  Uiso   1.00
O551   O     0.39983   0.76412   0.38011   0.00000  Uiso   1.00
O552   O     0.33606   0.79950   0.43533   0.00000  Uiso   1.00
O553   O     0.79512   0.89442   0.25001   0.00000  Uiso   1.00
O554   O     0.87157   0.89441   0.25001   0.00000  Uiso   1.00
C555   C     0.83322   0.91333   0.25008   0.00000  Uiso   1.00
O556   O     0.77613   0.83333   0.32681   0.00000  Uiso   1.00
O557   O     0.85258   0.83332   0.32681   0.00000  Uiso   1.00
C558   C     0.80646   0.83398   0.35235   0.00000  Uiso   1.00
Zn559  Zn    0.78229   0.83334   0.25000   0.00000  Uiso   1.00
Zn560  Zn    0.88438   0.83333   0.25000   0.00000  Uiso   1.00
O561   O     0.79510   0.77226   0.25000   0.00000  Uiso   1.00
O562   O     0.87154   0.77225   0.25000   0.00000  Uiso   1.00
O563   O     0.81409   0.83335   0.17319   0.00000  Uiso   1.00
O564   O     0.89053   0.83334   0.17319   0.00000  Uiso   1.00
C565   C     0.83350   0.75333   0.24982   0.00000  Uiso   1.00
C566   C     0.86010   0.83430   0.14775   0.00000  Uiso   1.00
C567   C     0.91777   0.88747   0.01373   0.00000  Uiso   1.00
H568   H     0.91288   0.91626   0.41836   0.00000  Uiso   1.00
C569   C     0.87629   0.84256   0.08962   0.00000  Uiso   1.00
C570   C     0.74580   0.81315   0.44159   0.00000  Uiso   1.00
C571   C     0.73348   0.80918   0.49765   0.00000  Uiso   1.00
C572   C     0.76516   0.82182   0.02329   0.00000  Uiso   1.00
C573   C     0.80884   0.84143   0.49370   0.00000  Uiso   1.00
C574   C     0.81677   0.85283   0.43961   0.00000  Uiso   1.00
C575   C     0.84492   0.85016   0.01618   0.00000  Uiso   1.00
C576   C     0.88289   0.87774   0.48969   0.00000  Uiso   1.00
C577   C     0.88534   0.89443   0.43952   0.00000  Uiso   1.00
C578   C     0.85322   0.88178   0.41450   0.00000  Uiso   1.00
C579   C     0.84477   0.83073   0.06355   0.00000  Uiso   1.00
C580   C     0.91420   0.87004   0.06421   0.00000  Uiso   1.00
C581   C     0.78845   0.83448   0.41187   0.00000  Uiso   1.00
H582   H     0.81867   0.80709   0.08255   0.00000  Uiso   1.00
H583   H     0.75418   0.81683   0.06656   0.00000  Uiso   1.00
H584   H     0.70055   0.79373   0.02108   0.00000  Uiso   1.00
H585   H     0.85686   0.89542   0.37558   0.00000  Uiso   1.00
C586   C     0.86528   0.97842   0.26955   0.00000  Uiso   1.00
H587   H     0.88959   0.96185   0.28549   0.00000  Uiso   1.00
C588   C     0.86560   0.68783   0.26918   0.00000  Uiso   1.00
H589   H     0.89013   0.70411   0.28482   0.00000  Uiso   1.00
C590   C     0.83371   0.70917   0.24953   0.00000  Uiso   1.00
C591   C     0.80171   0.68821   0.22993   0.00000  Uiso   1.00
H592   H     0.77726   0.70477   0.21420   0.00000  Uiso   1.00
C593   C     0.80159   0.97879   0.23000   0.00000  Uiso   1.00
H594   H     0.77711   0.96250   0.21429   0.00000  Uiso   1.00
C595   C     0.83323   0.95746   0.25000   0.00000  Uiso   1.00
C596   C     0.98182   0.79935   0.23200   0.00000  Uiso   1.00
H597   H     0.96850   0.77216   0.21733   0.00000  Uiso   1.00
C598   C     0.69633   0.79936   0.23199   0.00000  Uiso   1.00
H599   H     0.71902   0.77221   0.21720   0.00000  Uiso   1.00
N600   N     0.71426   0.83334   0.25002   0.00000  Uiso   1.00
C601   C     0.68474   0.86744   0.26859   0.00000  Uiso   1.00
C602   C     0.97011   0.86732   0.26796   0.00000  Uiso   1.00
H603   H     0.94742   0.89467   0.28083   0.00000  Uiso   1.00
N604   N     0.95239   0.83331   0.25001   0.00000  Uiso   1.00
N605   N     0.94681   0.88281   0.09100   0.00000  Uiso   1.00
O606   O     0.95015   0.92203   0.10202   0.00000  Uiso   1.00
O607   O     0.97659   0.85587   0.09940   0.00000  Uiso   1.00
O608   O     0.70394   0.90333   0.28182   0.00000  Uiso   1.00
C609   C     0.67798   0.91624   0.33545   0.00000  Uiso   1.00
H610   H     0.66987   0.88954   0.36431   0.00000  Uiso   1.00
H611   H     0.97742   0.93222   0.33701   0.00000  Uiso   1.00
C612   C     0.70817   0.94744   0.35336   0.00000  Uiso   1.00
H613   H     0.71724   0.97425   0.32506   0.00000  Uiso   1.00
H614   H     0.68789   0.95949   0.39458   0.00000  Uiso   1.00
H615   H     0.74186   0.93224   0.35394   0.00000  Uiso   1.00
N616   N     0.95579   0.91601   0.48830   0.00000  Uiso   1.00
O617   O     0.66692   0.90508   0.47963   0.00000  Uiso   1.00
O618   O     0.94555   0.95485   0.48243   0.00000  Uiso   1.00
N619   N     0.71574   0.79378   0.41562   0.00000  Uiso   1.00
O620   O     0.73316   0.76412   0.38011   0.00000  Uiso   1.00
O621   O     0.66939   0.79950   0.43533   0.00000  Uiso   1.00
O622   O     0.12846   0.22775   0.75001   0.00000  Uiso   1.00
O623   O     0.20490   0.22774   0.75001   0.00000  Uiso   1.00
C624   C     0.16655   0.24666   0.75008   0.00000  Uiso   1.00
O625   O     0.10947   0.16666   0.82681   0.00000  Uiso   1.00
O626   O     0.18591   0.16665   0.82681   0.00000  Uiso   1.00
C627   C     0.13979   0.16731   0.85235   0.00000  Uiso   1.00
Zn628  Zn    0.11562   0.16667   0.75000   0.00000  Uiso   1.00
Zn629  Zn    0.21771   0.16666   0.75000   0.00000  Uiso   1.00
O630   O     0.12843   0.10559   0.75000   0.00000  Uiso   1.00
O631   O     0.20488   0.10558   0.75000   0.00000  Uiso   1.00
O632   O     0.14742   0.16668   0.67319   0.00000  Uiso   1.00
O633   O     0.22387   0.16667   0.67319   0.00000  Uiso   1.00
C634   C     0.16683   0.08666   0.74982   0.00000  Uiso   1.00
C635   C     0.19344   0.16763   0.64775   0.00000  Uiso   1.00
C636   C     0.25110   0.22080   0.51373   0.00000  Uiso   1.00
H637   H     0.24622   0.24960   0.91836   0.00000  Uiso   1.00
C638   C     0.20962   0.17589   0.58962   0.00000  Uiso   1.00
C639   C     0.07913   0.14649   0.94159   0.00000  Uiso   1.00
C640   C     0.06681   0.14252   0.99765   0.00000  Uiso   1.00
C641   C     0.09849   0.15516   0.52329   0.00000  Uiso   1.00
C642   C     0.14218   0.17476   0.99370   0.00000  Uiso   1.00
C643   C     0.15010   0.18616   0.93961   0.00000  Uiso   1.00
C644   C     0.17826   0.18349   0.51618   0.00000  Uiso   1.00
C645   C     0.21623   0.21108   0.98969   0.00000  Uiso   1.00
C646   C     0.21867   0.22776   0.93952   0.00000  Uiso   1.00
C647   C     0.18655   0.21511   0.91450   0.00000  Uiso   1.00
C648   C     0.17810   0.16407   0.56355   0.00000  Uiso   1.00
C649   C     0.24754   0.20337   0.56421   0.00000  Uiso   1.00
C650   C     0.12179   0.16781   0.91187   0.00000  Uiso   1.00
H651   H     0.15200   0.14042   0.58255   0.00000  Uiso   1.00
H652   H     0.08751   0.15017   0.56656   0.00000  Uiso   1.00
H653   H     0.03388   0.12706   0.52108   0.00000  Uiso   1.00
H654   H     0.19019   0.22875   0.87558   0.00000  Uiso   1.00
C655   C     0.19861   0.31175   0.76955   0.00000  Uiso   1.00
H656   H     0.22292   0.29518   0.78549   0.00000  Uiso   1.00
C657   C     0.19893   0.02117   0.76918   0.00000  Uiso   1.00
H658   H     0.22346   0.03745   0.78482   0.00000  Uiso   1.00
C659   C     0.16704   0.04250   0.74953   0.00000  Uiso   1.00
C660   C     0.13504   0.02154   0.72993   0.00000  Uiso   1.00
H661   H     0.11059   0.03811   0.71420   0.00000  Uiso   1.00
C662   C     0.13492   0.31212   0.73000   0.00000  Uiso   1.00
H663   H     0.11045   0.29583   0.71429   0.00000  Uiso   1.00
C664   C     0.16656   0.29080   0.75000   0.00000  Uiso   1.00
C665   C     0.31515   0.13269   0.73200   0.00000  Uiso   1.00
H666   H     0.30183   0.10549   0.71733   0.00000  Uiso   1.00
C667   C     0.02967   0.13270   0.73199   0.00000  Uiso   1.00
H668   H     0.05235   0.10555   0.71720   0.00000  Uiso   1.00
N669   N     0.04760   0.16668   0.75002   0.00000  Uiso   1.00
C670   C     0.01807   0.20078   0.76859   0.00000  Uiso   1.00
C671   C     0.30344   0.20065   0.76796   0.00000  Uiso   1.00
H672   H     0.28076   0.22800   0.78083   0.00000  Uiso   1.00
N673   N     0.28573   0.16665   0.75001   0.00000  Uiso   1.00
N674   N     0.28014   0.21614   0.59100   0.00000  Uiso   1.00
O675   O     0.28348   0.25537   0.60202   0.00000  Uiso   1.00
O676   O     0.30992   0.18921   0.59940   0.00000  Uiso   1.00
O677   O     0.03727   0.23666   0.78182   0.00000  Uiso   1.00
C678   C     0.01131   0.24957   0.83545   0.00000  Uiso   1.00
H679   H     0.00321   0.22288   0.86431   0.00000  Uiso   1.00
H680   H     0.31075   0.26556   0.83701   0.00000  Uiso   1.00
C681   C     0.04151   0.28077   0.85336   0.00000  Uiso   1.00
H682   H     0.05058   0.30758   0.82506   0.00000  Uiso   1.00
H683   H     0.02123   0.29282   0.89458   0.00000  Uiso   1.00
H684   H     0.07519   0.26557   0.85394   0.00000  Uiso   1.00
N685   N     0.28912   0.24934   0.98830   0.00000  Uiso   1.00
O686   O     0.00025   0.23841   0.97963   0.00000  Uiso   1.00
O687   O     0.27888   0.28819   0.98243   0.00000  Uiso   1.00
N688   N     0.04907   0.12712   0.91562   0.00000  Uiso   1.00
O689   O     0.06649   0.09745   0.88011   0.00000  Uiso   1.00
O690   O     0.00273   0.13284   0.93533   0.00000  Uiso   1.00
O691   O     0.46179   0.22775   0.75001   0.00000  Uiso   1.00
O692   O     0.53823   0.22774   0.75001   0.00000  Uiso   1.00
C693   C     0.49989   0.24666   0.75008   0.00000  Uiso   1.00
O694   O     0.44280   0.16666   0.82681   0.00000  Uiso   1.00
O695   O     0.51924   0.16665   0.82681   0.00000  Uiso   1.00
C696   C     0.47312   0.16731   0.85235   0.00000  Uiso   1.00
Zn697  Zn    0.44896   0.16667   0.75000   0.00000  Uiso   1.00
Zn698  Zn    0.55104   0.16666   0.75000   0.00000  Uiso   1.00
O699   O     0.46177   0.10559   0.75000   0.00000  Uiso   1.00
O700   O     0.53821   0.10558   0.75000   0.00000  Uiso   1.00
O701   O     0.48076   0.16668   0.67319   0.00000  Uiso   1.00
O702   O     0.55720   0.16667   0.67319   0.00000  Uiso   1.00
C703   C     0.50016   0.08666   0.74982   0.00000  Uiso   1.00
C704   C     0.52677   0.16763   0.64775   0.00000  Uiso   1.00
C705   C     0.58443   0.22080   0.51373   0.00000  Uiso   1.00
H706   H     0.57955   0.24960   0.91836   0.00000  Uiso   1.00
C707   C     0.54296   0.17589   0.58962   0.00000  Uiso   1.00
C708   C     0.41246   0.14649   0.94159   0.00000  Uiso   1.00
C709   C     0.40015   0.14252   0.99765   0.00000  Uiso   1.00
C710   C     0.43182   0.15516   0.52329   0.00000  Uiso   1.00
C711   C     0.47551   0.17476   0.99370   0.00000  Uiso   1.00
C712   C     0.48344   0.18616   0.93961   0.00000  Uiso   1.00
C713   C     0.51159   0.18349   0.51618   0.00000  Uiso   1.00
C714   C     0.54956   0.21108   0.98969   0.00000  Uiso   1.00
C715   C     0.55200   0.22776   0.93952   0.00000  Uiso   1.00
C716   C     0.51989   0.21511   0.91450   0.00000  Uiso   1.00
C717   C     0.51143   0.16407   0.56355   0.00000  Uiso   1.00
C718   C     0.58087   0.20337   0.56421   0.00000  Uiso   1.00
C719   C     0.45512   0.16781   0.91187   0.00000  Uiso   1.00
H720   H     0.48533   0.14042   0.58255   0.00000  Uiso   1.00
H721   H     0.42085   0.15017   0.56656   0.00000  Uiso   1.00
H722   H     0.36722   0.12706   0.52108   0.00000  Uiso   1.00
H723   H     0.52352   0.22875   0.87558   0.00000  Uiso   1.00
C724   C     0.53194   0.31175   0.76955   0.00000  Uiso   1.00
H725   H     0.55626   0.29518   0.78549   0.00000  Uiso   1.00
C726   C     0.53227   0.02117   0.76918   0.00000  Uiso   1.00
H727   H     0.55679   0.03745   0.78482   0.00000  Uiso   1.00
C728   C     0.50038   0.04250   0.74953   0.00000  Uiso   1.00
C729   C     0.46837   0.02154   0.72993   0.00000  Uiso   1.00
H730   H     0.44393   0.03811   0.71420   0.00000  Uiso   1.00
C731   C     0.46825   0.31212   0.73000   0.00000  Uiso   1.00
H732   H     0.44378   0.29583   0.71429   0.00000  Uiso   1.00
C733   C     0.49990   0.29080   0.75000   0.00000  Uiso   1.00
C734   C     0.64849   0.13269   0.73200   0.00000  Uiso   1.00
H735   H     0.63517   0.10549   0.71733   0.00000  Uiso   1.00
C736   C     0.36300   0.13270   0.73199   0.00000  Uiso   1.00
H737   H     0.38569   0.10555   0.71720   0.00000  Uiso   1.00
N738   N     0.38093   0.16668   0.75002   0.00000  Uiso   1.00
C739   C     0.35140   0.20078   0.76859   0.00000  Uiso   1.00
C740   C     0.63678   0.20065   0.76796   0.00000  Uiso   1.00
H741   H     0.61409   0.22800   0.78083   0.00000  Uiso   1.00
N742   N     0.61906   0.16665   0.75001   0.00000  Uiso   1.00
N743   N     0.61347   0.21614   0.59100   0.00000  Uiso   1.00
O744   O     0.61682   0.25537   0.60202   0.00000  Uiso   1.00
O745   O     0.64326   0.18921   0.59940   0.00000  Uiso   1.00
O746   O     0.37060   0.23666   0.78182   0.00000  Uiso   1.00
C747   C     0.34465   0.24957   0.83545   0.00000  Uiso   1.00
H748   H     0.33654   0.22288   0.86431   0.00000  Uiso   1.00
H749   H     0.64408   0.26556   0.83701   0.00000  Uiso   1.00
C750   C     0.37484   0.28077   0.85336   0.00000  Uiso   1.00
H751   H     0.38391   0.30758   0.82506   0.00000  Uiso   1.00
H752   H     0.35456   0.29282   0.89458   0.00000  Uiso   1.00
H753   H     0.40853   0.26557   0.85394   0.00000  Uiso   1.00
N754   N     0.62246   0.24934   0.98830   0.00000  Uiso   1.00
O755   O     0.33358   0.23841   0.97963   0.00000  Uiso   1.00
O756   O     0.61222   0.28819   0.98243   0.00000  Uiso   1.00
N757   N     0.38241   0.12712   0.91562   0.00000  Uiso   1.00
O758   O     0.39983   0.09745   0.88011   0.00000  Uiso   1.00
O759   O     0.33606   0.13284   0.93533   0.00000  Uiso   1.00
O760   O     0.79512   0.22775   0.75001   0.00000  Uiso   1.00
O761   O     0.87157   0.22774   0.75001   0.00000  Uiso   1.00
C762   C     0.83322   0.24666   0.75008   0.00000  Uiso   1.00
O763   O     0.77613   0.16666   0.82681   0.00000  Uiso   1.00
O764   O     0.85258   0.16665   0.82681   0.00000  Uiso   1.00
C765   C     0.80646   0.16731   0.85235   0.00000  Uiso   1.00
Zn766  Zn    0.78229   0.16667   0.75000   0.00000  Uiso   1.00
Zn767  Zn    0.88438   0.16666   0.75000   0.00000  Uiso   1.00
O768   O     0.79510   0.10559   0.75000   0.00000  Uiso   1.00
O769   O     0.87154   0.10558   0.75000   0.00000  Uiso   1.00
O770   O     0.81409   0.16668   0.67319   0.00000  Uiso   1.00
O771   O     0.89053   0.16667   0.67319   0.00000  Uiso   1.00
C772   C     0.83350   0.08666   0.74982   0.00000  Uiso   1.00
C773   C     0.86010   0.16763   0.64775   0.00000  Uiso   1.00
C774   C     0.91777   0.22080   0.51373   0.00000  Uiso   1.00
H775   H     0.91288   0.24960   0.91836   0.00000  Uiso   1.00
C776   C     0.87629   0.17589   0.58962   0.00000  Uiso   1.00
C777   C     0.74580   0.14649   0.94159   0.00000  Uiso   1.00
C778   C     0.73348   0.14252   0.99765   0.00000  Uiso   1.00
C779   C     0.76516   0.15516   0.52329   0.00000  Uiso   1.00
C780   C     0.80884   0.17476   0.99370   0.00000  Uiso   1.00
C781   C     0.81677   0.18616   0.93961   0.00000  Uiso   1.00
C782   C     0.84492   0.18349   0.51618   0.00000  Uiso   1.00
C783   C     0.88289   0.21108   0.98969   0.00000  Uiso   1.00
C784   C     0.88534   0.22776   0.93952   0.00000  Uiso   1.00
C785   C     0.85322   0.21511   0.91450   0.00000  Uiso   1.00
C786   C     0.84477   0.16407   0.56355   0.00000  Uiso   1.00
C787   C     0.91420   0.20337   0.56421   0.00000  Uiso   1.00
C788   C     0.78845   0.16781   0.91187   0.00000  Uiso   1.00
H789   H     0.81867   0.14042   0.58255   0.00000  Uiso   1.00
H790   H     0.75418   0.15017   0.56656   0.00000  Uiso   1.00
H791   H     0.70055   0.12706   0.52108   0.00000  Uiso   1.00
H792   H     0.85686   0.22875   0.87558   0.00000  Uiso   1.00
C793   C     0.86528   0.31175   0.76955   0.00000  Uiso   1.00
H794   H     0.88959   0.29518   0.78549   0.00000  Uiso   1.00
C795   C     0.86560   0.02117   0.76918   0.00000  Uiso   1.00
H796   H     0.89013   0.03745   0.78482   0.00000  Uiso   1.00
C797   C     0.83371   0.04250   0.74953   0.00000  Uiso   1.00
C798   C     0.80171   0.02154   0.72993   0.00000  Uiso   1.00
H799   H     0.77726   0.03811   0.71420   0.00000  Uiso   1.00
C800   C     0.80159   0.31212   0.73000   0.00000  Uiso   1.00
H801   H     0.77711   0.29583   0.71429   0.00000  Uiso   1.00
C802   C     0.83323   0.29080   0.75000   0.00000  Uiso   1.00
C803   C     0.98182   0.13269   0.73200   0.00000  Uiso   1.00
H804   H     0.96850   0.10549   0.71733   0.00000  Uiso   1.00
C805   C     0.69633   0.13270   0.73199   0.00000  Uiso   1.00
H806   H     0.71902   0.10555   0.71720   0.00000  Uiso   1.00
N807   N     0.71426   0.16668   0.75002   0.00000  Uiso   1.00
C808   C     0.68474   0.20078   0.76859   0.00000  Uiso   1.00
C809   C     0.97011   0.20065   0.76796   0.00000  Uiso   1.00
H810   H     0.94742   0.22800   0.78083   0.00000  Uiso   1.00
N811   N     0.95239   0.16665   0.75001   0.00000  Uiso   1.00
N812   N     0.94681   0.21614   0.59100   0.00000  Uiso   1.00
O813   O     0.95015   0.25537   0.60202   0.00000  Uiso   1.00
O814   O     0.97659   0.18921   0.59940   0.00000  Uiso   1.00
O815   O     0.70394   0.23666   0.78182   0.00000  Uiso   1.00
C816   C     0.67798   0.24957   0.83545   0.00000  Uiso   1.00
H817   H     0.66987   0.22288   0.86431   0.00000  Uiso   1.00
H818   H     0.97742   0.26556   0.83701   0.00000  Uiso   1.00
C819   C     0.70817   0.28077   0.85336   0.00000  Uiso   1.00
H820   H     0.71724   0.30758   0.82506   0.00000  Uiso   1.00
H821   H     0.68789   0.29282   0.89458   0.00000  Uiso   1.00
H822   H     0.74186   0.26557   0.85394   0.00000  Uiso   1.00
N823   N     0.95579   0.24934   0.98830   0.00000  Uiso   1.00
O824   O     0.66692   0.23841   0.97963   0.00000  Uiso   1.00
O825   O     0.94555   0.28819   0.98243   0.00000  Uiso   1.00
N826   N     0.71574   0.12712   0.91562   0.00000  Uiso   1.00
O827   O     0.73316   0.09745   0.88011   0.00000  Uiso   1.00
O828   O     0.66939   0.13284   0.93533   0.00000  Uiso   1.00
O829   O     0.12846   0.56108   0.75001   0.00000  Uiso   1.00
O830   O     0.20490   0.56107   0.75001   0.00000  Uiso   1.00
C831   C     0.16655   0.57999   0.75008   0.00000  Uiso   1.00
O832   O     0.10947   0.50000   0.82681   0.00000  Uiso   1.00
O833   O     0.18591   0.49999   0.82681   0.00000  Uiso   1.00
C834   C     0.13979   0.50065   0.85235   0.00000  Uiso   1.00
Zn835  Zn    0.11562   0.50001   0.75000   0.00000  Uiso   1.00
Zn836  Zn    0.21771   0.49999   0.75000   0.00000  Uiso   1.00
O837   O     0.12843   0.43893   0.75000   0.00000  Uiso   1.00
O838   O     0.20488   0.43892   0.75000   0.00000  Uiso   1.00
O839   O     0.14742   0.50001   0.67319   0.00000  Uiso   1.00
O840   O     0.22387   0.50000   0.67319   0.00000  Uiso   1.00
C841   C     0.16683   0.42000   0.74982   0.00000  Uiso   1.00
C842   C     0.19344   0.50097   0.64775   0.00000  Uiso   1.00
C843   C     0.25110   0.55414   0.51373   0.00000  Uiso   1.00
H844   H     0.24622   0.58293   0.91836   0.00000  Uiso   1.00
C845   C     0.20962   0.50923   0.58962   0.00000  Uiso   1.00
C846   C     0.07913   0.47982   0.94159   0.00000  Uiso   1.00
C847   C     0.06681   0.47585   0.99765   0.00000  Uiso   1.00
C848   C     0.09849   0.48849   0.52329   0.00000  Uiso   1.00
C849   C     0.14218   0.50810   0.99370   0.00000  Uiso   1.00
C850   C     0.15010   0.51949   0.93961   0.00000  Uiso   1.00
C851   C     0.17826   0.51682   0.51618   0.00000  Uiso   1.00
C852   C     0.21623   0.54441   0.98969   0.00000  Uiso   1.00
C853   C     0.21867   0.56110   0.93952   0.00000  Uiso   1.00
C854   C     0.18655   0.54845   0.91450   0.00000  Uiso   1.00
C855   C     0.17810   0.49740   0.56355   0.00000  Uiso   1.00
C856   C     0.24754   0.53671   0.56421   0.00000  Uiso   1.00
C857   C     0.12179   0.50115   0.91187   0.00000  Uiso   1.00
H858   H     0.15200   0.47376   0.58255   0.00000  Uiso   1.00
H859   H     0.08751   0.48350   0.56656   0.00000  Uiso   1.00
H860   H     0.03388   0.46040   0.52108   0.00000  Uiso   1.00
H861   H     0.19019   0.56208   0.87558   0.00000  Uiso   1.00
C862   C     0.19861   0.64508   0.76955   0.00000  Uiso   1.00
H863   H     0.22292   0.62851   0.78549   0.00000  Uiso   1.00
C864   C     0.19893   0.35450   0.76918   0.00000  Uiso   1.00
H865   H     0.22346   0.37078   0.78482   0.00000  Uiso   1.00
C866   C     0.16704   0.37584   0.74953   0.00000  Uiso   1.00
C867   C     0.13504   0.35487   0.72993   0.00000  Uiso   1.00
H868   H     0.11059   0.37144   0.71420   0.00000  Uiso   1.00
C869   C     0.13492   0.64545   0.73000   0.00000  Uiso   1.00
H870   H     0.11045   0.62916   0.71429   0.00000  Uiso   1.00
C871   C     0.16656   0.62413   0.75000   0.00000  Uiso   1.00
C872   C     0.31515   0.46602   0.73200   0.00000  Uiso   1.00
H873   H     0.30183   0.43882   0.71733   0.00000  Uiso   1.00
C874   C     0.02967   0.46603   0.73199   0.00000  Uiso   1.00
H875   H     0.05235   0.43888   0.71720   0.00000  Uiso   1.00
N876   N     0.04760   0.50001   0.75002   0.00000  Uiso   1.00
C877   C     0.01807   0.53411   0.76859   0.00000  Uiso   1.00
C878   C     0.30344   0.53398   0.76796   0.00000  Uiso   1.00
H879   H     0.28076   0.56134   0.78083   0.00000  Uiso   1.00
N880   N     0.28573   0.49998   0.75001   0.00000  Uiso   1.00
N881   N     0.28014   0.54948   0.59100   0.00000  Uiso   1.00
O882   O     0.28348   0.58870   0.60202   0.00000  Uiso   1.00
O883   O     0.30992   0.52254   0.59940   0.00000  Uiso   1.00
O884   O     0.03727   0.57000   0.78182   0.00000  Uiso   1.00
C885   C     0.01131   0.58291   0.83545   0.00000  Uiso   1.00
H886   H     0.00321   0.55621   0.86431   0.00000  Uiso   1.00
H887   H     0.31075   0.59889   0.83701   0.00000  Uiso   1.00
C888   C     0.04151   0.61411   0.85336   0.00000  Uiso   1.00
H889   H     0.05058   0.64091   0.82506   0.00000  Uiso   1.00
H890   H     0.02123   0.62616   0.89458   0.00000  Uiso   1.00
H891   H     0.07519   0.59891   0.85394   0.00000  Uiso   1.00
N892   N     0.28912   0.58268   0.98830   0.00000  Uiso   1.00
O893   O     0.00025   0.57175   0.97963   0.00000  Uiso   1.00
O894   O     0.27888   0.62152   0.98243   0.00000  Uiso   1.00
N895   N     0.04907   0.46045   0.91562   0.00000  Uiso   1.00
O896   O     0.06649   0.43078   0.88011   0.00000  Uiso   1.00
O897   O     0.00273   0.46617   0.93533   0.00000  Uiso   1.00
O898   O     0.46179   0.56108   0.75001   0.00000  Uiso   1.00
O899   O     0.53823   0.56107   0.75001   0.00000  Uiso   1.00
C900   C     0.49989   0.57999   0.75008   0.00000  Uiso   1.00
O901   O     0.44280   0.50000   0.82681   0.00000  Uiso   1.00
O902   O     0.51924   0.49999   0.82681   0.00000  Uiso   1.00
C903   C     0.47312   0.50065   0.85235   0.00000  Uiso   1.00
Zn904  Zn    0.44896   0.50001   0.75000   0.00000  Uiso   1.00
Zn905  Zn    0.55104   0.49999   0.75000   0.00000  Uiso   1.00
O906   O     0.46177   0.43893   0.75000   0.00000  Uiso   1.00
O907   O     0.53821   0.43892   0.75000   0.00000  Uiso   1.00
O908   O     0.48076   0.50001   0.67319   0.00000  Uiso   1.00
O909   O     0.55720   0.50000   0.67319   0.00000  Uiso   1.00
C910   C     0.50016   0.42000   0.74982   0.00000  Uiso   1.00
C911   C     0.52677   0.50097   0.64775   0.00000  Uiso   1.00
C912   C     0.58443   0.55414   0.51373   0.00000  Uiso   1.00
H913   H     0.57955   0.58293   0.91836   0.00000  Uiso   1.00
C914   C     0.54296   0.50923   0.58962   0.00000  Uiso   1.00
C915   C     0.41246   0.47982   0.94159   0.00000  Uiso   1.00
C916   C     0.40015   0.47585   0.99765   0.00000  Uiso   1.00
C917   C     0.43182   0.48849   0.52329   0.00000  Uiso   1.00
C918   C     0.47551   0.50810   0.99370   0.00000  Uiso   1.00
C919   C     0.48344   0.51949   0.93961   0.00000  Uiso   1.00
C920   C     0.51159   0.51682   0.51618   0.00000  Uiso   1.00
C921   C     0.54956   0.54441   0.98969   0.00000  Uiso   1.00
C922   C     0.55200   0.56110   0.93952   0.00000  Uiso   1.00
C923   C     0.51989   0.54845   0.91450   0.00000  Uiso   1.00
C924   C     0.51143   0.49740   0.56355   0.00000  Uiso   1.00
C925   C     0.58087   0.53671   0.56421   0.00000  Uiso   1.00
C926   C     0.45512   0.50115   0.91187   0.00000  Uiso   1.00
H927   H     0.48533   0.47376   0.58255   0.00000  Uiso   1.00
H928   H     0.42085   0.48350   0.56656   0.00000  Uiso   1.00
H929   H     0.36722   0.46040   0.52108   0.00000  Uiso   1.00
H930   H     0.52352   0.56208   0.87558   0.00000  Uiso   1.00
C931   C     0.53194   0.64508   0.76955   0.00000  Uiso   1.00
H932   H     0.55626   0.62851   0.78549   0.00000  Uiso   1.00
C933   C     0.53227   0.35450   0.76918   0.00000  Uiso   1.00
H934   H     0.55679   0.37078   0.78482   0.00000  Uiso   1.00
C935   C     0.50038   0.37584   0.74953   0.00000  Uiso   1.00
C936   C     0.46837   0.35487   0.72993   0.00000  Uiso   1.00
H937   H     0.44393   0.37144   0.71420   0.00000  Uiso   1.00
C938   C     0.46825   0.64545   0.73000   0.00000  Uiso   1.00
H939   H     0.44378   0.62916   0.71429   0.00000  Uiso   1.00
C940   C     0.49990   0.62413   0.75000   0.00000  Uiso   1.00
C941   C     0.64849   0.46602   0.73200   0.00000  Uiso   1.00
H942   H     0.63517   0.43882   0.71733   0.00000  Uiso   1.00
C943   C     0.36300   0.46603   0.73199   0.00000  Uiso   1.00
H944   H     0.38569   0.43888   0.71720   0.00000  Uiso   1.00
N945   N     0.38093   0.50001   0.75002   0.00000  Uiso   1.00
C946   C     0.35140   0.53411   0.76859   0.00000  Uiso   1.00
C947   C     0.63678   0.53398   0.76796   0.00000  Uiso   1.00
H948   H     0.61409   0.56134   0.78083   0.00000  Uiso   1.00
N949   N     0.61906   0.49998   0.75001   0.00000  Uiso   1.00
N950   N     0.61347   0.54948   0.59100   0.00000  Uiso   1.00
O951   O     0.61682   0.58870   0.60202   0.00000  Uiso   1.00
O952   O     0.64326   0.52254   0.59940   0.00000  Uiso   1.00
O953   O     0.37060   0.57000   0.78182   0.00000  Uiso   1.00
C954   C     0.34465   0.58291   0.83545   0.00000  Uiso   1.00
H955   H     0.33654   0.55621   0.86431   0.00000  Uiso   1.00
H956   H     0.64408   0.59889   0.83701   0.00000  Uiso   1.00
C957   C     0.37484   0.61411   0.85336   0.00000  Uiso   1.00
H958   H     0.38391   0.64091   0.82506   0.00000  Uiso   1.00
H959   H     0.35456   0.62616   0.89458   0.00000  Uiso   1.00
H960   H     0.40853   0.59891   0.85394   0.00000  Uiso   1.00
N961   N     0.62246   0.58268   0.98830   0.00000  Uiso   1.00
O962   O     0.33358   0.57175   0.97963   0.00000  Uiso   1.00
O963   O     0.61222   0.62152   0.98243   0.00000  Uiso   1.00
N964   N     0.38241   0.46045   0.91562   0.00000  Uiso   1.00
O965   O     0.39983   0.43078   0.88011   0.00000  Uiso   1.00
O966   O     0.33606   0.46617   0.93533   0.00000  Uiso   1.00
O967   O     0.79512   0.56108   0.75001   0.00000  Uiso   1.00
O968   O     0.87157   0.56107   0.75001   0.00000  Uiso   1.00
C969   C     0.83322   0.57999   0.75008   0.00000  Uiso   1.00
O970   O     0.77613   0.50000   0.82681   0.00000  Uiso   1.00
O971   O     0.85258   0.49999   0.82681   0.00000  Uiso   1.00
C972   C     0.80646   0.50065   0.85235   0.00000  Uiso   1.00
Zn973  Zn    0.78229   0.50001   0.75000   0.00000  Uiso   1.00
Zn974  Zn    0.88438   0.49999   0.75000   0.00000  Uiso   1.00
O975   O     0.79510   0.43893   0.75000   0.00000  Uiso   1.00
O976   O     0.87154   0.43892   0.75000   0.00000  Uiso   1.00
O977   O     0.81409   0.50001   0.67319   0.00000  Uiso   1.00
O978   O     0.89053   0.50000   0.67319   0.00000  Uiso   1.00
C979   C     0.83350   0.42000   0.74982   0.00000  Uiso   1.00
C980   C     0.86010   0.50097   0.64775   0.00000  Uiso   1.00
C981   C     0.91777   0.55414   0.51373   0.00000  Uiso   1.00
H982   H     0.91288   0.58293   0.91836   0.00000  Uiso   1.00
C983   C     0.87629   0.50923   0.58962   0.00000  Uiso   1.00
C984   C     0.74580   0.47982   0.94159   0.00000  Uiso   1.00
C985   C     0.73348   0.47585   0.99765   0.00000  Uiso   1.00
C986   C     0.76516   0.48849   0.52329   0.00000  Uiso   1.00
C987   C     0.80884   0.50810   0.99370   0.00000  Uiso   1.00
C988   C     0.81677   0.51949   0.93961   0.00000  Uiso   1.00
C989   C     0.84492   0.51682   0.51618   0.00000  Uiso   1.00
C990   C     0.88289   0.54441   0.98969   0.00000  Uiso   1.00
C991   C     0.88534   0.56110   0.93952   0.00000  Uiso   1.00
C992   C     0.85322   0.54845   0.91450   0.00000  Uiso   1.00
C993   C     0.84477   0.49740   0.56355   0.00000  Uiso   1.00
C994   C     0.91420   0.53671   0.56421   0.00000  Uiso   1.00
C995   C     0.78845   0.50115   0.91187   0.00000  Uiso   1.00
H996   H     0.81867   0.47376   0.58255   0.00000  Uiso   1.00
H997   H     0.75418   0.48350   0.56656   0.00000  Uiso   1.00
H998   H     0.70055   0.46040   0.52108   0.00000  Uiso   1.00
H999   H     0.85686   0.56208   0.87558   0.00000  Uiso   1.00
C1000  C     0.86528   0.64508   0.76955   0.00000  Uiso   1.00
H1001  H     0.88959   0.62851   0.78549   0.00000  Uiso   1.00
C1002  C     0.86560   0.35450   0.76918   0.00000  Uiso   1.00
H1003  H     0.89013   0.37078   0.78482   0.00000  Uiso   1.00
C1004  C     0.83371   0.37584   0.74953   0.00000  Uiso   1.00
C1005  C     0.80171   0.35487   0.72993   0.00000  Uiso   1.00
H1006  H     0.77726   0.37144   0.71420   0.00000  Uiso   1.00
C1007  C     0.80159   0.64545   0.73000   0.00000  Uiso   1.00
H1008  H     0.77711   0.62916   0.71429   0.00000  Uiso   1.00
C1009  C     0.83323   0.62413   0.75000   0.00000  Uiso   1.00
C1010  C     0.98182   0.46602   0.73200   0.00000  Uiso   1.00
H1011  H     0.96850   0.43882   0.71733   0.00000  Uiso   1.00
C1012  C     0.69633   0.46603   0.73199   0.00000  Uiso   1.00
H1013  H     0.71902   0.43888   0.71720   0.00000  Uiso   1.00
N1014  N     0.71426   0.50001   0.75002   0.00000  Uiso   1.00
C1015  C     0.68474   0.53411   0.76859   0.00000  Uiso   1.00
C1016  C     0.97011   0.53398   0.76796   0.00000  Uiso   1.00
H1017  H     0.94742   0.56134   0.78083   0.00000  Uiso   1.00
N1018  N     0.95239   0.49998   0.75001   0.00000  Uiso   1.00
N1019  N     0.94681   0.54948   0.59100   0.00000  Uiso   1.00
O1020  O     0.95015   0.58870   0.60202   0.00000  Uiso   1.00
O1021  O     0.97659   0.52254   0.59940   0.00000  Uiso   1.00
O1022  O     0.70394   0.57000   0.78182   0.00000  Uiso   1.00
C1023  C     0.67798   0.58291   0.83545   0.00000  Uiso   1.00
H1024  H     0.66987   0.55621   0.86431   0.00000  Uiso   1.00
H1025  H     0.97742   0.59889   0.83701   0.00000  Uiso   1.00
C1026  C     0.70817   0.61411   0.85336   0.00000  Uiso   1.00
H1027  H     0.71724   0.64091   0.82506   0.00000  Uiso   1.00
H1028  H     0.68789   0.62616   0.89458   0.00000  Uiso   1.00
H1029  H     0.74186   0.59891   0.85394   0.00000  Uiso   1.00
N1030  N     0.95579   0.58268   0.98830   0.00000  Uiso   1.00
O1031  O     0.66692   0.57175   0.97963   0.00000  Uiso   1.00
O1032  O     0.94555   0.62152   0.98243   0.00000  Uiso   1.00
N1033  N     0.71574   0.46045   0.91562   0.00000  Uiso   1.00
O1034  O     0.73316   0.43078   0.88011   0.00000  Uiso   1.00
O1035  O     0.66939   0.46617   0.93533   0.00000  Uiso   1.00
O1036  O     0.12846   0.89442   0.75001   0.00000  Uiso   1.00
O1037  O     0.20490   0.89441   0.75001   0.00000  Uiso   1.00
C1038  C     0.16655   0.91333   0.75008   0.00000  Uiso   1.00
O1039  O     0.10947   0.83333   0.82681   0.00000  Uiso   1.00
O1040  O     0.18591   0.83332   0.82681   0.00000  Uiso   1.00
C1041  C     0.13979   0.83398   0.85235   0.00000  Uiso   1.00
Zn1042 Zn    0.11562   0.83334   0.75000   0.00000  Uiso   1.00
Zn1043 Zn    0.21771   0.83333   0.75000   0.00000  Uiso   1.00
O1044  O     0.12843   0.77226   0.75000   0.00000  Uiso   1.00
O1045  O     0.20488   0.77225   0.75000   0.00000  Uiso   1.00
O1046  O     0.14742   0.83335   0.67319   0.00000  Uiso   1.00
O1047  O     0.22387   0.83334   0.67319   0.00000  Uiso   1.00
C1048  C     0.16683   0.75333   0.74982   0.00000  Uiso   1.00
C1049  C     0.19344   0.83430   0.64775   0.00000  Uiso   1.00
C1050  C     0.25110   0.88747   0.51373   0.00000  Uiso   1.00
H1051  H     0.24622   0.91626   0.91836   0.00000  Uiso   1.00
C1052  C     0.20962   0.84256   0.58962   0.00000  Uiso   1.00
C1053  C     0.07913   0.81315   0.94159   0.00000  Uiso   1.00
C1054  C     0.06681   0.80918   0.99765   0.00000  Uiso   1.00
C1055  C     0.09849   0.82182   0.52329   0.00000  Uiso   1.00
C1056  C     0.14218   0.84143   0.99370   0.00000  Uiso   1.00
C1057  C     0.15010   0.85283   0.93961   0.00000  Uiso   1.00
C1058  C     0.17826   0.85016   0.51618   0.00000  Uiso   1.00
C1059  C     0.21623   0.87774   0.98969   0.00000  Uiso   1.00
C1060  C     0.21867   0.89443   0.93952   0.00000  Uiso   1.00
C1061  C     0.18655   0.88178   0.91450   0.00000  Uiso   1.00
C1062  C     0.17810   0.83073   0.56355   0.00000  Uiso   1.00
C1063  C     0.24754   0.87004   0.56421   0.00000  Uiso   1.00
C1064  C     0.12179   0.83448   0.91187   0.00000  Uiso   1.00
H1065  H     0.15200   0.80709   0.58255   0.00000  Uiso   1.00
H1066  H     0.08751   0.81683   0.56656   0.00000  Uiso   1.00
H1067  H     0.03388   0.79373   0.52108   0.00000  Uiso   1.00
H1068  H     0.19019   0.89542   0.87558   0.00000  Uiso   1.00
C1069  C     0.19861   0.97842   0.76955   0.00000  Uiso   1.00
H1070  H     0.22292   0.96185   0.78549   0.00000  Uiso   1.00
C1071  C     0.19893   0.68783   0.76918   0.00000  Uiso   1.00
H1072  H     0.22346   0.70411   0.78482   0.00000  Uiso   1.00
C1073  C     0.16704   0.70917   0.74953   0.00000  Uiso   1.00
C1074  C     0.13504   0.68821   0.72993   0.00000  Uiso   1.00
H1075  H     0.11059   0.70477   0.71420   0.00000  Uiso   1.00
C1076  C     0.13492   0.97879   0.73000   0.00000  Uiso   1.00
H1077  H     0.11045   0.96250   0.71429   0.00000  Uiso   1.00
C1078  C     0.16656   0.95746   0.75000   0.00000  Uiso   1.00
C1079  C     0.31515   0.79935   0.73200   0.00000  Uiso   1.00
H1080  H     0.30183   0.77216   0.71733   0.00000  Uiso   1.00
C1081  C     0.02967   0.79936   0.73199   0.00000  Uiso   1.00
H1082  H     0.05235   0.77221   0.71720   0.00000  Uiso   1.00
N1083  N     0.04760   0.83334   0.75002   0.00000  Uiso   1.00
C1084  C     0.01807   0.86744   0.76859   0.00000  Uiso   1.00
C1085  C     0.30344   0.86732   0.76796   0.00000  Uiso   1.00
H1086  H     0.28076   0.89467   0.78083   0.00000  Uiso   1.00
N1087  N     0.28573   0.83331   0.75001   0.00000  Uiso   1.00
N1088  N     0.28014   0.88281   0.59100   0.00000  Uiso   1.00
O1089  O     0.28348   0.92203   0.60202   0.00000  Uiso   1.00
O1090  O     0.30992   0.85587   0.59940   0.00000  Uiso   1.00
O1091  O     0.03727   0.90333   0.78182   0.00000  Uiso   1.00
C1092  C     0.01131   0.91624   0.83545   0.00000  Uiso   1.00
H1093  H     0.00321   0.88954   0.86431   0.00000  Uiso   1.00
H1094  H     0.31075   0.93222   0.83701   0.00000  Uiso   1.00
C1095  C     0.04151   0.94744   0.85336   0.00000  Uiso   1.00
H1096  H     0.05058   0.97425   0.82506   0.00000  Uiso   1.00
H1097  H     0.02123   0.95949   0.89458   0.00000  Uiso   1.00
H1098  H     0.07519   0.93224   0.85394   0.00000  Uiso   1.00
N1099  N     0.28912   0.91601   0.98830   0.00000  Uiso   1.00
O1100  O     0.00025   0.90508   0.97963   0.00000  Uiso   1.00
O1101  O     0.27888   0.95485   0.98243   0.00000  Uiso   1.00
N1102  N     0.04907   0.79378   0.91562   0.00000  Uiso   1.00
O1103  O     0.06649   0.76412   0.88011   0.00000  Uiso   1.00
O1104  O     0.00273   0.79950   0.93533   0.00000  Uiso   1.00
O1105  O     0.46179   0.89442   0.75001   0.00000  Uiso   1.00
O1106  O     0.53823   0.89441   0.75001   0.00000  Uiso   1.00
C1107  C     0.49989   0.91333   0.75008   0.00000  Uiso   1.00
O1108  O     0.44280   0.83333   0.82681   0.00000  Uiso   1.00
O1109  O     0.51924   0.83332   0.82681   0.00000  Uiso   1.00
C1110  C     0.47312   0.83398   0.85235   0.00000  Uiso   1.00
Zn1111 Zn    0.44896   0.83334   0.75000   0.00000  Uiso   1.00
Zn1112 Zn    0.55104   0.83333   0.75000   0.00000  Uiso   1.00
O1113  O     0.46177   0.77226   0.75000   0.00000  Uiso   1.00
O1114  O     0.53821   0.77225   0.75000   0.00000  Uiso   1.00
O1115  O     0.48076   0.83335   0.67319   0.00000  Uiso   1.00
O1116  O     0.55720   0.83334   0.67319   0.00000  Uiso   1.00
C1117  C     0.50016   0.75333   0.74982   0.00000  Uiso   1.00
C1118  C     0.52677   0.83430   0.64775   0.00000  Uiso   1.00
C1119  C     0.58443   0.88747   0.51373   0.00000  Uiso   1.00
H1120  H     0.57955   0.91626   0.91836   0.00000  Uiso   1.00
C1121  C     0.54296   0.84256   0.58962   0.00000  Uiso   1.00
C1122  C     0.41246   0.81315   0.94159   0.00000  Uiso   1.00
C1123  C     0.40015   0.80918   0.99765   0.00000  Uiso   1.00
C1124  C     0.43182   0.82182   0.52329   0.00000  Uiso   1.00
C1125  C     0.47551   0.84143   0.99370   0.00000  Uiso   1.00
C1126  C     0.48344   0.85283   0.93961   0.00000  Uiso   1.00
C1127  C     0.51159   0.85016   0.51618   0.00000  Uiso   1.00
C1128  C     0.54956   0.87774   0.98969   0.00000  Uiso   1.00
C1129  C     0.55200   0.89443   0.93952   0.00000  Uiso   1.00
C1130  C     0.51989   0.88178   0.91450   0.00000  Uiso   1.00
C1131  C     0.51143   0.83073   0.56355   0.00000  Uiso   1.00
C1132  C     0.58087   0.87004   0.56421   0.00000  Uiso   1.00
C1133  C     0.45512   0.83448   0.91187   0.00000  Uiso   1.00
H1134  H     0.48533   0.80709   0.58255   0.00000  Uiso   1.00
H1135  H     0.42085   0.81683   0.56656   0.00000  Uiso   1.00
H1136  H     0.36722   0.79373   0.52108   0.00000  Uiso   1.00
H1137  H     0.52352   0.89542   0.87558   0.00000  Uiso   1.00
C1138  C     0.53194   0.97842   0.76955   0.00000  Uiso   1.00
H1139  H     0.55626   0.96185   0.78549   0.00000  Uiso   1.00
C1140  C     0.53227   0.68783   0.76918   0.00000  Uiso   1.00
H1141  H     0.55679   0.70411   0.78482   0.00000  Uiso   1.00
C1142  C     0.50038   0.70917   0.74953   0.00000  Uiso   1.00
C1143  C     0.46837   0.68821   0.72993   0.00000  Uiso   1.00
H1144  H     0.44393   0.70477   0.71420   0.00000  Uiso   1.00
C1145  C     0.46825   0.97879   0.73000   0.00000  Uiso   1.00
H1146  H     0.44378   0.96250   0.71429   0.00000  Uiso   1.00
C1147  C     0.49990   0.95746   0.75000   0.00000  Uiso   1.00
C1148  C     0.64849   0.79935   0.73200   0.00000  Uiso   1.00
H1149  H     0.63517   0.77216   0.71733   0.00000  Uiso   1.00
C1150  C     0.36300   0.79936   0.73199   0.00000  Uiso   1.00
H1151  H     0.38569   0.77221   0.71720   0.00000  Uiso   1.00
N1152  N     0.38093   0.83334   0.75002   0.00000  Uiso   1.00
C1153  C     0.35140   0.86744   0.76859   0.00000  Uiso   1.00
C1154  C     0.63678   0.86732   0.76796   0.00000  Uiso   1.00
H1155  H     0.61409   0.89467   0.78083   0.00000  Uiso   1.00
N1156  N     0.61906   0.83331   0.75001   0.00000  Uiso   1.00
N1157  N     0.61347   0.88281   0.59100   0.00000  Uiso   1.00
O1158  O     0.61682   0.92203   0.60202   0.00000  Uiso   1.00
O1159  O     0.64326   0.85587   0.59940   0.00000  Uiso   1.00
O1160  O     0.37060   0.90333   0.78182   0.00000  Uiso   1.00
C1161  C     0.34465   0.91624   0.83545   0.00000  Uiso   1.00
H1162  H     0.33654   0.88954   0.86431   0.00000  Uiso   1.00
H1163  H     0.64408   0.93222   0.83701   0.00000  Uiso   1.00
C1164  C     0.37484   0.94744   0.85336   0.00000  Uiso   1.00
H1165  H     0.38391   0.97425   0.82506   0.00000  Uiso   1.00
H1166  H     0.35456   0.95949   0.89458   0.00000  Uiso   1.00
H1167  H     0.40853   0.93224   0.85394   0.00000  Uiso   1.00
N1168  N     0.62246   0.91601   0.98830   0.00000  Uiso   1.00
O1169  O     0.33358   0.90508   0.97963   0.00000  Uiso   1.00
O1170  O     0.61222   0.95485   0.98243   0.00000  Uiso   1.00
N1171  N     0.38241   0.79378   0.91562   0.00000  Uiso   1.00
O1172  O     0.39983   0.76412   0.88011   0.00000  Uiso   1.00
O1173  O     0.33606   0.79950   0.93533   0.00000  Uiso   1.00
O1174  O     0.79512   0.89442   0.75001   0.00000  Uiso   1.00
O1175  O     0.87157   0.89441   0.75001   0.00000  Uiso   1.00
C1176  C     0.83322   0.91333   0.75008   0.00000  Uiso   1.00
O1177  O     0.77613   0.83333   0.82681   0.00000  Uiso   1.00
O1178  O     0.85258   0.83332   0.82681   0.00000  Uiso   1.00
C1179  C     0.80646   0.83398   0.85235   0.00000  Uiso   1.00
Zn1180 Zn    0.78229   0.83334   0.75000   0.00000  Uiso   1.00
Zn1181 Zn    0.88438   0.83333   0.75000   0.00000  Uiso   1.00
O1182  O     0.79510   0.77226   0.75000   0.00000  Uiso   1.00
O1183  O     0.87154   0.77225   0.75000   0.00000  Uiso   1.00
O1184  O     0.81409   0.83335   0.67319   0.00000  Uiso   1.00
O1185  O     0.89053   0.83334   0.67319   0.00000  Uiso   1.00
C1186  C     0.83350   0.75333   0.74982   0.00000  Uiso   1.00
C1187  C     0.86010   0.83430   0.64775   0.00000  Uiso   1.00
C1188  C     0.91777   0.88747   0.51373   0.00000  Uiso   1.00
H1189  H     0.91288   0.91626   0.91836   0.00000  Uiso   1.00
C1190  C     0.87629   0.84256   0.58962   0.00000  Uiso   1.00
C1191  C     0.74580   0.81315   0.94159   0.00000  Uiso   1.00
C1192  C     0.73348   0.80918   0.99765   0.00000  Uiso   1.00
C1193  C     0.76516   0.82182   0.52329   0.00000  Uiso   1.00
C1194  C     0.80884   0.84143   0.99370   0.00000  Uiso   1.00
C1195  C     0.81677   0.85283   0.93961   0.00000  Uiso   1.00
C1196  C     0.84492   0.85016   0.51618   0.00000  Uiso   1.00
C1197  C     0.88289   0.87774   0.98969   0.00000  Uiso   1.00
C1198  C     0.88534   0.89443   0.93952   0.00000  Uiso   1.00
C1199  C     0.85322   0.88178   0.91450   0.00000  Uiso   1.00
C1200  C     0.84477   0.83073   0.56355   0.00000  Uiso   1.00
C1201  C     0.91420   0.87004   0.56421   0.00000  Uiso   1.00
C1202  C     0.78845   0.83448   0.91187   0.00000  Uiso   1.00
H1203  H     0.81867   0.80709   0.58255   0.00000  Uiso   1.00
H1204  H     0.75418   0.81683   0.56656   0.00000  Uiso   1.00
H1205  H     0.70055   0.79373   0.52108   0.00000  Uiso   1.00
H1206  H     0.85686   0.89542   0.87558   0.00000  Uiso   1.00
C1207  C     0.86528   0.97842   0.76955   0.00000  Uiso   1.00
H1208  H     0.88959   0.96185   0.78549   0.00000  Uiso   1.00
C1209  C     0.86560   0.68783   0.76918   0.00000  Uiso   1.00
H1210  H     0.89013   0.70411   0.78482   0.00000  Uiso   1.00
C1211  C     0.83371   0.70917   0.74953   0.00000  Uiso   1.00
C1212  C     0.80171   0.68821   0.72993   0.00000  Uiso   1.00
H1213  H     0.77726   0.70477   0.71420   0.00000  Uiso   1.00
C1214  C     0.80159   0.97879   0.73000   0.00000  Uiso   1.00
H1215  H     0.77711   0.96250   0.71429   0.00000  Uiso   1.00
C1216  C     0.83323   0.95746   0.75000   0.00000  Uiso   1.00
C1217  C     0.98182   0.79935   0.73200   0.00000  Uiso   1.00
H1218  H     0.96850   0.77216   0.71733   0.00000  Uiso   1.00
C1219  C     0.69633   0.79936   0.73199   0.00000  Uiso   1.00
H1220  H     0.71902   0.77221   0.71720   0.00000  Uiso   1.00
N1221  N     0.71426   0.83334   0.75002   0.00000  Uiso   1.00
C1222  C     0.68474   0.86744   0.76859   0.00000  Uiso   1.00
C1223  C     0.97011   0.86732   0.76796   0.00000  Uiso   1.00
H1224  H     0.94742   0.89467   0.78083   0.00000  Uiso   1.00
N1225  N     0.95239   0.83331   0.75001   0.00000  Uiso   1.00
N1226  N     0.94681   0.88281   0.59100   0.00000  Uiso   1.00
O1227  O     0.95015   0.92203   0.60202   0.00000  Uiso   1.00
O1228  O     0.97659   0.85587   0.59940   0.00000  Uiso   1.00
O1229  O     0.70394   0.90333   0.78182   0.00000  Uiso   1.00
C1230  C     0.67798   0.91624   0.83545   0.00000  Uiso   1.00
H1231  H     0.66987   0.88954   0.86431   0.00000  Uiso   1.00
H1232  H     0.97742   0.93222   0.83701   0.00000  Uiso   1.00
C1233  C     0.70817   0.94744   0.85336   0.00000  Uiso   1.00
H1234  H     0.71724   0.97425   0.82506   0.00000  Uiso   1.00
H1235  H     0.68789   0.95949   0.89458   0.00000  Uiso   1.00
H1236  H     0.74186   0.93224   0.85394   0.00000  Uiso   1.00
N1237  N     0.95579   0.91601   0.98830   0.00000  Uiso   1.00
O1238  O     0.66692   0.90508   0.97963   0.00000  Uiso   1.00
O1239  O     0.94555   0.95485   0.98243   0.00000  Uiso   1.00
N1240  N     0.71574   0.79378   0.91562   0.00000  Uiso   1.00
O1241  O     0.73316   0.76412   0.88011   0.00000  Uiso   1.00
O1242  O     0.66939   0.79950   0.93533   0.00000  Uiso   1.00
loop_
_geom_bond_atom_site_label_1
_geom_bond_atom_site_label_2
_geom_bond_distance
_geom_bond_site_symmetry_2
_ccdc_geom_bond_type
O1     Zn7     1.997   .     S
O1     C3      1.285   .     A
O2     C3      1.282   .     A
O2     Zn8     1.991   .     S
C3     C43     1.415   .     S
O4     Zn7     1.957   .     S
O4     C6      1.290   .     A
O5     Zn8     1.908   .     S
O5     C6      1.299   .     A
C6     C29     1.465   .     S
Zn7    N48     2.013   .     S
Zn7    O11     1.908   .     S
Zn7    O9      1.991   .     S
Zn8    N52     2.013   .     S
Zn8    O12     1.957   .     S
Zn8    O10     1.997   .     S
O9     C13     1.282   .     A
O10    C13     1.285   .     A
O11    C14     1.296   .     A
O12    C14     1.290   .     A
C13    C38     1.415   .     S
C14    C17     1.458   .     S
C15    C28     1.408   .     A
C15    C645    1.416   1_554 S
C15    N685    1.434   1_554 S
H16    C25     1.079   .     S
C17    C27     1.385   .     A
C17    C28     1.410   .     A
C18    C29     1.419   .     A
C18    C19     1.394   .     A
C18    N67     1.435   .     S
C19    C641    1.389   .     S
C19    H653    1.083   .     S
C20    H31     1.080   .     S
C20    C640    1.389   1_554 S
C20    C642    1.414   1_554 S
C21    C22     1.405   .     A
C21    C641    1.414   .     S
C21    C644    1.413   .     S
C22    C29     1.413   .     A
C22    C26     1.412   .     A
C23    C27     1.389   .     A
C23    C642    1.413   1_554 S
C23    C645    1.419   1_554 S
C24    C25     1.400   .     A
C24    C636    1.416   .     S
C24    C644    1.419   .     S
C25    C26     1.388   .     A
C26    H33     1.082   .     S
C27    H30     1.081   .     S
C28    N53     1.434   .     S
H32    C640    1.083   1_554 S
C34    H35     1.084   .     S
C34    C43     1.397   .     A
C34    C243    1.370   .     S
C36    C38     1.395   .     A
C36    H37     1.084   .     S
C36    C448    1.370   1_545 S
C38    C39     1.397   .     A
C39    H40     1.084   .     S
C39    C455    1.370   1_545 S
C41    H42     1.084   .     S
C41    C43     1.395   .     A
C41    C246    1.370   .     S
C44    N52     1.366   .     A
C44    H45     1.081   .     S
C44    C115    1.416   .     S
C46    N48     1.367   .     A
C46    H47     1.081   .     S
C46    C182    1.416   1_455 S
N48    C49     1.373   .     A
C49    O56     1.381   .     S
C49    C188    1.425   1_455 S
C50    N52     1.363   .     A
C50    H51     1.080   .     S
C50    C118    1.425   .     S
N53    O54     1.301   .     A
N53    O55     1.301   .     A
O56    C57     1.410   .     S
C57    H58     1.116   .     S
C57    C60     1.522   .     S
C57    H197    1.111   1_455 S
H59    C126    1.111   .     S
C60    H62     1.107   .     S
C60    H63     1.111   .     S
C60    H61     1.110   .     S
N64    O66     1.301   .     A
N64    C636    1.434   .     S
N64    O134    1.301   .     S
O65    N202    1.301   1_455 S
N67    O68     1.301   .     A
N67    O69     1.301   .     A
O70    Zn76    1.997   .     S
O70    C72     1.285   .     A
O71    C72     1.282   .     A
O71    Zn77    1.991   .     S
C72    C112    1.415   .     S
O73    Zn76    1.957   .     S
O73    C75     1.290   .     A
O74    Zn77    1.908   .     S
O74    C75     1.299   .     A
C75    C98     1.465   .     S
Zn76   N117    2.013   .     S
Zn76   O80     1.908   .     S
Zn76   O78     1.991   .     S
Zn77   N121    2.013   .     S
Zn77   O81     1.957   .     S
Zn77   O79     1.997   .     S
O78    C82     1.282   .     A
O79    C82     1.285   .     A
O80    C83     1.296   .     A
O81    C83     1.290   .     A
C82    C107    1.415   .     S
C83    C86     1.458   .     S
C84    C97     1.408   .     A
C84    C714    1.416   1_554 S
C84    N754    1.434   1_554 S
H85    C94     1.079   .     S
C86    C96     1.385   .     A
C86    C97     1.410   .     A
C87    C98     1.419   .     A
C87    C88     1.394   .     A
C87    N136    1.435   .     S
C88    C710    1.389   .     S
C88    H722    1.083   .     S
C89    H100    1.080   .     S
C89    C709    1.389   1_554 S
C89    C711    1.414   1_554 S
C90    C91     1.405   .     A
C90    C710    1.414   .     S
C90    C713    1.413   .     S
C91    C98     1.413   .     A
C91    C95     1.412   .     A
C92    C96     1.389   .     A
C92    C711    1.413   1_554 S
C92    C714    1.419   1_554 S
C93    C94     1.400   .     A
C93    C705    1.416   .     S
C93    C713    1.419   .     S
C94    C95     1.388   .     A
C95    H102    1.082   .     S
C96    H99     1.081   .     S
C97    N122    1.434   .     S
H101   C709    1.083   1_554 S
C103   H104    1.084   .     S
C103   C112    1.397   .     A
C103   C312    1.370   .     S
C105   C107    1.395   .     A
C105   H106    1.084   .     S
C105   C517    1.370   1_545 S
C107   C108    1.397   .     A
C108   H109    1.084   .     S
C108   C524    1.370   1_545 S
C110   H111    1.084   .     S
C110   C112    1.395   .     A
C110   C315    1.370   .     S
C113   N121    1.366   .     A
C113   H114    1.081   .     S
C113   C184    1.416   .     S
C115   N117    1.367   .     A
C115   H116    1.081   .     S
N117   C118    1.373   .     A
C118   O125    1.381   .     S
C119   N121    1.363   .     A
C119   H120    1.080   .     S
C119   C187    1.425   .     S
N122   O123    1.301   .     A
N122   O124    1.301   .     A
O125   C126    1.410   .     S
C126   H127    1.116   .     S
C126   C129    1.522   .     S
H128   C195    1.111   .     S
C129   H131    1.107   .     S
C129   H132    1.111   .     S
C129   H130    1.110   .     S
N133   O135    1.301   .     A
N133   C705    1.434   .     S
N133   O203    1.301   .     S
N136   O137    1.301   .     A
N136   O138    1.301   .     A
O139   Zn145   1.997   .     S
O139   C141    1.285   .     A
O140   C141    1.282   .     A
O140   Zn146   1.991   .     S
C141   C181    1.415   .     S
O142   Zn145   1.957   .     S
O142   C144    1.290   .     A
O143   Zn146   1.908   .     S
O143   C144    1.299   .     A
C144   C167    1.465   .     S
Zn145  N186    2.013   .     S
Zn145  O149    1.908   .     S
Zn145  O147    1.991   .     S
Zn146  N190    2.013   .     S
Zn146  O150    1.957   .     S
Zn146  O148    1.997   .     S
O147   C151    1.282   .     A
O148   C151    1.285   .     A
O149   C152    1.296   .     A
O150   C152    1.290   .     A
C151   C176    1.415   .     S
C152   C155    1.458   .     S
C153   C166    1.408   .     A
C153   C783    1.416   1_554 S
C153   N823    1.434   1_554 S
H154   C163    1.079   .     S
C155   C165    1.385   .     A
C155   C166    1.410   .     A
C156   C167    1.419   .     A
C156   C157    1.394   .     A
C156   N205    1.435   .     S
C157   C779    1.389   .     S
C157   H791    1.083   .     S
C158   H169    1.080   .     S
C158   C778    1.389   1_554 S
C158   C780    1.414   1_554 S
C159   C160    1.405   .     A
C159   C779    1.414   .     S
C159   C782    1.413   .     S
C160   C167    1.413   .     A
C160   C164    1.412   .     A
C161   C165    1.389   .     A
C161   C780    1.413   1_554 S
C161   C783    1.419   1_554 S
C162   C163    1.400   .     A
C162   C774    1.416   .     S
C162   C782    1.419   .     S
C163   C164    1.388   .     A
C164   H171    1.082   .     S
C165   H168    1.081   .     S
C166   N191    1.434   .     S
H170   C778    1.083   1_554 S
C172   H173    1.084   .     S
C172   C181    1.397   .     A
C172   C381    1.370   .     S
C174   C176    1.395   .     A
C174   H175    1.084   .     S
C174   C586    1.370   1_545 S
C176   C177    1.397   .     A
C177   H178    1.084   .     S
C177   C593    1.370   1_545 S
C179   H180    1.084   .     S
C179   C181    1.395   .     A
C179   C384    1.370   .     S
C182   N190    1.366   .     A
C182   H183    1.081   .     S
C182   C46     1.416   1_655 S
C184   N186    1.367   .     A
C184   H185    1.081   .     S
N186   C187    1.373   .     A
C187   O194    1.381   .     S
C188   N190    1.363   .     A
C188   H189    1.080   .     S
C188   C49     1.425   1_655 S
N191   O192    1.301   .     A
N191   O193    1.301   .     A
O194   C195    1.410   .     S
C195   H196    1.116   .     S
C195   C198    1.522   .     S
H197   C57     1.111   1_655 S
C198   H200    1.107   .     S
C198   H201    1.111   .     S
C198   H199    1.110   .     S
N202   O204    1.301   .     A
N202   C774    1.434   .     S
N202   O65     1.301   1_655 S
N205   O206    1.301   .     A
N205   O207    1.301   .     A
O208   Zn214   1.997   .     S
O208   C210    1.285   .     A
O209   C210    1.282   .     A
O209   Zn215   1.991   .     S
C210   C250    1.415   .     S
O211   Zn214   1.957   .     S
O211   C213    1.290   .     A
O212   Zn215   1.908   .     S
O212   C213    1.299   .     A
C213   C236    1.465   .     S
Zn214  N255    2.013   .     S
Zn214  O218    1.908   .     S
Zn214  O216    1.991   .     S
Zn215  N259    2.013   .     S
Zn215  O219    1.957   .     S
Zn215  O217    1.997   .     S
O216   C220    1.282   .     A
O217   C220    1.285   .     A
O218   C221    1.296   .     A
O219   C221    1.290   .     A
C220   C245    1.415   .     S
C221   C224    1.458   .     S
C222   C235    1.408   .     A
C222   C852    1.416   1_554 S
C222   N892    1.434   1_554 S
H223   C232    1.079   .     S
C224   C234    1.385   .     A
C224   C235    1.410   .     A
C225   C236    1.419   .     A
C225   C226    1.394   .     A
C225   N274    1.435   .     S
C226   C848    1.389   .     S
C226   H860    1.083   .     S
C227   H238    1.080   .     S
C227   C847    1.389   1_554 S
C227   C849    1.414   1_554 S
C228   C229    1.405   .     A
C228   C848    1.414   .     S
C228   C851    1.413   .     S
C229   C236    1.413   .     A
C229   C233    1.412   .     A
C230   C234    1.389   .     A
C230   C849    1.413   1_554 S
C230   C852    1.419   1_554 S
C231   C232    1.400   .     A
C231   C843    1.416   .     S
C231   C851    1.419   .     S
C232   C233    1.388   .     A
C233   H240    1.082   .     S
C234   H237    1.081   .     S
C235   N260    1.434   .     S
H239   C847    1.083   1_554 S
C241   H242    1.084   .     S
C241   C250    1.397   .     A
C241   C450    1.370   .     S
C243   C245    1.395   .     A
C243   H244    1.084   .     S
C245   C246    1.397   .     A
C246   H247    1.084   .     S
C248   H249    1.084   .     S
C248   C250    1.395   .     A
C248   C453    1.370   .     S
C251   N259    1.366   .     A
C251   H252    1.081   .     S
C251   C322    1.416   .     S
C253   N255    1.367   .     A
C253   H254    1.081   .     S
C253   C389    1.416   1_455 S
N255   C256    1.373   .     A
C256   O263    1.381   .     S
C256   C395    1.425   1_455 S
C257   N259    1.363   .     A
C257   H258    1.080   .     S
C257   C325    1.425   .     S
N260   O261    1.301   .     A
N260   O262    1.301   .     A
O263   C264    1.410   .     S
C264   H265    1.116   .     S
C264   C267    1.522   .     S
C264   H404    1.111   1_455 S
H266   C333    1.111   .     S
C267   H269    1.107   .     S
C267   H270    1.111   .     S
C267   H268    1.110   .     S
N271   O273    1.301   .     A
N271   C843    1.434   .     S
N271   O341    1.301   .     S
O272   N409    1.301   1_455 S
N274   O275    1.301   .     A
N274   O276    1.301   .     A
O277   Zn283   1.997   .     S
O277   C279    1.285   .     A
O278   C279    1.282   .     A
O278   Zn284   1.991   .     S
C279   C319    1.415   .     S
O280   Zn283   1.957   .     S
O280   C282    1.290   .     A
O281   Zn284   1.908   .     S
O281   C282    1.299   .     A
C282   C305    1.465   .     S
Zn283  N324    2.013   .     S
Zn283  O287    1.908   .     S
Zn283  O285    1.991   .     S
Zn284  N328    2.013   .     S
Zn284  O288    1.957   .     S
Zn284  O286    1.997   .     S
O285   C289    1.282   .     A
O286   C289    1.285   .     A
O287   C290    1.296   .     A
O288   C290    1.290   .     A
C289   C314    1.415   .     S
C290   C293    1.458   .     S
C291   C304    1.408   .     A
C291   C921    1.416   1_554 S
C291   N961    1.434   1_554 S
H292   C301    1.079   .     S
C293   C303    1.385   .     A
C293   C304    1.410   .     A
C294   C305    1.419   .     A
C294   C295    1.394   .     A
C294   N343    1.435   .     S
C295   C917    1.389   .     S
C295   H929    1.083   .     S
C296   H307    1.080   .     S
C296   C916    1.389   1_554 S
C296   C918    1.414   1_554 S
C297   C298    1.405   .     A
C297   C917    1.414   .     S
C297   C920    1.413   .     S
C298   C305    1.413   .     A
C298   C302    1.412   .     A
C299   C303    1.389   .     A
C299   C918    1.413   1_554 S
C299   C921    1.419   1_554 S
C300   C301    1.400   .     A
C300   C912    1.416   .     S
C300   C920    1.419   .     S
C301   C302    1.388   .     A
C302   H309    1.082   .     S
C303   H306    1.081   .     S
C304   N329    1.434   .     S
H308   C916    1.083   1_554 S
C310   H311    1.084   .     S
C310   C319    1.397   .     A
C310   C519    1.370   .     S
C312   C314    1.395   .     A
C312   H313    1.084   .     S
C314   C315    1.397   .     A
C315   H316    1.084   .     S
C317   H318    1.084   .     S
C317   C319    1.395   .     A
C317   C522    1.370   .     S
C320   N328    1.366   .     A
C320   H321    1.081   .     S
C320   C391    1.416   .     S
C322   N324    1.367   .     A
C322   H323    1.081   .     S
N324   C325    1.373   .     A
C325   O332    1.381   .     S
C326   N328    1.363   .     A
C326   H327    1.080   .     S
C326   C394    1.425   .     S
N329   O330    1.301   .     A
N329   O331    1.301   .     A
O332   C333    1.410   .     S
C333   H334    1.116   .     S
C333   C336    1.522   .     S
H335   C402    1.111   .     S
C336   H338    1.107   .     S
C336   H339    1.111   .     S
C336   H337    1.110   .     S
N340   O342    1.301   .     A
N340   C912    1.434   .     S
N340   O410    1.301   .     S
N343   O344    1.301   .     A
N343   O345    1.301   .     A
O346   Zn352   1.997   .     S
O346   C348    1.285   .     A
O347   C348    1.282   .     A
O347   Zn353   1.991   .     S
C348   C388    1.415   .     S
O349   Zn352   1.957   .     S
O349   C351    1.290   .     A
O350   Zn353   1.908   .     S
O350   C351    1.299   .     A
C351   C374    1.465   .     S
Zn352  N393    2.013   .     S
Zn352  O356    1.908   .     S
Zn352  O354    1.991   .     S
Zn353  N397    2.013   .     S
Zn353  O357    1.957   .     S
Zn353  O355    1.997   .     S
O354   C358    1.282   .     A
O355   C358    1.285   .     A
O356   C359    1.296   .     A
O357   C359    1.290   .     A
C358   C383    1.415   .     S
C359   C362    1.458   .     S
C360   C373    1.408   .     A
C360   C990    1.416   1_554 S
C360   N1030   1.434   1_554 S
H361   C370    1.079   .     S
C362   C372    1.385   .     A
C362   C373    1.410   .     A
C363   C374    1.419   .     A
C363   C364    1.394   .     A
C363   N412    1.435   .     S
C364   C986    1.389   .     S
C364   H998    1.083   .     S
C365   H376    1.080   .     S
C365   C985    1.389   1_554 S
C365   C987    1.414   1_554 S
C366   C367    1.405   .     A
C366   C986    1.414   .     S
C366   C989    1.413   .     S
C367   C374    1.413   .     A
C367   C371    1.412   .     A
C368   C372    1.389   .     A
C368   C987    1.413   1_554 S
C368   C990    1.419   1_554 S
C369   C370    1.400   .     A
C369   C981    1.416   .     S
C369   C989    1.419   .     S
C370   C371    1.388   .     A
C371   H378    1.082   .     S
C372   H375    1.081   .     S
C373   N398    1.434   .     S
H377   C985    1.083   1_554 S
C379   H380    1.084   .     S
C379   C388    1.397   .     A
C379   C588    1.370   .     S
C381   C383    1.395   .     A
C381   H382    1.084   .     S
C383   C384    1.397   .     A
C384   H385    1.084   .     S
C386   H387    1.084   .     S
C386   C388    1.395   .     A
C386   C591    1.370   .     S
C389   N397    1.366   .     A
C389   H390    1.081   .     S
C389   C253    1.416   1_655 S
C391   N393    1.367   .     A
C391   H392    1.081   .     S
N393   C394    1.373   .     A
C394   O401    1.381   .     S
C395   N397    1.363   .     A
C395   H396    1.080   .     S
C395   C256    1.425   1_655 S
N398   O399    1.301   .     A
N398   O400    1.301   .     A
O401   C402    1.410   .     S
C402   H403    1.116   .     S
C402   C405    1.522   .     S
H404   C264    1.111   1_655 S
C405   H407    1.107   .     S
C405   H408    1.111   .     S
C405   H406    1.110   .     S
N409   O411    1.301   .     A
N409   C981    1.434   .     S
N409   O272    1.301   1_655 S
N412   O413    1.301   .     A
N412   O414    1.301   .     A
O415   Zn421   1.997   .     S
O415   C417    1.285   .     A
O416   C417    1.282   .     A
O416   Zn422   1.991   .     S
C417   C457    1.415   .     S
O418   Zn421   1.957   .     S
O418   C420    1.290   .     A
O419   Zn422   1.908   .     S
O419   C420    1.299   .     A
C420   C443    1.465   .     S
Zn421  N462    2.013   .     S
Zn421  O425    1.908   .     S
Zn421  O423    1.991   .     S
Zn422  N466    2.013   .     S
Zn422  O426    1.957   .     S
Zn422  O424    1.997   .     S
O423   C427    1.282   .     A
O424   C427    1.285   .     A
O425   C428    1.296   .     A
O426   C428    1.290   .     A
C427   C452    1.415   .     S
C428   C431    1.458   .     S
C429   C442    1.408   .     A
C429   C1059   1.416   1_554 S
C429   N1099   1.434   1_554 S
H430   C439    1.079   .     S
C431   C441    1.385   .     A
C431   C442    1.410   .     A
C432   C443    1.419   .     A
C432   C433    1.394   .     A
C432   N481    1.435   .     S
C433   C1055   1.389   .     S
C433   H1067   1.083   .     S
C434   H445    1.080   .     S
C434   C1054   1.389   1_554 S
C434   C1056   1.414   1_554 S
C435   C436    1.405   .     A
C435   C1055   1.414   .     S
C435   C1058   1.413   .     S
C436   C443    1.413   .     A
C436   C440    1.412   .     A
C437   C441    1.389   .     A
C437   C1056   1.413   1_554 S
C437   C1059   1.419   1_554 S
C438   C439    1.400   .     A
C438   C1050   1.416   .     S
C438   C1058   1.419   .     S
C439   C440    1.388   .     A
C440   H447    1.082   .     S
C441   H444    1.081   .     S
C442   N467    1.434   .     S
H446   C1054   1.083   1_554 S
C448   H449    1.084   .     S
C448   C457    1.397   .     A
C448   C36     1.370   1_565 S
C450   C452    1.395   .     A
C450   H451    1.084   .     S
C452   C453    1.397   .     A
C453   H454    1.084   .     S
C455   H456    1.084   .     S
C455   C457    1.395   .     A
C455   C39     1.370   1_565 S
C458   N466    1.366   .     A
C458   H459    1.081   .     S
C458   C529    1.416   .     S
C460   N462    1.367   .     A
C460   H461    1.081   .     S
C460   C596    1.416   1_455 S
N462   C463    1.373   .     A
C463   O470    1.381   .     S
C463   C602    1.425   1_455 S
C464   N466    1.363   .     A
C464   H465    1.080   .     S
C464   C532    1.425   .     S
N467   O468    1.301   .     A
N467   O469    1.301   .     A
O470   C471    1.410   .     S
C471   H472    1.116   .     S
C471   C474    1.522   .     S
C471   H611    1.111   1_455 S
H473   C540    1.111   .     S
C474   H476    1.107   .     S
C474   H477    1.111   .     S
C474   H475    1.110   .     S
N478   O480    1.301   .     A
N478   C1050   1.434   .     S
N478   O548    1.301   .     S
O479   N616    1.301   1_455 S
N481   O482    1.301   .     A
N481   O483    1.301   .     A
O484   Zn490   1.997   .     S
O484   C486    1.285   .     A
O485   C486    1.282   .     A
O485   Zn491   1.991   .     S
C486   C526    1.415   .     S
O487   Zn490   1.957   .     S
O487   C489    1.290   .     A
O488   Zn491   1.908   .     S
O488   C489    1.299   .     A
C489   C512    1.465   .     S
Zn490  N531    2.013   .     S
Zn490  O494    1.908   .     S
Zn490  O492    1.991   .     S
Zn491  N535    2.013   .     S
Zn491  O495    1.957   .     S
Zn491  O493    1.997   .     S
O492   C496    1.282   .     A
O493   C496    1.285   .     A
O494   C497    1.296   .     A
O495   C497    1.290   .     A
C496   C521    1.415   .     S
C497   C500    1.458   .     S
C498   C511    1.408   .     A
C498   C1128   1.416   1_554 S
C498   N1168   1.434   1_554 S
H499   C508    1.079   .     S
C500   C510    1.385   .     A
C500   C511    1.410   .     A
C501   C512    1.419   .     A
C501   C502    1.394   .     A
C501   N550    1.435   .     S
C502   C1124   1.389   .     S
C502   H1136   1.083   .     S
C503   H514    1.080   .     S
C503   C1123   1.389   1_554 S
C503   C1125   1.414   1_554 S
C504   C505    1.405   .     A
C504   C1124   1.414   .     S
C504   C1127   1.413   .     S
C505   C512    1.413   .     A
C505   C509    1.412   .     A
C506   C510    1.389   .     A
C506   C1125   1.413   1_554 S
C506   C1128   1.419   1_554 S
C507   C508    1.400   .     A
C507   C1119   1.416   .     S
C507   C1127   1.419   .     S
C508   C509    1.388   .     A
C509   H516    1.082   .     S
C510   H513    1.081   .     S
C511   N536    1.434   .     S
H515   C1123   1.083   1_554 S
C517   H518    1.084   .     S
C517   C526    1.397   .     A
C517   C105    1.370   1_565 S
C519   C521    1.395   .     A
C519   H520    1.084   .     S
C521   C522    1.397   .     A
C522   H523    1.084   .     S
C524   H525    1.084   .     S
C524   C526    1.395   .     A
C524   C108    1.370   1_565 S
C527   N535    1.366   .     A
C527   H528    1.081   .     S
C527   C598    1.416   .     S
C529   N531    1.367   .     A
C529   H530    1.081   .     S
N531   C532    1.373   .     A
C532   O539    1.381   .     S
C533   N535    1.363   .     A
C533   H534    1.080   .     S
C533   C601    1.425   .     S
N536   O537    1.301   .     A
N536   O538    1.301   .     A
O539   C540    1.410   .     S
C540   H541    1.116   .     S
C540   C543    1.522   .     S
H542   C609    1.111   .     S
C543   H545    1.107   .     S
C543   H546    1.111   .     S
C543   H544    1.110   .     S
N547   O549    1.301   .     A
N547   C1119   1.434   .     S
N547   O617    1.301   .     S
N550   O551    1.301   .     A
N550   O552    1.301   .     A
O553   Zn559   1.997   .     S
O553   C555    1.285   .     A
O554   C555    1.282   .     A
O554   Zn560   1.991   .     S
C555   C595    1.415   .     S
O556   Zn559   1.957   .     S
O556   C558    1.290   .     A
O557   Zn560   1.908   .     S
O557   C558    1.299   .     A
C558   C581    1.465   .     S
Zn559  N600    2.013   .     S
Zn559  O563    1.908   .     S
Zn559  O561    1.991   .     S
Zn560  N604    2.013   .     S
Zn560  O564    1.957   .     S
Zn560  O562    1.997   .     S
O561   C565    1.282   .     A
O562   C565    1.285   .     A
O563   C566    1.296   .     A
O564   C566    1.290   .     A
C565   C590    1.415   .     S
C566   C569    1.458   .     S
C567   C580    1.408   .     A
C567   C1197   1.416   1_554 S
C567   N1237   1.434   1_554 S
H568   C577    1.079   .     S
C569   C579    1.385   .     A
C569   C580    1.410   .     A
C570   C581    1.419   .     A
C570   C571    1.394   .     A
C570   N619    1.435   .     S
C571   C1193   1.389   .     S
C571   H1205   1.083   .     S
C572   H583    1.080   .     S
C572   C1192   1.389   1_554 S
C572   C1194   1.414   1_554 S
C573   C574    1.405   .     A
C573   C1193   1.414   .     S
C573   C1196   1.413   .     S
C574   C581    1.413   .     A
C574   C578    1.412   .     A
C575   C579    1.389   .     A
C575   C1194   1.413   1_554 S
C575   C1197   1.419   1_554 S
C576   C577    1.400   .     A
C576   C1188   1.416   .     S
C576   C1196   1.419   .     S
C577   C578    1.388   .     A
C578   H585    1.082   .     S
C579   H582    1.081   .     S
C580   N605    1.434   .     S
H584   C1192   1.083   1_554 S
C586   H587    1.084   .     S
C586   C595    1.397   .     A
C586   C174    1.370   1_565 S
C588   C590    1.395   .     A
C588   H589    1.084   .     S
C590   C591    1.397   .     A
C591   H592    1.084   .     S
C593   H594    1.084   .     S
C593   C595    1.395   .     A
C593   C177    1.370   1_565 S
C596   N604    1.366   .     A
C596   H597    1.081   .     S
C596   C460    1.416   1_655 S
C598   N600    1.367   .     A
C598   H599    1.081   .     S
N600   C601    1.373   .     A
C601   O608    1.381   .     S
C602   N604    1.363   .     A
C602   H603    1.080   .     S
C602   C463    1.425   1_655 S
N605   O606    1.301   .     A
N605   O607    1.301   .     A
O608   C609    1.410   .     S
C609   H610    1.116   .     S
C609   C612    1.522   .     S
H611   C471    1.111   1_655 S
C612   H614    1.107   .     S
C612   H615    1.111   .     S
C612   H613    1.110   .     S
N616   O618    1.301   .     A
N616   C1188   1.434   .     S
N616   O479    1.301   1_655 S
N619   O620    1.301   .     A
N619   O621    1.301   .     A
O622   Zn628   1.997   .     S
O622   C624    1.285   .     A
O623   C624    1.282   .     A
O623   Zn629   1.991   .     S
C624   C664    1.415   .     S
O625   Zn628   1.957   .     S
O625   C627    1.290   .     A
O626   Zn629   1.908   .     S
O626   C627    1.299   .     A
C627   C650    1.465   .     S
Zn628  N669    2.013   .     S
Zn628  O632    1.908   .     S
Zn628  O630    1.991   .     S
Zn629  N673    2.013   .     S
Zn629  O633    1.957   .     S
Zn629  O631    1.997   .     S
O630   C634    1.282   .     A
O631   C634    1.285   .     A
O632   C635    1.296   .     A
O633   C635    1.290   .     A
C634   C659    1.415   .     S
C635   C638    1.458   .     S
C636   C649    1.408   .     A
H637   C646    1.079   .     S
C638   C648    1.385   .     A
C638   C649    1.410   .     A
C639   C650    1.419   .     A
C639   C640    1.394   .     A
C639   N688    1.435   .     S
C640   C20     1.389   1_556 S
C640   H32     1.083   1_556 S
C641   H652    1.080   .     S
C642   C643    1.405   .     A
C642   C20     1.414   1_556 S
C642   C23     1.413   1_556 S
C643   C650    1.413   .     A
C643   C647    1.412   .     A
C644   C648    1.389   .     A
C645   C646    1.400   .     A
C645   C15     1.416   1_556 S
C645   C23     1.419   1_556 S
C646   C647    1.388   .     A
C647   H654    1.082   .     S
C648   H651    1.081   .     S
C649   N674    1.434   .     S
C655   H656    1.084   .     S
C655   C664    1.397   .     A
C655   C864    1.370   .     S
C657   C659    1.395   .     A
C657   H658    1.084   .     S
C657   C1069   1.370   1_545 S
C659   C660    1.397   .     A
C660   H661    1.084   .     S
C660   C1076   1.370   1_545 S
C662   H663    1.084   .     S
C662   C664    1.395   .     A
C662   C867    1.370   .     S
C665   N673    1.366   .     A
C665   H666    1.081   .     S
C665   C736    1.416   .     S
C667   N669    1.367   .     A
C667   H668    1.081   .     S
C667   C803    1.416   1_455 S
N669   C670    1.373   .     A
C670   O677    1.381   .     S
C670   C809    1.425   1_455 S
C671   N673    1.363   .     A
C671   H672    1.080   .     S
C671   C739    1.425   .     S
N674   O675    1.301   .     A
N674   O676    1.301   .     A
O677   C678    1.410   .     S
C678   H679    1.116   .     S
C678   C681    1.522   .     S
C678   H818    1.111   1_455 S
H680   C747    1.111   .     S
C681   H683    1.107   .     S
C681   H684    1.111   .     S
C681   H682    1.110   .     S
N685   O687    1.301   .     A
N685   C15     1.434   1_556 S
N685   O755    1.301   .     S
O686   N823    1.301   1_455 S
N688   O689    1.301   .     A
N688   O690    1.301   .     A
O691   Zn697   1.997   .     S
O691   C693    1.285   .     A
O692   C693    1.282   .     A
O692   Zn698   1.991   .     S
C693   C733    1.415   .     S
O694   Zn697   1.957   .     S
O694   C696    1.290   .     A
O695   Zn698   1.908   .     S
O695   C696    1.299   .     A
C696   C719    1.465   .     S
Zn697  N738    2.013   .     S
Zn697  O701    1.908   .     S
Zn697  O699    1.991   .     S
Zn698  N742    2.013   .     S
Zn698  O702    1.957   .     S
Zn698  O700    1.997   .     S
O699   C703    1.282   .     A
O700   C703    1.285   .     A
O701   C704    1.296   .     A
O702   C704    1.290   .     A
C703   C728    1.415   .     S
C704   C707    1.458   .     S
C705   C718    1.408   .     A
H706   C715    1.079   .     S
C707   C717    1.385   .     A
C707   C718    1.410   .     A
C708   C719    1.419   .     A
C708   C709    1.394   .     A
C708   N757    1.435   .     S
C709   C89     1.389   1_556 S
C709   H101    1.083   1_556 S
C710   H721    1.080   .     S
C711   C712    1.405   .     A
C711   C89     1.414   1_556 S
C711   C92     1.413   1_556 S
C712   C719    1.413   .     A
C712   C716    1.412   .     A
C713   C717    1.389   .     A
C714   C715    1.400   .     A
C714   C84     1.416   1_556 S
C714   C92     1.419   1_556 S
C715   C716    1.388   .     A
C716   H723    1.082   .     S
C717   H720    1.081   .     S
C718   N743    1.434   .     S
C724   H725    1.084   .     S
C724   C733    1.397   .     A
C724   C933    1.370   .     S
C726   C728    1.395   .     A
C726   H727    1.084   .     S
C726   C1138   1.370   1_545 S
C728   C729    1.397   .     A
C729   H730    1.084   .     S
C729   C1145   1.370   1_545 S
C731   H732    1.084   .     S
C731   C733    1.395   .     A
C731   C936    1.370   .     S
C734   N742    1.366   .     A
C734   H735    1.081   .     S
C734   C805    1.416   .     S
C736   N738    1.367   .     A
C736   H737    1.081   .     S
N738   C739    1.373   .     A
C739   O746    1.381   .     S
C740   N742    1.363   .     A
C740   H741    1.080   .     S
C740   C808    1.425   .     S
N743   O744    1.301   .     A
N743   O745    1.301   .     A
O746   C747    1.410   .     S
C747   H748    1.116   .     S
C747   C750    1.522   .     S
H749   C816    1.111   .     S
C750   H752    1.107   .     S
C750   H753    1.111   .     S
C750   H751    1.110   .     S
N754   O756    1.301   .     A
N754   C84     1.434   1_556 S
N754   O824    1.301   .     S
N757   O758    1.301   .     A
N757   O759    1.301   .     A
O760   Zn766   1.997   .     S
O760   C762    1.285   .     A
O761   C762    1.282   .     A
O761   Zn767   1.991   .     S
C762   C802    1.415   .     S
O763   Zn766   1.957   .     S
O763   C765    1.290   .     A
O764   Zn767   1.908   .     S
O764   C765    1.299   .     A
C765   C788    1.465   .     S
Zn766  N807    2.013   .     S
Zn766  O770    1.908   .     S
Zn766  O768    1.991   .     S
Zn767  N811    2.013   .     S
Zn767  O771    1.957   .     S
Zn767  O769    1.997   .     S
O768   C772    1.282   .     A
O769   C772    1.285   .     A
O770   C773    1.296   .     A
O771   C773    1.290   .     A
C772   C797    1.415   .     S
C773   C776    1.458   .     S
C774   C787    1.408   .     A
H775   C784    1.079   .     S
C776   C786    1.385   .     A
C776   C787    1.410   .     A
C777   C788    1.419   .     A
C777   C778    1.394   .     A
C777   N826    1.435   .     S
C778   C158    1.389   1_556 S
C778   H170    1.083   1_556 S
C779   H790    1.080   .     S
C780   C781    1.405   .     A
C780   C158    1.414   1_556 S
C780   C161    1.413   1_556 S
C781   C788    1.413   .     A
C781   C785    1.412   .     A
C782   C786    1.389   .     A
C783   C784    1.400   .     A
C783   C153    1.416   1_556 S
C783   C161    1.419   1_556 S
C784   C785    1.388   .     A
C785   H792    1.082   .     S
C786   H789    1.081   .     S
C787   N812    1.434   .     S
C793   H794    1.084   .     S
C793   C802    1.397   .     A
C793   C1002   1.370   .     S
C795   C797    1.395   .     A
C795   H796    1.084   .     S
C795   C1207   1.370   1_545 S
C797   C798    1.397   .     A
C798   H799    1.084   .     S
C798   C1214   1.370   1_545 S
C800   H801    1.084   .     S
C800   C802    1.395   .     A
C800   C1005   1.370   .     S
C803   N811    1.366   .     A
C803   H804    1.081   .     S
C803   C667    1.416   1_655 S
C805   N807    1.367   .     A
C805   H806    1.081   .     S
N807   C808    1.373   .     A
C808   O815    1.381   .     S
C809   N811    1.363   .     A
C809   H810    1.080   .     S
C809   C670    1.425   1_655 S
N812   O813    1.301   .     A
N812   O814    1.301   .     A
O815   C816    1.410   .     S
C816   H817    1.116   .     S
C816   C819    1.522   .     S
H818   C678    1.111   1_655 S
C819   H821    1.107   .     S
C819   H822    1.111   .     S
C819   H820    1.110   .     S
N823   O825    1.301   .     A
N823   C153    1.434   1_556 S
N823   O686    1.301   1_655 S
N826   O827    1.301   .     A
N826   O828    1.301   .     A
O829   Zn835   1.997   .     S
O829   C831    1.285   .     A
O830   C831    1.282   .     A
O830   Zn836   1.991   .     S
C831   C871    1.415   .     S
O832   Zn835   1.957   .     S
O832   C834    1.290   .     A
O833   Zn836   1.908   .     S
O833   C834    1.299   .     A
C834   C857    1.465   .     S
Zn835  N876    2.013   .     S
Zn835  O839    1.908   .     S
Zn835  O837    1.991   .     S
Zn836  N880    2.013   .     S
Zn836  O840    1.957   .     S
Zn836  O838    1.997   .     S
O837   C841    1.282   .     A
O838   C841    1.285   .     A
O839   C842    1.296   .     A
O840   C842    1.290   .     A
C841   C866    1.415   .     S
C842   C845    1.458   .     S
C843   C856    1.408   .     A
H844   C853    1.079   .     S
C845   C855    1.385   .     A
C845   C856    1.410   .     A
C846   C857    1.419   .     A
C846   C847    1.394   .     A
C846   N895    1.435   .     S
C847   C227    1.389   1_556 S
C847   H239    1.083   1_556 S
C848   H859    1.080   .     S
C849   C850    1.405   .     A
C849   C227    1.414   1_556 S
C849   C230    1.413   1_556 S
C850   C857    1.413   .     A
C850   C854    1.412   .     A
C851   C855    1.389   .     A
C852   C853    1.400   .     A
C852   C222    1.416   1_556 S
C852   C230    1.419   1_556 S
C853   C854    1.388   .     A
C854   H861    1.082   .     S
C855   H858    1.081   .     S
C856   N881    1.434   .     S
C862   H863    1.084   .     S
C862   C871    1.397   .     A
C862   C1071   1.370   .     S
C864   C866    1.395   .     A
C864   H865    1.084   .     S
C866   C867    1.397   .     A
C867   H868    1.084   .     S
C869   H870    1.084   .     S
C869   C871    1.395   .     A
C869   C1074   1.370   .     S
C872   N880    1.366   .     A
C872   H873    1.081   .     S
C872   C943    1.416   .     S
C874   N876    1.367   .     A
C874   H875    1.081   .     S
C874   C1010   1.416   1_455 S
N876   C877    1.373   .     A
C877   O884    1.381   .     S
C877   C1016   1.425   1_455 S
C878   N880    1.363   .     A
C878   H879    1.080   .     S
C878   C946    1.425   .     S
N881   O882    1.301   .     A
N881   O883    1.301   .     A
O884   C885    1.410   .     S
C885   H886    1.116   .     S
C885   C888    1.522   .     S
C885   H1025   1.111   1_455 S
H887   C954    1.111   .     S
C888   H890    1.107   .     S
C888   H891    1.111   .     S
C888   H889    1.110   .     S
N892   O894    1.301   .     A
N892   C222    1.434   1_556 S
N892   O962    1.301   .     S
O893   N1030   1.301   1_455 S
N895   O896    1.301   .     A
N895   O897    1.301   .     A
O898   Zn904   1.997   .     S
O898   C900    1.285   .     A
O899   C900    1.282   .     A
O899   Zn905   1.991   .     S
C900   C940    1.415   .     S
O901   Zn904   1.957   .     S
O901   C903    1.290   .     A
O902   Zn905   1.908   .     S
O902   C903    1.299   .     A
C903   C926    1.465   .     S
Zn904  N945    2.013   .     S
Zn904  O908    1.908   .     S
Zn904  O906    1.991   .     S
Zn905  N949    2.013   .     S
Zn905  O909    1.957   .     S
Zn905  O907    1.997   .     S
O906   C910    1.282   .     A
O907   C910    1.285   .     A
O908   C911    1.296   .     A
O909   C911    1.290   .     A
C910   C935    1.415   .     S
C911   C914    1.458   .     S
C912   C925    1.408   .     A
H913   C922    1.079   .     S
C914   C924    1.385   .     A
C914   C925    1.410   .     A
C915   C926    1.419   .     A
C915   C916    1.394   .     A
C915   N964    1.435   .     S
C916   C296    1.389   1_556 S
C916   H308    1.083   1_556 S
C917   H928    1.080   .     S
C918   C919    1.405   .     A
C918   C296    1.414   1_556 S
C918   C299    1.413   1_556 S
C919   C926    1.413   .     A
C919   C923    1.412   .     A
C920   C924    1.389   .     A
C921   C922    1.400   .     A
C921   C291    1.416   1_556 S
C921   C299    1.419   1_556 S
C922   C923    1.388   .     A
C923   H930    1.082   .     S
C924   H927    1.081   .     S
C925   N950    1.434   .     S
C931   H932    1.084   .     S
C931   C940    1.397   .     A
C931   C1140   1.370   .     S
C933   C935    1.395   .     A
C933   H934    1.084   .     S
C935   C936    1.397   .     A
C936   H937    1.084   .     S
C938   H939    1.084   .     S
C938   C940    1.395   .     A
C938   C1143   1.370   .     S
C941   N949    1.366   .     A
C941   H942    1.081   .     S
C941   C1012   1.416   .     S
C943   N945    1.367   .     A
C943   H944    1.081   .     S
N945   C946    1.373   .     A
C946   O953    1.381   .     S
C947   N949    1.363   .     A
C947   H948    1.080   .     S
C947   C1015   1.425   .     S
N950   O951    1.301   .     A
N950   O952    1.301   .     A
O953   C954    1.410   .     S
C954   H955    1.116   .     S
C954   C957    1.522   .     S
H956   C1023   1.111   .     S
C957   H959    1.107   .     S
C957   H960    1.111   .     S
C957   H958    1.110   .     S
N961   O963    1.301   .     A
N961   C291    1.434   1_556 S
N961   O1031   1.301   .     S
N964   O965    1.301   .     A
N964   O966    1.301   .     A
O967   Zn973   1.997   .     S
O967   C969    1.285   .     A
O968   C969    1.282   .     A
O968   Zn974   1.991   .     S
C969   C1009   1.415   .     S
O970   Zn973   1.957   .     S
O970   C972    1.290   .     A
O971   Zn974   1.908   .     S
O971   C972    1.299   .     A
C972   C995    1.465   .     S
Zn973  N1014   2.013   .     S
Zn973  O977    1.908   .     S
Zn973  O975    1.991   .     S
Zn974  N1018   2.013   .     S
Zn974  O978    1.957   .     S
Zn974  O976    1.997   .     S
O975   C979    1.282   .     A
O976   C979    1.285   .     A
O977   C980    1.296   .     A
O978   C980    1.290   .     A
C979   C1004   1.415   .     S
C980   C983    1.458   .     S
C981   C994    1.408   .     A
H982   C991    1.079   .     S
C983   C993    1.385   .     A
C983   C994    1.410   .     A
C984   C995    1.419   .     A
C984   C985    1.394   .     A
C984   N1033   1.435   .     S
C985   C365    1.389   1_556 S
C985   H377    1.083   1_556 S
C986   H997    1.080   .     S
C987   C988    1.405   .     A
C987   C365    1.414   1_556 S
C987   C368    1.413   1_556 S
C988   C995    1.413   .     A
C988   C992    1.412   .     A
C989   C993    1.389   .     A
C990   C991    1.400   .     A
C990   C360    1.416   1_556 S
C990   C368    1.419   1_556 S
C991   C992    1.388   .     A
C992   H999    1.082   .     S
C993   H996    1.081   .     S
C994   N1019   1.434   .     S
C1000  H1001   1.084   .     S
C1000  C1009   1.397   .     A
C1000  C1209   1.370   .     S
C1002  C1004   1.395   .     A
C1002  H1003   1.084   .     S
C1004  C1005   1.397   .     A
C1005  H1006   1.084   .     S
C1007  H1008   1.084   .     S
C1007  C1009   1.395   .     A
C1007  C1212   1.370   .     S
C1010  N1018   1.366   .     A
C1010  H1011   1.081   .     S
C1010  C874    1.416   1_655 S
C1012  N1014   1.367   .     A
C1012  H1013   1.081   .     S
N1014  C1015   1.373   .     A
C1015  O1022   1.381   .     S
C1016  N1018   1.363   .     A
C1016  H1017   1.080   .     S
C1016  C877    1.425   1_655 S
N1019  O1020   1.301   .     A
N1019  O1021   1.301   .     A
O1022  C1023   1.410   .     S
C1023  H1024   1.116   .     S
C1023  C1026   1.522   .     S
H1025  C885    1.111   1_655 S
C1026  H1028   1.107   .     S
C1026  H1029   1.111   .     S
C1026  H1027   1.110   .     S
N1030  O1032   1.301   .     A
N1030  C360    1.434   1_556 S
N1030  O893    1.301   1_655 S
N1033  O1034   1.301   .     A
N1033  O1035   1.301   .     A
O1036  Zn1042  1.997   .     S
O1036  C1038   1.285   .     A
O1037  C1038   1.282   .     A
O1037  Zn1043  1.991   .     S
C1038  C1078   1.415   .     S
O1039  Zn1042  1.957   .     S
O1039  C1041   1.290   .     A
O1040  Zn1043  1.908   .     S
O1040  C1041   1.299   .     A
C1041  C1064   1.465   .     S
Zn1042 N1083   2.013   .     S
Zn1042 O1046   1.908   .     S
Zn1042 O1044   1.991   .     S
Zn1043 N1087   2.013   .     S
Zn1043 O1047   1.957   .     S
Zn1043 O1045   1.997   .     S
O1044  C1048   1.282   .     A
O1045  C1048   1.285   .     A
O1046  C1049   1.296   .     A
O1047  C1049   1.290   .     A
C1048  C1073   1.415   .     S
C1049  C1052   1.458   .     S
C1050  C1063   1.408   .     A
H1051  C1060   1.079   .     S
C1052  C1062   1.385   .     A
C1052  C1063   1.410   .     A
C1053  C1064   1.419   .     A
C1053  C1054   1.394   .     A
C1053  N1102   1.435   .     S
C1054  C434    1.389   1_556 S
C1054  H446    1.083   1_556 S
C1055  H1066   1.080   .     S
C1056  C1057   1.405   .     A
C1056  C434    1.414   1_556 S
C1056  C437    1.413   1_556 S
C1057  C1064   1.413   .     A
C1057  C1061   1.412   .     A
C1058  C1062   1.389   .     A
C1059  C1060   1.400   .     A
C1059  C429    1.416   1_556 S
C1059  C437    1.419   1_556 S
C1060  C1061   1.388   .     A
C1061  H1068   1.082   .     S
C1062  H1065   1.081   .     S
C1063  N1088   1.434   .     S
C1069  H1070   1.084   .     S
C1069  C1078   1.397   .     A
C1069  C657    1.370   1_565 S
C1071  C1073   1.395   .     A
C1071  H1072   1.084   .     S
C1073  C1074   1.397   .     A
C1074  H1075   1.084   .     S
C1076  H1077   1.084   .     S
C1076  C1078   1.395   .     A
C1076  C660    1.370   1_565 S
C1079  N1087   1.366   .     A
C1079  H1080   1.081   .     S
C1079  C1150   1.416   .     S
C1081  N1083   1.367   .     A
C1081  H1082   1.081   .     S
C1081  C1217   1.416   1_455 S
N1083  C1084   1.373   .     A
C1084  O1091   1.381   .     S
C1084  C1223   1.425   1_455 S
C1085  N1087   1.363   .     A
C1085  H1086   1.080   .     S
C1085  C1153   1.425   .     S
N1088  O1089   1.301   .     A
N1088  O1090   1.301   .     A
O1091  C1092   1.410   .     S
C1092  H1093   1.116   .     S
C1092  C1095   1.522   .     S
C1092  H1232   1.111   1_455 S
H1094  C1161   1.111   .     S
C1095  H1097   1.107   .     S
C1095  H1098   1.111   .     S
C1095  H1096   1.110   .     S
N1099  O1101   1.301   .     A
N1099  C429    1.434   1_556 S
N1099  O1169   1.301   .     S
O1100  N1237   1.301   1_455 S
N1102  O1103   1.301   .     A
N1102  O1104   1.301   .     A
O1105  Zn1111  1.997   .     S
O1105  C1107   1.285   .     A
O1106  C1107   1.282   .     A
O1106  Zn1112  1.991   .     S
C1107  C1147   1.415   .     S
O1108  Zn1111  1.957   .     S
O1108  C1110   1.290   .     A
O1109  Zn1112  1.908   .     S
O1109  C1110   1.299   .     A
C1110  C1133   1.465   .     S
Zn1111 N1152   2.013   .     S
Zn1111 O1115   1.908   .     S
Zn1111 O1113   1.991   .     S
Zn1112 N1156   2.013   .     S
Zn1112 O1116   1.957   .     S
Zn1112 O1114   1.997   .     S
O1113  C1117   1.282   .     A
O1114  C1117   1.285   .     A
O1115  C1118   1.296   .     A
O1116  C1118   1.290   .     A
C1117  C1142   1.415   .     S
C1118  C1121   1.458   .     S
C1119  C1132   1.408   .     A
H1120  C1129   1.079   .     S
C1121  C1131   1.385   .     A
C1121  C1132   1.410   .     A
C1122  C1133   1.419   .     A
C1122  C1123   1.394   .     A
C1122  N1171   1.435   .     S
C1123  C503    1.389   1_556 S
C1123  H515    1.083   1_556 S
C1124  H1135   1.080   .     S
C1125  C1126   1.405   .     A
C1125  C503    1.414   1_556 S
C1125  C506    1.413   1_556 S
C1126  C1133   1.413   .     A
C1126  C1130   1.412   .     A
C1127  C1131   1.389   .     A
C1128  C1129   1.400   .     A
C1128  C498    1.416   1_556 S
C1128  C506    1.419   1_556 S
C1129  C1130   1.388   .     A
C1130  H1137   1.082   .     S
C1131  H1134   1.081   .     S
C1132  N1157   1.434   .     S
C1138  H1139   1.084   .     S
C1138  C1147   1.397   .     A
C1138  C726    1.370   1_565 S
C1140  C1142   1.395   .     A
C1140  H1141   1.084   .     S
C1142  C1143   1.397   .     A
C1143  H1144   1.084   .     S
C1145  H1146   1.084   .     S
C1145  C1147   1.395   .     A
C1145  C729    1.370   1_565 S
C1148  N1156   1.366   .     A
C1148  H1149   1.081   .     S
C1148  C1219   1.416   .     S
C1150  N1152   1.367   .     A
C1150  H1151   1.081   .     S
N1152  C1153   1.373   .     A
C1153  O1160   1.381   .     S
C1154  N1156   1.363   .     A
C1154  H1155   1.080   .     S
C1154  C1222   1.425   .     S
N1157  O1158   1.301   .     A
N1157  O1159   1.301   .     A
O1160  C1161   1.410   .     S
C1161  H1162   1.116   .     S
C1161  C1164   1.522   .     S
H1163  C1230   1.111   .     S
C1164  H1166   1.107   .     S
C1164  H1167   1.111   .     S
C1164  H1165   1.110   .     S
N1168  O1170   1.301   .     A
N1168  C498    1.434   1_556 S
N1168  O1238   1.301   .     S
N1171  O1172   1.301   .     A
N1171  O1173   1.301   .     A
O1174  Zn1180  1.997   .     S
O1174  C1176   1.285   .     A
O1175  C1176   1.282   .     A
O1175  Zn1181  1.991   .     S
C1176  C1216   1.415   .     S
O1177  Zn1180  1.957   .     S
O1177  C1179   1.290   .     A
O1178  Zn1181  1.908   .     S
O1178  C1179   1.299   .     A
C1179  C1202   1.465   .     S
Zn1180 N1221   2.013   .     S
Zn1180 O1184   1.908   .     S
Zn1180 O1182   1.991   .     S
Zn1181 N1225   2.013   .     S
Zn1181 O1185   1.957   .     S
Zn1181 O1183   1.997   .     S
O1182  C1186   1.282   .     A
O1183  C1186   1.285   .     A
O1184  C1187   1.296   .     A
O1185  C1187   1.290   .     A
C1186  C1211   1.415   .     S
C1187  C1190   1.458   .     S
C1188  C1201   1.408   .     A
H1189  C1198   1.079   .     S
C1190  C1200   1.385   .     A
C1190  C1201   1.410   .     A
C1191  C1202   1.419   .     A
C1191  C1192   1.394   .     A
C1191  N1240   1.435   .     S
C1192  C572    1.389   1_556 S
C1192  H584    1.083   1_556 S
C1193  H1204   1.080   .     S
C1194  C1195   1.405   .     A
C1194  C572    1.414   1_556 S
C1194  C575    1.413   1_556 S
C1195  C1202   1.413   .     A
C1195  C1199   1.412   .     A
C1196  C1200   1.389   .     A
C1197  C1198   1.400   .     A
C1197  C567    1.416   1_556 S
C1197  C575    1.419   1_556 S
C1198  C1199   1.388   .     A
C1199  H1206   1.082   .     S
C1200  H1203   1.081   .     S
C1201  N1226   1.434   .     S
C1207  H1208   1.084   .     S
C1207  C1216   1.397   .     A
C1207  C795    1.370   1_565 S
C1209  C1211   1.395   .     A
C1209  H1210   1.084   .     S
C1211  C1212   1.397   .     A
C1212  H1213   1.084   .     S
C1214  H1215   1.084   .     S
C1214  C1216   1.395   .     A
C1214  C798    1.370   1_565 S
C1217  N1225   1.366   .     A
C1217  H1218   1.081   .     S
C1217  C1081   1.416   1_655 S
C1219  N1221   1.367   .     A
C1219  H1220   1.081   .     S
N1221  C1222   1.373   .     A
C1222  O1229   1.381   .     S
C1223  N1225   1.363   .     A
C1223  H1224   1.080   .     S
C1223  C1084   1.425   1_655 S
N1226  O1227   1.301   .     A
N1226  O1228   1.301   .     A
O1229  C1230   1.410   .     S
C1230  H1231   1.116   .     S
C1230  C1233   1.522   .     S
H1232  C1092   1.111   1_655 S
C1233  H1235   1.107   .     S
C1233  H1236   1.111   .     S
C1233  H1234   1.110   .     S
N1237  O1239   1.301   .     A
N1237  C567    1.434   1_556 S
N1237  O1100   1.301   1_655 S
N1240  O1241   1.301   .     A
N1240  O1242   1.301   .     A
