data_str_m3_o1_o1_pcu_sym.81
_audit_creation_date              2020-01-03
_audit_creation_method            'Materials Studio'
_symmetry_space_group_name_H-M    'P1'
_symmetry_Int_Tables_number       1
_symmetry_cell_setting            triclinic
loop_
_symmetry_equiv_pos_as_xyz
  x,y,z
_cell_length_a                    30.3925
_cell_length_b                    30.2126
_cell_length_c                    29.5714
_cell_angle_alpha                 90.7177
_cell_angle_beta                  90.0169
_cell_angle_gamma                 90.7375
loop_
_atom_site_label
_atom_site_type_symbol
_atom_site_fract_x
_atom_site_fract_y
_atom_site_fract_z
_atom_site_U_iso_or_equiv
_atom_site_adp_type
_atom_site_occupancy
C1     C     0.05996   0.19000   0.16650   0.00000  Uiso   1.00
C2     C     0.49217   0.21183   0.30890   0.00000  Uiso   1.00
C3     C     0.49214   0.21184   0.02345   0.00000  Uiso   1.00
C4     C     0.00849   0.28802   0.30992   0.00000  Uiso   1.00
C5     C     0.25784   0.03817   0.02444   0.00000  Uiso   1.00
C6     C     0.24200   0.46186   0.30887   0.00000  Uiso   1.00
C7     C     0.24151   0.46198   0.02341   0.00000  Uiso   1.00
C8     C     0.25787   0.03816   0.30988   0.00000  Uiso   1.00
C9     C     0.41778   0.11472   0.18131   0.00000  Uiso   1.00
C10    C     0.08311   0.38521   0.18390   0.00000  Uiso   1.00
C11    C     0.13433   0.33247   0.14932   0.00000  Uiso   1.00
C12    C     0.43986   0.30986   0.16682   0.00000  Uiso   1.00
C13    C     0.36454   0.16785   0.15232   0.00000  Uiso   1.00
C14    C     0.13052   0.16337   0.19381   0.00000  Uiso   1.00
C15    C     0.37951   0.34691   0.12842   0.00000  Uiso   1.00
C16    C     0.40190   0.37072   0.20527   0.00000  Uiso   1.00
C17    C     0.08752   0.11892   0.13908   0.00000  Uiso   1.00
C18    C     0.16689   0.36478   0.14943   0.00000  Uiso   1.00
C19    C     0.33222   0.13529   0.15202   0.00000  Uiso   1.00
C20    C     0.38546   0.08215   0.18101   0.00000  Uiso   1.00
C21    C     0.11567   0.41753   0.18401   0.00000  Uiso   1.00
C22    C     0.37051   0.40311   0.20491   0.00000  Uiso   1.00
C23    C     0.44000   0.19018   0.16655   0.00000  Uiso   1.00
C24    C     0.11948   0.08663   0.13953   0.00000  Uiso   1.00
C25    C     0.16248   0.13109   0.19426   0.00000  Uiso   1.00
C26    C     0.34812   0.37929   0.12805   0.00000  Uiso   1.00
C27    C     0.09296   0.34304   0.16690   0.00000  Uiso   1.00
C28    C     0.40697   0.15703   0.16649   0.00000  Uiso   1.00
C29    C     0.40656   0.34276   0.16697   0.00000  Uiso   1.00
C30    C     0.09323   0.15703   0.16627   0.00000  Uiso   1.00
C31    C     0.34303   0.09297   0.16684   0.00000  Uiso   1.00
C32    C     0.15704   0.40696   0.16643   0.00000  Uiso   1.00
C33    C     0.15677   0.09297   0.16706   0.00000  Uiso   1.00
C34    C     0.05978   0.31005   0.16680   0.00000  Uiso   1.00
C35    C     0.34346   0.40725   0.16636   0.00000  Uiso   1.00
C36    C     0.31014   0.44014   0.16652   0.00000  Uiso   1.00
C37    C     0.19004   0.06000   0.16683   0.00000  Uiso   1.00
C38    C     0.19023   0.43995   0.16653   0.00000  Uiso   1.00
C39    C     0.31000   0.05982   0.16678   0.00000  Uiso   1.00
C40    C     0.00800   0.28814   0.02446   0.00000  Uiso   1.00
Cl41   Cl    0.47163   0.10236   0.19981   0.00000  Uiso   1.00
Cl42   Cl    0.27836   0.14764   0.13353   0.00000  Uiso   1.00
Cl43   Cl    0.39877   0.02753   0.19603   0.00000  Uiso   1.00
Cl44   Cl    0.10438   0.47125   0.20541   0.00000  Uiso   1.00
Cl45   Cl    0.36741   0.43855   0.25360   0.00000  Uiso   1.00
Cl46   Cl    0.11147   0.03753   0.10685   0.00000  Uiso   1.00
Cl47   Cl    0.21033   0.13978   0.22761   0.00000  Uiso   1.00
Cl48   Cl    0.31483   0.38255   0.07868   0.00000  Uiso   1.00
Cl49   Cl    0.02963   0.39828   0.20282   0.00000  Uiso   1.00
Cl50   Cl    0.14562   0.27875   0.12793   0.00000  Uiso   1.00
Cl51   Cl    0.35123   0.22247   0.13731   0.00000  Uiso   1.00
Cl52   Cl    0.13853   0.21247   0.22648   0.00000  Uiso   1.00
Cl53   Cl    0.38261   0.31148   0.07972   0.00000  Uiso   1.00
Cl54   Cl    0.43518   0.36747   0.25464   0.00000  Uiso   1.00
Cl55   Cl    0.03967   0.11022   0.10573   0.00000  Uiso   1.00
Cl56   Cl    0.22037   0.35172   0.13051   0.00000  Uiso   1.00
F57    F     0.01555   0.32654   0.04748   0.00000  Uiso   1.00
F58    F     0.48481   0.17339   0.28591   0.00000  Uiso   1.00
F59    F     0.48418   0.17354   0.04546   0.00000  Uiso   1.00
F60    F     0.01815   0.32599   0.28801   0.00000  Uiso   1.00
F61    F     0.26519   0.07661   0.04743   0.00000  Uiso   1.00
F62    F     0.23445   0.42346   0.28586   0.00000  Uiso   1.00
F63    F     0.23185   0.42401   0.04532   0.00000  Uiso   1.00
F64    F     0.26583   0.07646   0.28787   0.00000  Uiso   1.00
N65    N     0.00000   0.25000   0.28573   0.00000  Uiso   1.00
N66    N     0.00000   0.25000   0.04760   0.00000  Uiso   1.00
N67    N     0.25000  -0.00000   0.28573   0.00000  Uiso   1.00
N68    N     0.25000  -0.00000   0.04760   0.00000  Uiso   1.00
O69    O     0.04581   0.20419   0.20487   0.00000  Uiso   1.00
O70    O     0.20420   0.04581   0.12846   0.00000  Uiso   1.00
O71    O     0.20420   0.04581   0.20487   0.00000  Uiso   1.00
O72    O     0.29581   0.45419   0.12846   0.00000  Uiso   1.00
O73    O     0.20420   0.45419   0.12846   0.00000  Uiso   1.00
O74    O     0.29581   0.04581   0.20487   0.00000  Uiso   1.00
O75    O     0.29581   0.04581   0.12846   0.00000  Uiso   1.00
O76    O     0.20420   0.45419   0.20487   0.00000  Uiso   1.00
O77    O     0.45420   0.29581   0.12846   0.00000  Uiso   1.00
O78    O     0.45420   0.29581   0.20487   0.00000  Uiso   1.00
O79    O     0.04581   0.20419   0.12846   0.00000  Uiso   1.00
O80    O     0.45420   0.20419   0.12846   0.00000  Uiso   1.00
O81    O     0.04581   0.29581   0.20487   0.00000  Uiso   1.00
O82    O     0.04581   0.29581   0.12846   0.00000  Uiso   1.00
O83    O     0.45420   0.20419   0.20487   0.00000  Uiso   1.00
O84    O     0.29581   0.45419   0.20487   0.00000  Uiso   1.00
Zn85   Zn    0.00000   0.25000   0.21771   0.00000  Uiso   1.00
Zn86   Zn    0.00000   0.25000   0.11563   0.00000  Uiso   1.00
Zn87   Zn    0.25000  -0.00000   0.21771   0.00000  Uiso   1.00
Zn88   Zn    0.25000  -0.00000   0.11563   0.00000  Uiso   1.00
C89    C     0.55996   0.19000   0.16650   0.00000  Uiso   1.00
C90    C     0.99217   0.21183   0.30890   0.00000  Uiso   1.00
C91    C     0.99214   0.21184   0.02345   0.00000  Uiso   1.00
C92    C     0.50849   0.28802   0.30992   0.00000  Uiso   1.00
C93    C     0.75784   0.03817   0.02444   0.00000  Uiso   1.00
C94    C     0.74200   0.46186   0.30887   0.00000  Uiso   1.00
C95    C     0.74151   0.46198   0.02341   0.00000  Uiso   1.00
C96    C     0.75787   0.03816   0.30988   0.00000  Uiso   1.00
C97    C     0.91778   0.11472   0.18131   0.00000  Uiso   1.00
C98    C     0.58311   0.38521   0.18390   0.00000  Uiso   1.00
C99    C     0.63433   0.33247   0.14932   0.00000  Uiso   1.00
C100   C     0.93986   0.30986   0.16682   0.00000  Uiso   1.00
C101   C     0.86454   0.16785   0.15232   0.00000  Uiso   1.00
C102   C     0.63052   0.16337   0.19381   0.00000  Uiso   1.00
C103   C     0.87951   0.34691   0.12842   0.00000  Uiso   1.00
C104   C     0.90190   0.37072   0.20527   0.00000  Uiso   1.00
C105   C     0.58752   0.11892   0.13908   0.00000  Uiso   1.00
C106   C     0.66689   0.36478   0.14943   0.00000  Uiso   1.00
C107   C     0.83222   0.13529   0.15202   0.00000  Uiso   1.00
C108   C     0.88546   0.08215   0.18101   0.00000  Uiso   1.00
C109   C     0.61567   0.41753   0.18401   0.00000  Uiso   1.00
C110   C     0.87051   0.40311   0.20491   0.00000  Uiso   1.00
C111   C     0.94000   0.19018   0.16655   0.00000  Uiso   1.00
C112   C     0.61948   0.08663   0.13953   0.00000  Uiso   1.00
C113   C     0.66248   0.13109   0.19426   0.00000  Uiso   1.00
C114   C     0.84812   0.37929   0.12805   0.00000  Uiso   1.00
C115   C     0.59296   0.34304   0.16690   0.00000  Uiso   1.00
C116   C     0.90697   0.15703   0.16649   0.00000  Uiso   1.00
C117   C     0.90656   0.34276   0.16697   0.00000  Uiso   1.00
C118   C     0.59323   0.15703   0.16627   0.00000  Uiso   1.00
C119   C     0.84303   0.09297   0.16684   0.00000  Uiso   1.00
C120   C     0.65704   0.40696   0.16643   0.00000  Uiso   1.00
C121   C     0.65677   0.09297   0.16706   0.00000  Uiso   1.00
C122   C     0.55978   0.31005   0.16680   0.00000  Uiso   1.00
C123   C     0.84346   0.40725   0.16636   0.00000  Uiso   1.00
C124   C     0.81014   0.44014   0.16652   0.00000  Uiso   1.00
C125   C     0.69004   0.06000   0.16683   0.00000  Uiso   1.00
C126   C     0.69023   0.43995   0.16653   0.00000  Uiso   1.00
C127   C     0.81000   0.05982   0.16678   0.00000  Uiso   1.00
C128   C     0.50800   0.28814   0.02446   0.00000  Uiso   1.00
Cl129  Cl    0.97163   0.10236   0.19981   0.00000  Uiso   1.00
Cl130  Cl    0.77836   0.14764   0.13353   0.00000  Uiso   1.00
Cl131  Cl    0.89877   0.02753   0.19603   0.00000  Uiso   1.00
Cl132  Cl    0.60438   0.47125   0.20541   0.00000  Uiso   1.00
Cl133  Cl    0.86741   0.43855   0.25360   0.00000  Uiso   1.00
Cl134  Cl    0.61147   0.03753   0.10685   0.00000  Uiso   1.00
Cl135  Cl    0.71033   0.13978   0.22761   0.00000  Uiso   1.00
Cl136  Cl    0.81483   0.38255   0.07868   0.00000  Uiso   1.00
Cl137  Cl    0.52963   0.39828   0.20282   0.00000  Uiso   1.00
Cl138  Cl    0.64562   0.27875   0.12793   0.00000  Uiso   1.00
Cl139  Cl    0.85123   0.22247   0.13731   0.00000  Uiso   1.00
Cl140  Cl    0.63853   0.21247   0.22648   0.00000  Uiso   1.00
Cl141  Cl    0.88261   0.31148   0.07972   0.00000  Uiso   1.00
Cl142  Cl    0.93518   0.36747   0.25464   0.00000  Uiso   1.00
Cl143  Cl    0.53967   0.11022   0.10573   0.00000  Uiso   1.00
Cl144  Cl    0.72037   0.35172   0.13051   0.00000  Uiso   1.00
F145   F     0.51555   0.32654   0.04748   0.00000  Uiso   1.00
F146   F     0.98481   0.17339   0.28591   0.00000  Uiso   1.00
F147   F     0.98418   0.17354   0.04546   0.00000  Uiso   1.00
F148   F     0.51815   0.32599   0.28801   0.00000  Uiso   1.00
F149   F     0.76519   0.07661   0.04743   0.00000  Uiso   1.00
F150   F     0.73445   0.42346   0.28586   0.00000  Uiso   1.00
F151   F     0.73185   0.42401   0.04532   0.00000  Uiso   1.00
F152   F     0.76583   0.07646   0.28787   0.00000  Uiso   1.00
N153   N     0.50000   0.25000   0.28573   0.00000  Uiso   1.00
N154   N     0.50000   0.25000   0.04760   0.00000  Uiso   1.00
N155   N     0.75000  -0.00000   0.28573   0.00000  Uiso   1.00
N156   N     0.75000  -0.00000   0.04760   0.00000  Uiso   1.00
O157   O     0.54581   0.20419   0.20487   0.00000  Uiso   1.00
O158   O     0.70420   0.04581   0.12846   0.00000  Uiso   1.00
O159   O     0.70420   0.04581   0.20487   0.00000  Uiso   1.00
O160   O     0.79581   0.45419   0.12846   0.00000  Uiso   1.00
O161   O     0.70420   0.45419   0.12846   0.00000  Uiso   1.00
O162   O     0.79581   0.04581   0.20487   0.00000  Uiso   1.00
O163   O     0.79581   0.04581   0.12846   0.00000  Uiso   1.00
O164   O     0.70420   0.45419   0.20487   0.00000  Uiso   1.00
O165   O     0.95420   0.29581   0.12846   0.00000  Uiso   1.00
O166   O     0.95420   0.29581   0.20487   0.00000  Uiso   1.00
O167   O     0.54581   0.20419   0.12846   0.00000  Uiso   1.00
O168   O     0.95420   0.20419   0.12846   0.00000  Uiso   1.00
O169   O     0.54581   0.29581   0.20487   0.00000  Uiso   1.00
O170   O     0.54581   0.29581   0.12846   0.00000  Uiso   1.00
O171   O     0.95420   0.20419   0.20487   0.00000  Uiso   1.00
O172   O     0.79581   0.45419   0.20487   0.00000  Uiso   1.00
Zn173  Zn    0.50000   0.25000   0.21771   0.00000  Uiso   1.00
Zn174  Zn    0.50000   0.25000   0.11563   0.00000  Uiso   1.00
Zn175  Zn    0.75000  -0.00000   0.21771   0.00000  Uiso   1.00
Zn176  Zn    0.75000  -0.00000   0.11563   0.00000  Uiso   1.00
C177   C     0.05996   0.69000   0.16650   0.00000  Uiso   1.00
C178   C     0.49217   0.71183   0.30890   0.00000  Uiso   1.00
C179   C     0.49214   0.71184   0.02345   0.00000  Uiso   1.00
C180   C     0.00849   0.78802   0.30992   0.00000  Uiso   1.00
C181   C     0.25784   0.53817   0.02444   0.00000  Uiso   1.00
C182   C     0.24200   0.96186   0.30887   0.00000  Uiso   1.00
C183   C     0.24151   0.96198   0.02341   0.00000  Uiso   1.00
C184   C     0.25787   0.53816   0.30988   0.00000  Uiso   1.00
C185   C     0.41778   0.61472   0.18131   0.00000  Uiso   1.00
C186   C     0.08311   0.88521   0.18390   0.00000  Uiso   1.00
C187   C     0.13433   0.83247   0.14932   0.00000  Uiso   1.00
C188   C     0.43986   0.80986   0.16682   0.00000  Uiso   1.00
C189   C     0.36454   0.66785   0.15232   0.00000  Uiso   1.00
C190   C     0.13052   0.66337   0.19381   0.00000  Uiso   1.00
C191   C     0.37951   0.84691   0.12842   0.00000  Uiso   1.00
C192   C     0.40190   0.87072   0.20527   0.00000  Uiso   1.00
C193   C     0.08752   0.61892   0.13908   0.00000  Uiso   1.00
C194   C     0.16689   0.86478   0.14943   0.00000  Uiso   1.00
C195   C     0.33222   0.63529   0.15202   0.00000  Uiso   1.00
C196   C     0.38546   0.58215   0.18101   0.00000  Uiso   1.00
C197   C     0.11567   0.91753   0.18401   0.00000  Uiso   1.00
C198   C     0.37051   0.90311   0.20491   0.00000  Uiso   1.00
C199   C     0.44000   0.69018   0.16655   0.00000  Uiso   1.00
C200   C     0.11948   0.58663   0.13953   0.00000  Uiso   1.00
C201   C     0.16248   0.63109   0.19426   0.00000  Uiso   1.00
C202   C     0.34812   0.87929   0.12805   0.00000  Uiso   1.00
C203   C     0.09296   0.84304   0.16690   0.00000  Uiso   1.00
C204   C     0.40697   0.65703   0.16649   0.00000  Uiso   1.00
C205   C     0.40656   0.84276   0.16697   0.00000  Uiso   1.00
C206   C     0.09323   0.65703   0.16627   0.00000  Uiso   1.00
C207   C     0.34303   0.59297   0.16684   0.00000  Uiso   1.00
C208   C     0.15704   0.90696   0.16643   0.00000  Uiso   1.00
C209   C     0.15677   0.59297   0.16706   0.00000  Uiso   1.00
C210   C     0.05978   0.81005   0.16680   0.00000  Uiso   1.00
C211   C     0.34346   0.90725   0.16636   0.00000  Uiso   1.00
C212   C     0.31014   0.94014   0.16652   0.00000  Uiso   1.00
C213   C     0.19004   0.56000   0.16683   0.00000  Uiso   1.00
C214   C     0.19023   0.93995   0.16653   0.00000  Uiso   1.00
C215   C     0.31000   0.55982   0.16678   0.00000  Uiso   1.00
C216   C     0.00800   0.78814   0.02446   0.00000  Uiso   1.00
Cl217  Cl    0.47163   0.60236   0.19981   0.00000  Uiso   1.00
Cl218  Cl    0.27836   0.64764   0.13353   0.00000  Uiso   1.00
Cl219  Cl    0.39877   0.52753   0.19603   0.00000  Uiso   1.00
Cl220  Cl    0.10438   0.97125   0.20541   0.00000  Uiso   1.00
Cl221  Cl    0.36741   0.93855   0.25360   0.00000  Uiso   1.00
Cl222  Cl    0.11147   0.53753   0.10685   0.00000  Uiso   1.00
Cl223  Cl    0.21033   0.63978   0.22761   0.00000  Uiso   1.00
Cl224  Cl    0.31483   0.88255   0.07868   0.00000  Uiso   1.00
Cl225  Cl    0.02963   0.89828   0.20282   0.00000  Uiso   1.00
Cl226  Cl    0.14562   0.77875   0.12793   0.00000  Uiso   1.00
Cl227  Cl    0.35123   0.72247   0.13731   0.00000  Uiso   1.00
Cl228  Cl    0.13853   0.71247   0.22648   0.00000  Uiso   1.00
Cl229  Cl    0.38261   0.81148   0.07972   0.00000  Uiso   1.00
Cl230  Cl    0.43518   0.86747   0.25464   0.00000  Uiso   1.00
Cl231  Cl    0.03967   0.61022   0.10573   0.00000  Uiso   1.00
Cl232  Cl    0.22037   0.85172   0.13051   0.00000  Uiso   1.00
F233   F     0.01555   0.82654   0.04748   0.00000  Uiso   1.00
F234   F     0.48481   0.67339   0.28591   0.00000  Uiso   1.00
F235   F     0.48418   0.67354   0.04546   0.00000  Uiso   1.00
F236   F     0.01815   0.82599   0.28801   0.00000  Uiso   1.00
F237   F     0.26519   0.57661   0.04743   0.00000  Uiso   1.00
F238   F     0.23445   0.92346   0.28586   0.00000  Uiso   1.00
F239   F     0.23185   0.92401   0.04532   0.00000  Uiso   1.00
F240   F     0.26583   0.57646   0.28787   0.00000  Uiso   1.00
N241   N     0.00000   0.75000   0.28573   0.00000  Uiso   1.00
N242   N     0.00000   0.75000   0.04760   0.00000  Uiso   1.00
N243   N     0.25000   0.50000   0.28573   0.00000  Uiso   1.00
N244   N     0.25000   0.50000   0.04760   0.00000  Uiso   1.00
O245   O     0.04581   0.70419   0.20487   0.00000  Uiso   1.00
O246   O     0.20420   0.54581   0.12846   0.00000  Uiso   1.00
O247   O     0.20420   0.54581   0.20487   0.00000  Uiso   1.00
O248   O     0.29581   0.95419   0.12846   0.00000  Uiso   1.00
O249   O     0.20420   0.95419   0.12846   0.00000  Uiso   1.00
O250   O     0.29581   0.54581   0.20487   0.00000  Uiso   1.00
O251   O     0.29581   0.54581   0.12846   0.00000  Uiso   1.00
O252   O     0.20420   0.95419   0.20487   0.00000  Uiso   1.00
O253   O     0.45420   0.79581   0.12846   0.00000  Uiso   1.00
O254   O     0.45420   0.79581   0.20487   0.00000  Uiso   1.00
O255   O     0.04581   0.70419   0.12846   0.00000  Uiso   1.00
O256   O     0.45420   0.70419   0.12846   0.00000  Uiso   1.00
O257   O     0.04581   0.79581   0.20487   0.00000  Uiso   1.00
O258   O     0.04581   0.79581   0.12846   0.00000  Uiso   1.00
O259   O     0.45420   0.70419   0.20487   0.00000  Uiso   1.00
O260   O     0.29581   0.95419   0.20487   0.00000  Uiso   1.00
Zn261  Zn    0.00000   0.75000   0.21771   0.00000  Uiso   1.00
Zn262  Zn    0.00000   0.75000   0.11563   0.00000  Uiso   1.00
Zn263  Zn    0.25000   0.50000   0.21771   0.00000  Uiso   1.00
Zn264  Zn    0.25000   0.50000   0.11563   0.00000  Uiso   1.00
C265   C     0.55996   0.69000   0.16650   0.00000  Uiso   1.00
C266   C     0.99217   0.71183   0.30890   0.00000  Uiso   1.00
C267   C     0.99214   0.71184   0.02345   0.00000  Uiso   1.00
C268   C     0.50849   0.78802   0.30992   0.00000  Uiso   1.00
C269   C     0.75784   0.53817   0.02444   0.00000  Uiso   1.00
C270   C     0.74200   0.96186   0.30887   0.00000  Uiso   1.00
C271   C     0.74151   0.96198   0.02341   0.00000  Uiso   1.00
C272   C     0.75787   0.53816   0.30988   0.00000  Uiso   1.00
C273   C     0.91778   0.61472   0.18131   0.00000  Uiso   1.00
C274   C     0.58311   0.88521   0.18390   0.00000  Uiso   1.00
C275   C     0.63433   0.83247   0.14932   0.00000  Uiso   1.00
C276   C     0.93986   0.80986   0.16682   0.00000  Uiso   1.00
C277   C     0.86454   0.66785   0.15232   0.00000  Uiso   1.00
C278   C     0.63052   0.66337   0.19381   0.00000  Uiso   1.00
C279   C     0.87951   0.84691   0.12842   0.00000  Uiso   1.00
C280   C     0.90190   0.87072   0.20527   0.00000  Uiso   1.00
C281   C     0.58752   0.61892   0.13908   0.00000  Uiso   1.00
C282   C     0.66689   0.86478   0.14943   0.00000  Uiso   1.00
C283   C     0.83222   0.63529   0.15202   0.00000  Uiso   1.00
C284   C     0.88546   0.58215   0.18101   0.00000  Uiso   1.00
C285   C     0.61567   0.91753   0.18401   0.00000  Uiso   1.00
C286   C     0.87051   0.90311   0.20491   0.00000  Uiso   1.00
C287   C     0.94000   0.69018   0.16655   0.00000  Uiso   1.00
C288   C     0.61948   0.58663   0.13953   0.00000  Uiso   1.00
C289   C     0.66248   0.63109   0.19426   0.00000  Uiso   1.00
C290   C     0.84812   0.87929   0.12805   0.00000  Uiso   1.00
C291   C     0.59296   0.84304   0.16690   0.00000  Uiso   1.00
C292   C     0.90697   0.65703   0.16649   0.00000  Uiso   1.00
C293   C     0.90656   0.84276   0.16697   0.00000  Uiso   1.00
C294   C     0.59323   0.65703   0.16627   0.00000  Uiso   1.00
C295   C     0.84303   0.59297   0.16684   0.00000  Uiso   1.00
C296   C     0.65704   0.90696   0.16643   0.00000  Uiso   1.00
C297   C     0.65677   0.59297   0.16706   0.00000  Uiso   1.00
C298   C     0.55978   0.81005   0.16680   0.00000  Uiso   1.00
C299   C     0.84346   0.90725   0.16636   0.00000  Uiso   1.00
C300   C     0.81014   0.94014   0.16652   0.00000  Uiso   1.00
C301   C     0.69004   0.56000   0.16683   0.00000  Uiso   1.00
C302   C     0.69023   0.93995   0.16653   0.00000  Uiso   1.00
C303   C     0.81000   0.55982   0.16678   0.00000  Uiso   1.00
C304   C     0.50800   0.78814   0.02446   0.00000  Uiso   1.00
Cl305  Cl    0.97163   0.60236   0.19981   0.00000  Uiso   1.00
Cl306  Cl    0.77836   0.64764   0.13353   0.00000  Uiso   1.00
Cl307  Cl    0.89877   0.52753   0.19603   0.00000  Uiso   1.00
Cl308  Cl    0.60438   0.97125   0.20541   0.00000  Uiso   1.00
Cl309  Cl    0.86741   0.93855   0.25360   0.00000  Uiso   1.00
Cl310  Cl    0.61147   0.53753   0.10685   0.00000  Uiso   1.00
Cl311  Cl    0.71033   0.63978   0.22761   0.00000  Uiso   1.00
Cl312  Cl    0.81483   0.88255   0.07868   0.00000  Uiso   1.00
Cl313  Cl    0.52963   0.89828   0.20282   0.00000  Uiso   1.00
Cl314  Cl    0.64562   0.77875   0.12793   0.00000  Uiso   1.00
Cl315  Cl    0.85123   0.72247   0.13731   0.00000  Uiso   1.00
Cl316  Cl    0.63853   0.71247   0.22648   0.00000  Uiso   1.00
Cl317  Cl    0.88261   0.81148   0.07972   0.00000  Uiso   1.00
Cl318  Cl    0.93518   0.86747   0.25464   0.00000  Uiso   1.00
Cl319  Cl    0.53967   0.61022   0.10573   0.00000  Uiso   1.00
Cl320  Cl    0.72037   0.85172   0.13051   0.00000  Uiso   1.00
F321   F     0.51555   0.82654   0.04748   0.00000  Uiso   1.00
F322   F     0.98481   0.67339   0.28591   0.00000  Uiso   1.00
F323   F     0.98418   0.67354   0.04546   0.00000  Uiso   1.00
F324   F     0.51815   0.82599   0.28801   0.00000  Uiso   1.00
F325   F     0.76519   0.57661   0.04743   0.00000  Uiso   1.00
F326   F     0.73445   0.92346   0.28586   0.00000  Uiso   1.00
F327   F     0.73185   0.92401   0.04532   0.00000  Uiso   1.00
F328   F     0.76583   0.57646   0.28787   0.00000  Uiso   1.00
N329   N     0.50000   0.75000   0.28573   0.00000  Uiso   1.00
N330   N     0.50000   0.75000   0.04760   0.00000  Uiso   1.00
N331   N     0.75000   0.50000   0.28573   0.00000  Uiso   1.00
N332   N     0.75000   0.50000   0.04760   0.00000  Uiso   1.00
O333   O     0.54581   0.70419   0.20487   0.00000  Uiso   1.00
O334   O     0.70420   0.54581   0.12846   0.00000  Uiso   1.00
O335   O     0.70420   0.54581   0.20487   0.00000  Uiso   1.00
O336   O     0.79581   0.95419   0.12846   0.00000  Uiso   1.00
O337   O     0.70420   0.95419   0.12846   0.00000  Uiso   1.00
O338   O     0.79581   0.54581   0.20487   0.00000  Uiso   1.00
O339   O     0.79581   0.54581   0.12846   0.00000  Uiso   1.00
O340   O     0.70420   0.95419   0.20487   0.00000  Uiso   1.00
O341   O     0.95420   0.79581   0.12846   0.00000  Uiso   1.00
O342   O     0.95420   0.79581   0.20487   0.00000  Uiso   1.00
O343   O     0.54581   0.70419   0.12846   0.00000  Uiso   1.00
O344   O     0.95420   0.70419   0.12846   0.00000  Uiso   1.00
O345   O     0.54581   0.79581   0.20487   0.00000  Uiso   1.00
O346   O     0.54581   0.79581   0.12846   0.00000  Uiso   1.00
O347   O     0.95420   0.70419   0.20487   0.00000  Uiso   1.00
O348   O     0.79581   0.95419   0.20487   0.00000  Uiso   1.00
Zn349  Zn    0.50000   0.75000   0.21771   0.00000  Uiso   1.00
Zn350  Zn    0.50000   0.75000   0.11563   0.00000  Uiso   1.00
Zn351  Zn    0.75000   0.50000   0.21771   0.00000  Uiso   1.00
Zn352  Zn    0.75000   0.50000   0.11563   0.00000  Uiso   1.00
C353   C     0.05996   0.19000   0.49984   0.00000  Uiso   1.00
C354   C     0.49217   0.21183   0.64223   0.00000  Uiso   1.00
C355   C     0.49214   0.21184   0.35678   0.00000  Uiso   1.00
C356   C     0.00849   0.28802   0.64326   0.00000  Uiso   1.00
C357   C     0.25784   0.03817   0.35777   0.00000  Uiso   1.00
C358   C     0.24200   0.46186   0.64221   0.00000  Uiso   1.00
C359   C     0.24151   0.46198   0.35674   0.00000  Uiso   1.00
C360   C     0.25787   0.03816   0.64322   0.00000  Uiso   1.00
C361   C     0.41778   0.11472   0.51465   0.00000  Uiso   1.00
C362   C     0.08311   0.38521   0.51723   0.00000  Uiso   1.00
C363   C     0.13433   0.33247   0.48265   0.00000  Uiso   1.00
C364   C     0.43986   0.30986   0.50015   0.00000  Uiso   1.00
C365   C     0.36454   0.16785   0.48566   0.00000  Uiso   1.00
C366   C     0.13052   0.16337   0.52714   0.00000  Uiso   1.00
C367   C     0.37951   0.34691   0.46175   0.00000  Uiso   1.00
C368   C     0.40190   0.37072   0.53860   0.00000  Uiso   1.00
C369   C     0.08752   0.11892   0.47241   0.00000  Uiso   1.00
C370   C     0.16689   0.36478   0.48277   0.00000  Uiso   1.00
C371   C     0.33222   0.13529   0.48536   0.00000  Uiso   1.00
C372   C     0.38546   0.08215   0.51434   0.00000  Uiso   1.00
C373   C     0.11567   0.41753   0.51735   0.00000  Uiso   1.00
C374   C     0.37051   0.40311   0.53824   0.00000  Uiso   1.00
C375   C     0.44000   0.19018   0.49988   0.00000  Uiso   1.00
C376   C     0.11948   0.08663   0.47286   0.00000  Uiso   1.00
C377   C     0.16248   0.13109   0.52759   0.00000  Uiso   1.00
C378   C     0.34812   0.37929   0.46139   0.00000  Uiso   1.00
C379   C     0.09296   0.34304   0.50023   0.00000  Uiso   1.00
C380   C     0.40697   0.15703   0.49983   0.00000  Uiso   1.00
C381   C     0.40656   0.34276   0.50030   0.00000  Uiso   1.00
C382   C     0.09323   0.15703   0.49960   0.00000  Uiso   1.00
C383   C     0.34303   0.09297   0.50017   0.00000  Uiso   1.00
C384   C     0.15704   0.40696   0.49977   0.00000  Uiso   1.00
C385   C     0.15677   0.09297   0.50039   0.00000  Uiso   1.00
C386   C     0.05978   0.31005   0.50013   0.00000  Uiso   1.00
C387   C     0.34346   0.40725   0.49969   0.00000  Uiso   1.00
C388   C     0.31014   0.44014   0.49985   0.00000  Uiso   1.00
C389   C     0.19004   0.06000   0.50016   0.00000  Uiso   1.00
C390   C     0.19023   0.43995   0.49987   0.00000  Uiso   1.00
C391   C     0.31000   0.05982   0.50012   0.00000  Uiso   1.00
C392   C     0.00800   0.28814   0.35779   0.00000  Uiso   1.00
Cl393  Cl    0.47163   0.10236   0.53314   0.00000  Uiso   1.00
Cl394  Cl    0.27836   0.14764   0.46686   0.00000  Uiso   1.00
Cl395  Cl    0.39877   0.02753   0.52936   0.00000  Uiso   1.00
Cl396  Cl    0.10438   0.47125   0.53874   0.00000  Uiso   1.00
Cl397  Cl    0.36741   0.43855   0.58693   0.00000  Uiso   1.00
Cl398  Cl    0.11147   0.03753   0.44018   0.00000  Uiso   1.00
Cl399  Cl    0.21033   0.13978   0.56094   0.00000  Uiso   1.00
Cl400  Cl    0.31483   0.38255   0.41202   0.00000  Uiso   1.00
Cl401  Cl    0.02963   0.39828   0.53615   0.00000  Uiso   1.00
Cl402  Cl    0.14562   0.27875   0.46126   0.00000  Uiso   1.00
Cl403  Cl    0.35123   0.22247   0.47064   0.00000  Uiso   1.00
Cl404  Cl    0.13853   0.21247   0.55982   0.00000  Uiso   1.00
Cl405  Cl    0.38261   0.31148   0.41305   0.00000  Uiso   1.00
Cl406  Cl    0.43518   0.36747   0.58797   0.00000  Uiso   1.00
Cl407  Cl    0.03967   0.11022   0.43906   0.00000  Uiso   1.00
Cl408  Cl    0.22037   0.35172   0.46385   0.00000  Uiso   1.00
F409   F     0.01555   0.32654   0.38081   0.00000  Uiso   1.00
F410   F     0.48481   0.17339   0.61924   0.00000  Uiso   1.00
F411   F     0.48418   0.17354   0.37879   0.00000  Uiso   1.00
F412   F     0.01815   0.32599   0.62134   0.00000  Uiso   1.00
F413   F     0.26519   0.07661   0.38076   0.00000  Uiso   1.00
F414   F     0.23445   0.42346   0.61919   0.00000  Uiso   1.00
F415   F     0.23185   0.42401   0.37866   0.00000  Uiso   1.00
F416   F     0.26583   0.07646   0.62121   0.00000  Uiso   1.00
N417   N     0.00000   0.25000   0.61907   0.00000  Uiso   1.00
N418   N     0.00000   0.25000   0.38093   0.00000  Uiso   1.00
N419   N     0.25000  -0.00000   0.61907   0.00000  Uiso   1.00
N420   N     0.25000  -0.00000   0.38093   0.00000  Uiso   1.00
O421   O     0.04581   0.20419   0.53821   0.00000  Uiso   1.00
O422   O     0.20420   0.04581   0.46179   0.00000  Uiso   1.00
O423   O     0.20420   0.04581   0.53821   0.00000  Uiso   1.00
O424   O     0.29581   0.45419   0.46179   0.00000  Uiso   1.00
O425   O     0.20420   0.45419   0.46179   0.00000  Uiso   1.00
O426   O     0.29581   0.04581   0.53821   0.00000  Uiso   1.00
O427   O     0.29581   0.04581   0.46179   0.00000  Uiso   1.00
O428   O     0.20420   0.45419   0.53821   0.00000  Uiso   1.00
O429   O     0.45420   0.29581   0.46179   0.00000  Uiso   1.00
O430   O     0.45420   0.29581   0.53821   0.00000  Uiso   1.00
O431   O     0.04581   0.20419   0.46179   0.00000  Uiso   1.00
O432   O     0.45420   0.20419   0.46179   0.00000  Uiso   1.00
O433   O     0.04581   0.29581   0.53821   0.00000  Uiso   1.00
O434   O     0.04581   0.29581   0.46179   0.00000  Uiso   1.00
O435   O     0.45420   0.20419   0.53821   0.00000  Uiso   1.00
O436   O     0.29581   0.45419   0.53821   0.00000  Uiso   1.00
Zn437  Zn    0.00000   0.25000   0.55104   0.00000  Uiso   1.00
Zn438  Zn    0.00000   0.25000   0.44896   0.00000  Uiso   1.00
Zn439  Zn    0.25000  -0.00000   0.55104   0.00000  Uiso   1.00
Zn440  Zn    0.25000  -0.00000   0.44896   0.00000  Uiso   1.00
C441   C     0.55996   0.19000   0.49984   0.00000  Uiso   1.00
C442   C     0.99217   0.21183   0.64223   0.00000  Uiso   1.00
C443   C     0.99214   0.21184   0.35678   0.00000  Uiso   1.00
C444   C     0.50849   0.28802   0.64326   0.00000  Uiso   1.00
C445   C     0.75784   0.03817   0.35777   0.00000  Uiso   1.00
C446   C     0.74200   0.46186   0.64221   0.00000  Uiso   1.00
C447   C     0.74151   0.46198   0.35674   0.00000  Uiso   1.00
C448   C     0.75787   0.03816   0.64322   0.00000  Uiso   1.00
C449   C     0.91778   0.11472   0.51465   0.00000  Uiso   1.00
C450   C     0.58311   0.38521   0.51723   0.00000  Uiso   1.00
C451   C     0.63433   0.33247   0.48265   0.00000  Uiso   1.00
C452   C     0.93986   0.30986   0.50015   0.00000  Uiso   1.00
C453   C     0.86454   0.16785   0.48566   0.00000  Uiso   1.00
C454   C     0.63052   0.16337   0.52714   0.00000  Uiso   1.00
C455   C     0.87951   0.34691   0.46175   0.00000  Uiso   1.00
C456   C     0.90190   0.37072   0.53860   0.00000  Uiso   1.00
C457   C     0.58752   0.11892   0.47241   0.00000  Uiso   1.00
C458   C     0.66689   0.36478   0.48277   0.00000  Uiso   1.00
C459   C     0.83222   0.13529   0.48536   0.00000  Uiso   1.00
C460   C     0.88546   0.08215   0.51434   0.00000  Uiso   1.00
C461   C     0.61567   0.41753   0.51735   0.00000  Uiso   1.00
C462   C     0.87051   0.40311   0.53824   0.00000  Uiso   1.00
C463   C     0.94000   0.19018   0.49988   0.00000  Uiso   1.00
C464   C     0.61948   0.08663   0.47286   0.00000  Uiso   1.00
C465   C     0.66248   0.13109   0.52759   0.00000  Uiso   1.00
C466   C     0.84812   0.37929   0.46139   0.00000  Uiso   1.00
C467   C     0.59296   0.34304   0.50023   0.00000  Uiso   1.00
C468   C     0.90697   0.15703   0.49983   0.00000  Uiso   1.00
C469   C     0.90656   0.34276   0.50030   0.00000  Uiso   1.00
C470   C     0.59323   0.15703   0.49960   0.00000  Uiso   1.00
C471   C     0.84303   0.09297   0.50017   0.00000  Uiso   1.00
C472   C     0.65704   0.40696   0.49977   0.00000  Uiso   1.00
C473   C     0.65677   0.09297   0.50039   0.00000  Uiso   1.00
C474   C     0.55978   0.31005   0.50013   0.00000  Uiso   1.00
C475   C     0.84346   0.40725   0.49969   0.00000  Uiso   1.00
C476   C     0.81014   0.44014   0.49985   0.00000  Uiso   1.00
C477   C     0.69004   0.06000   0.50016   0.00000  Uiso   1.00
C478   C     0.69023   0.43995   0.49987   0.00000  Uiso   1.00
C479   C     0.81000   0.05982   0.50012   0.00000  Uiso   1.00
C480   C     0.50800   0.28814   0.35779   0.00000  Uiso   1.00
Cl481  Cl    0.97163   0.10236   0.53314   0.00000  Uiso   1.00
Cl482  Cl    0.77836   0.14764   0.46686   0.00000  Uiso   1.00
Cl483  Cl    0.89877   0.02753   0.52936   0.00000  Uiso   1.00
Cl484  Cl    0.60438   0.47125   0.53874   0.00000  Uiso   1.00
Cl485  Cl    0.86741   0.43855   0.58693   0.00000  Uiso   1.00
Cl486  Cl    0.61147   0.03753   0.44018   0.00000  Uiso   1.00
Cl487  Cl    0.71033   0.13978   0.56094   0.00000  Uiso   1.00
Cl488  Cl    0.81483   0.38255   0.41202   0.00000  Uiso   1.00
Cl489  Cl    0.52963   0.39828   0.53615   0.00000  Uiso   1.00
Cl490  Cl    0.64562   0.27875   0.46126   0.00000  Uiso   1.00
Cl491  Cl    0.85123   0.22247   0.47064   0.00000  Uiso   1.00
Cl492  Cl    0.63853   0.21247   0.55982   0.00000  Uiso   1.00
Cl493  Cl    0.88261   0.31148   0.41305   0.00000  Uiso   1.00
Cl494  Cl    0.93518   0.36747   0.58797   0.00000  Uiso   1.00
Cl495  Cl    0.53967   0.11022   0.43906   0.00000  Uiso   1.00
Cl496  Cl    0.72037   0.35172   0.46385   0.00000  Uiso   1.00
F497   F     0.51555   0.32654   0.38081   0.00000  Uiso   1.00
F498   F     0.98481   0.17339   0.61924   0.00000  Uiso   1.00
F499   F     0.98418   0.17354   0.37879   0.00000  Uiso   1.00
F500   F     0.51815   0.32599   0.62134   0.00000  Uiso   1.00
F501   F     0.76519   0.07661   0.38076   0.00000  Uiso   1.00
F502   F     0.73445   0.42346   0.61919   0.00000  Uiso   1.00
F503   F     0.73185   0.42401   0.37866   0.00000  Uiso   1.00
F504   F     0.76583   0.07646   0.62121   0.00000  Uiso   1.00
N505   N     0.50000   0.25000   0.61907   0.00000  Uiso   1.00
N506   N     0.50000   0.25000   0.38093   0.00000  Uiso   1.00
N507   N     0.75000  -0.00000   0.61907   0.00000  Uiso   1.00
N508   N     0.75000  -0.00000   0.38093   0.00000  Uiso   1.00
O509   O     0.54581   0.20419   0.53821   0.00000  Uiso   1.00
O510   O     0.70420   0.04581   0.46179   0.00000  Uiso   1.00
O511   O     0.70420   0.04581   0.53821   0.00000  Uiso   1.00
O512   O     0.79581   0.45419   0.46179   0.00000  Uiso   1.00
O513   O     0.70420   0.45419   0.46179   0.00000  Uiso   1.00
O514   O     0.79581   0.04581   0.53821   0.00000  Uiso   1.00
O515   O     0.79581   0.04581   0.46179   0.00000  Uiso   1.00
O516   O     0.70420   0.45419   0.53821   0.00000  Uiso   1.00
O517   O     0.95420   0.29581   0.46179   0.00000  Uiso   1.00
O518   O     0.95420   0.29581   0.53821   0.00000  Uiso   1.00
O519   O     0.54581   0.20419   0.46179   0.00000  Uiso   1.00
O520   O     0.95420   0.20419   0.46179   0.00000  Uiso   1.00
O521   O     0.54581   0.29581   0.53821   0.00000  Uiso   1.00
O522   O     0.54581   0.29581   0.46179   0.00000  Uiso   1.00
O523   O     0.95420   0.20419   0.53821   0.00000  Uiso   1.00
O524   O     0.79581   0.45419   0.53821   0.00000  Uiso   1.00
Zn525  Zn    0.50000   0.25000   0.55104   0.00000  Uiso   1.00
Zn526  Zn    0.50000   0.25000   0.44896   0.00000  Uiso   1.00
Zn527  Zn    0.75000  -0.00000   0.55104   0.00000  Uiso   1.00
Zn528  Zn    0.75000  -0.00000   0.44896   0.00000  Uiso   1.00
C529   C     0.05996   0.69000   0.49984   0.00000  Uiso   1.00
C530   C     0.49217   0.71183   0.64223   0.00000  Uiso   1.00
C531   C     0.49214   0.71184   0.35678   0.00000  Uiso   1.00
C532   C     0.00849   0.78802   0.64326   0.00000  Uiso   1.00
C533   C     0.25784   0.53817   0.35777   0.00000  Uiso   1.00
C534   C     0.24200   0.96186   0.64221   0.00000  Uiso   1.00
C535   C     0.24151   0.96198   0.35674   0.00000  Uiso   1.00
C536   C     0.25787   0.53816   0.64322   0.00000  Uiso   1.00
C537   C     0.41778   0.61472   0.51465   0.00000  Uiso   1.00
C538   C     0.08311   0.88521   0.51723   0.00000  Uiso   1.00
C539   C     0.13433   0.83247   0.48265   0.00000  Uiso   1.00
C540   C     0.43986   0.80986   0.50015   0.00000  Uiso   1.00
C541   C     0.36454   0.66785   0.48566   0.00000  Uiso   1.00
C542   C     0.13052   0.66337   0.52714   0.00000  Uiso   1.00
C543   C     0.37951   0.84691   0.46175   0.00000  Uiso   1.00
C544   C     0.40190   0.87072   0.53860   0.00000  Uiso   1.00
C545   C     0.08752   0.61892   0.47241   0.00000  Uiso   1.00
C546   C     0.16689   0.86478   0.48277   0.00000  Uiso   1.00
C547   C     0.33222   0.63529   0.48536   0.00000  Uiso   1.00
C548   C     0.38546   0.58215   0.51434   0.00000  Uiso   1.00
C549   C     0.11567   0.91753   0.51735   0.00000  Uiso   1.00
C550   C     0.37051   0.90311   0.53824   0.00000  Uiso   1.00
C551   C     0.44000   0.69018   0.49988   0.00000  Uiso   1.00
C552   C     0.11948   0.58663   0.47286   0.00000  Uiso   1.00
C553   C     0.16248   0.63109   0.52759   0.00000  Uiso   1.00
C554   C     0.34812   0.87929   0.46139   0.00000  Uiso   1.00
C555   C     0.09296   0.84304   0.50023   0.00000  Uiso   1.00
C556   C     0.40697   0.65703   0.49983   0.00000  Uiso   1.00
C557   C     0.40656   0.84276   0.50030   0.00000  Uiso   1.00
C558   C     0.09323   0.65703   0.49960   0.00000  Uiso   1.00
C559   C     0.34303   0.59297   0.50017   0.00000  Uiso   1.00
C560   C     0.15704   0.90696   0.49977   0.00000  Uiso   1.00
C561   C     0.15677   0.59297   0.50039   0.00000  Uiso   1.00
C562   C     0.05978   0.81005   0.50013   0.00000  Uiso   1.00
C563   C     0.34346   0.90725   0.49969   0.00000  Uiso   1.00
C564   C     0.31014   0.94014   0.49985   0.00000  Uiso   1.00
C565   C     0.19004   0.56000   0.50016   0.00000  Uiso   1.00
C566   C     0.19023   0.93995   0.49987   0.00000  Uiso   1.00
C567   C     0.31000   0.55982   0.50012   0.00000  Uiso   1.00
C568   C     0.00800   0.78814   0.35779   0.00000  Uiso   1.00
Cl569  Cl    0.47163   0.60236   0.53314   0.00000  Uiso   1.00
Cl570  Cl    0.27836   0.64764   0.46686   0.00000  Uiso   1.00
Cl571  Cl    0.39877   0.52753   0.52936   0.00000  Uiso   1.00
Cl572  Cl    0.10438   0.97125   0.53874   0.00000  Uiso   1.00
Cl573  Cl    0.36741   0.93855   0.58693   0.00000  Uiso   1.00
Cl574  Cl    0.11147   0.53753   0.44018   0.00000  Uiso   1.00
Cl575  Cl    0.21033   0.63978   0.56094   0.00000  Uiso   1.00
Cl576  Cl    0.31483   0.88255   0.41202   0.00000  Uiso   1.00
Cl577  Cl    0.02963   0.89828   0.53615   0.00000  Uiso   1.00
Cl578  Cl    0.14562   0.77875   0.46126   0.00000  Uiso   1.00
Cl579  Cl    0.35123   0.72247   0.47064   0.00000  Uiso   1.00
Cl580  Cl    0.13853   0.71247   0.55982   0.00000  Uiso   1.00
Cl581  Cl    0.38261   0.81148   0.41305   0.00000  Uiso   1.00
Cl582  Cl    0.43518   0.86747   0.58797   0.00000  Uiso   1.00
Cl583  Cl    0.03967   0.61022   0.43906   0.00000  Uiso   1.00
Cl584  Cl    0.22037   0.85172   0.46385   0.00000  Uiso   1.00
F585   F     0.01555   0.82654   0.38081   0.00000  Uiso   1.00
F586   F     0.48481   0.67339   0.61924   0.00000  Uiso   1.00
F587   F     0.48418   0.67354   0.37879   0.00000  Uiso   1.00
F588   F     0.01815   0.82599   0.62134   0.00000  Uiso   1.00
F589   F     0.26519   0.57661   0.38076   0.00000  Uiso   1.00
F590   F     0.23445   0.92346   0.61919   0.00000  Uiso   1.00
F591   F     0.23185   0.92401   0.37866   0.00000  Uiso   1.00
F592   F     0.26583   0.57646   0.62121   0.00000  Uiso   1.00
N593   N     0.00000   0.75000   0.61907   0.00000  Uiso   1.00
N594   N     0.00000   0.75000   0.38093   0.00000  Uiso   1.00
N595   N     0.25000   0.50000   0.61907   0.00000  Uiso   1.00
N596   N     0.25000   0.50000   0.38093   0.00000  Uiso   1.00
O597   O     0.04581   0.70419   0.53821   0.00000  Uiso   1.00
O598   O     0.20420   0.54581   0.46179   0.00000  Uiso   1.00
O599   O     0.20420   0.54581   0.53821   0.00000  Uiso   1.00
O600   O     0.29581   0.95419   0.46179   0.00000  Uiso   1.00
O601   O     0.20420   0.95419   0.46179   0.00000  Uiso   1.00
O602   O     0.29581   0.54581   0.53821   0.00000  Uiso   1.00
O603   O     0.29581   0.54581   0.46179   0.00000  Uiso   1.00
O604   O     0.20420   0.95419   0.53821   0.00000  Uiso   1.00
O605   O     0.45420   0.79581   0.46179   0.00000  Uiso   1.00
O606   O     0.45420   0.79581   0.53821   0.00000  Uiso   1.00
O607   O     0.04581   0.70419   0.46179   0.00000  Uiso   1.00
O608   O     0.45420   0.70419   0.46179   0.00000  Uiso   1.00
O609   O     0.04581   0.79581   0.53821   0.00000  Uiso   1.00
O610   O     0.04581   0.79581   0.46179   0.00000  Uiso   1.00
O611   O     0.45420   0.70419   0.53821   0.00000  Uiso   1.00
O612   O     0.29581   0.95419   0.53821   0.00000  Uiso   1.00
Zn613  Zn    0.00000   0.75000   0.55104   0.00000  Uiso   1.00
Zn614  Zn    0.00000   0.75000   0.44896   0.00000  Uiso   1.00
Zn615  Zn    0.25000   0.50000   0.55104   0.00000  Uiso   1.00
Zn616  Zn    0.25000   0.50000   0.44896   0.00000  Uiso   1.00
C617   C     0.55996   0.69000   0.49984   0.00000  Uiso   1.00
C618   C     0.99217   0.71183   0.64223   0.00000  Uiso   1.00
C619   C     0.99214   0.71184   0.35678   0.00000  Uiso   1.00
C620   C     0.50849   0.78802   0.64326   0.00000  Uiso   1.00
C621   C     0.75784   0.53817   0.35777   0.00000  Uiso   1.00
C622   C     0.74200   0.96186   0.64221   0.00000  Uiso   1.00
C623   C     0.74151   0.96198   0.35674   0.00000  Uiso   1.00
C624   C     0.75787   0.53816   0.64322   0.00000  Uiso   1.00
C625   C     0.91778   0.61472   0.51465   0.00000  Uiso   1.00
C626   C     0.58311   0.88521   0.51723   0.00000  Uiso   1.00
C627   C     0.63433   0.83247   0.48265   0.00000  Uiso   1.00
C628   C     0.93986   0.80986   0.50015   0.00000  Uiso   1.00
C629   C     0.86454   0.66785   0.48566   0.00000  Uiso   1.00
C630   C     0.63052   0.66337   0.52714   0.00000  Uiso   1.00
C631   C     0.87951   0.84691   0.46175   0.00000  Uiso   1.00
C632   C     0.90190   0.87072   0.53860   0.00000  Uiso   1.00
C633   C     0.58752   0.61892   0.47241   0.00000  Uiso   1.00
C634   C     0.66689   0.86478   0.48277   0.00000  Uiso   1.00
C635   C     0.83222   0.63529   0.48536   0.00000  Uiso   1.00
C636   C     0.88546   0.58215   0.51434   0.00000  Uiso   1.00
C637   C     0.61567   0.91753   0.51735   0.00000  Uiso   1.00
C638   C     0.87051   0.90311   0.53824   0.00000  Uiso   1.00
C639   C     0.94000   0.69018   0.49988   0.00000  Uiso   1.00
C640   C     0.61948   0.58663   0.47286   0.00000  Uiso   1.00
C641   C     0.66248   0.63109   0.52759   0.00000  Uiso   1.00
C642   C     0.84812   0.87929   0.46139   0.00000  Uiso   1.00
C643   C     0.59296   0.84304   0.50023   0.00000  Uiso   1.00
C644   C     0.90697   0.65703   0.49983   0.00000  Uiso   1.00
C645   C     0.90656   0.84276   0.50030   0.00000  Uiso   1.00
C646   C     0.59323   0.65703   0.49960   0.00000  Uiso   1.00
C647   C     0.84303   0.59297   0.50017   0.00000  Uiso   1.00
C648   C     0.65704   0.90696   0.49977   0.00000  Uiso   1.00
C649   C     0.65677   0.59297   0.50039   0.00000  Uiso   1.00
C650   C     0.55978   0.81005   0.50013   0.00000  Uiso   1.00
C651   C     0.84346   0.90725   0.49969   0.00000  Uiso   1.00
C652   C     0.81014   0.94014   0.49985   0.00000  Uiso   1.00
C653   C     0.69004   0.56000   0.50016   0.00000  Uiso   1.00
C654   C     0.69023   0.93995   0.49987   0.00000  Uiso   1.00
C655   C     0.81000   0.55982   0.50012   0.00000  Uiso   1.00
C656   C     0.50800   0.78814   0.35779   0.00000  Uiso   1.00
Cl657  Cl    0.97163   0.60236   0.53314   0.00000  Uiso   1.00
Cl658  Cl    0.77836   0.64764   0.46686   0.00000  Uiso   1.00
Cl659  Cl    0.89877   0.52753   0.52936   0.00000  Uiso   1.00
Cl660  Cl    0.60438   0.97125   0.53874   0.00000  Uiso   1.00
Cl661  Cl    0.86741   0.93855   0.58693   0.00000  Uiso   1.00
Cl662  Cl    0.61147   0.53753   0.44018   0.00000  Uiso   1.00
Cl663  Cl    0.71033   0.63978   0.56094   0.00000  Uiso   1.00
Cl664  Cl    0.81483   0.88255   0.41202   0.00000  Uiso   1.00
Cl665  Cl    0.52963   0.89828   0.53615   0.00000  Uiso   1.00
Cl666  Cl    0.64562   0.77875   0.46126   0.00000  Uiso   1.00
Cl667  Cl    0.85123   0.72247   0.47064   0.00000  Uiso   1.00
Cl668  Cl    0.63853   0.71247   0.55982   0.00000  Uiso   1.00
Cl669  Cl    0.88261   0.81148   0.41305   0.00000  Uiso   1.00
Cl670  Cl    0.93518   0.86747   0.58797   0.00000  Uiso   1.00
Cl671  Cl    0.53967   0.61022   0.43906   0.00000  Uiso   1.00
Cl672  Cl    0.72037   0.85172   0.46385   0.00000  Uiso   1.00
F673   F     0.51555   0.82654   0.38081   0.00000  Uiso   1.00
F674   F     0.98481   0.67339   0.61924   0.00000  Uiso   1.00
F675   F     0.98418   0.67354   0.37879   0.00000  Uiso   1.00
F676   F     0.51815   0.82599   0.62134   0.00000  Uiso   1.00
F677   F     0.76519   0.57661   0.38076   0.00000  Uiso   1.00
F678   F     0.73445   0.92346   0.61919   0.00000  Uiso   1.00
F679   F     0.73185   0.92401   0.37866   0.00000  Uiso   1.00
F680   F     0.76583   0.57646   0.62121   0.00000  Uiso   1.00
N681   N     0.50000   0.75000   0.61907   0.00000  Uiso   1.00
N682   N     0.50000   0.75000   0.38093   0.00000  Uiso   1.00
N683   N     0.75000   0.50000   0.61907   0.00000  Uiso   1.00
N684   N     0.75000   0.50000   0.38093   0.00000  Uiso   1.00
O685   O     0.54581   0.70419   0.53821   0.00000  Uiso   1.00
O686   O     0.70420   0.54581   0.46179   0.00000  Uiso   1.00
O687   O     0.70420   0.54581   0.53821   0.00000  Uiso   1.00
O688   O     0.79581   0.95419   0.46179   0.00000  Uiso   1.00
O689   O     0.70420   0.95419   0.46179   0.00000  Uiso   1.00
O690   O     0.79581   0.54581   0.53821   0.00000  Uiso   1.00
O691   O     0.79581   0.54581   0.46179   0.00000  Uiso   1.00
O692   O     0.70420   0.95419   0.53821   0.00000  Uiso   1.00
O693   O     0.95420   0.79581   0.46179   0.00000  Uiso   1.00
O694   O     0.95420   0.79581   0.53821   0.00000  Uiso   1.00
O695   O     0.54581   0.70419   0.46179   0.00000  Uiso   1.00
O696   O     0.95420   0.70419   0.46179   0.00000  Uiso   1.00
O697   O     0.54581   0.79581   0.53821   0.00000  Uiso   1.00
O698   O     0.54581   0.79581   0.46179   0.00000  Uiso   1.00
O699   O     0.95420   0.70419   0.53821   0.00000  Uiso   1.00
O700   O     0.79581   0.95419   0.53821   0.00000  Uiso   1.00
Zn701  Zn    0.50000   0.75000   0.55104   0.00000  Uiso   1.00
Zn702  Zn    0.50000   0.75000   0.44896   0.00000  Uiso   1.00
Zn703  Zn    0.75000   0.50000   0.55104   0.00000  Uiso   1.00
Zn704  Zn    0.75000   0.50000   0.44896   0.00000  Uiso   1.00
C705   C     0.05996   0.19000   0.83317   0.00000  Uiso   1.00
C706   C     0.49217   0.21183   0.97556   0.00000  Uiso   1.00
C707   C     0.49214   0.21184   0.69012   0.00000  Uiso   1.00
C708   C     0.00849   0.28802   0.97659   0.00000  Uiso   1.00
C709   C     0.25784   0.03817   0.69110   0.00000  Uiso   1.00
C710   C     0.24200   0.46186   0.97554   0.00000  Uiso   1.00
C711   C     0.24151   0.46198   0.69008   0.00000  Uiso   1.00
C712   C     0.25787   0.03816   0.97655   0.00000  Uiso   1.00
C713   C     0.41778   0.11472   0.84798   0.00000  Uiso   1.00
C714   C     0.08311   0.38521   0.85057   0.00000  Uiso   1.00
C715   C     0.13433   0.33247   0.81599   0.00000  Uiso   1.00
C716   C     0.43986   0.30986   0.83348   0.00000  Uiso   1.00
C717   C     0.36454   0.16785   0.81899   0.00000  Uiso   1.00
C718   C     0.13052   0.16337   0.86047   0.00000  Uiso   1.00
C719   C     0.37951   0.34691   0.79508   0.00000  Uiso   1.00
C720   C     0.40190   0.37072   0.87194   0.00000  Uiso   1.00
C721   C     0.08752   0.11892   0.80574   0.00000  Uiso   1.00
C722   C     0.16689   0.36478   0.81610   0.00000  Uiso   1.00
C723   C     0.33222   0.13529   0.81869   0.00000  Uiso   1.00
C724   C     0.38546   0.08215   0.84768   0.00000  Uiso   1.00
C725   C     0.11567   0.41753   0.85068   0.00000  Uiso   1.00
C726   C     0.37051   0.40311   0.87157   0.00000  Uiso   1.00
C727   C     0.44000   0.19018   0.83322   0.00000  Uiso   1.00
C728   C     0.11948   0.08663   0.80619   0.00000  Uiso   1.00
C729   C     0.16248   0.13109   0.86092   0.00000  Uiso   1.00
C730   C     0.34812   0.37929   0.79472   0.00000  Uiso   1.00
C731   C     0.09296   0.34304   0.83357   0.00000  Uiso   1.00
C732   C     0.40697   0.15703   0.83316   0.00000  Uiso   1.00
C733   C     0.40656   0.34276   0.83364   0.00000  Uiso   1.00
C734   C     0.09323   0.15703   0.83294   0.00000  Uiso   1.00
C735   C     0.34303   0.09297   0.83351   0.00000  Uiso   1.00
C736   C     0.15704   0.40696   0.83310   0.00000  Uiso   1.00
C737   C     0.15677   0.09297   0.83373   0.00000  Uiso   1.00
C738   C     0.05978   0.31005   0.83347   0.00000  Uiso   1.00
C739   C     0.34346   0.40725   0.83302   0.00000  Uiso   1.00
C740   C     0.31014   0.44014   0.83318   0.00000  Uiso   1.00
C741   C     0.19004   0.06000   0.83349   0.00000  Uiso   1.00
C742   C     0.19023   0.43995   0.83320   0.00000  Uiso   1.00
C743   C     0.31000   0.05982   0.83345   0.00000  Uiso   1.00
C744   C     0.00800   0.28814   0.69113   0.00000  Uiso   1.00
Cl745  Cl    0.47163   0.10236   0.86648   0.00000  Uiso   1.00
Cl746  Cl    0.27836   0.14764   0.80019   0.00000  Uiso   1.00
Cl747  Cl    0.39877   0.02753   0.86270   0.00000  Uiso   1.00
Cl748  Cl    0.10438   0.47125   0.87207   0.00000  Uiso   1.00
Cl749  Cl    0.36741   0.43855   0.92027   0.00000  Uiso   1.00
Cl750  Cl    0.11147   0.03753   0.77352   0.00000  Uiso   1.00
Cl751  Cl    0.21033   0.13978   0.89427   0.00000  Uiso   1.00
Cl752  Cl    0.31483   0.38255   0.74535   0.00000  Uiso   1.00
Cl753  Cl    0.02963   0.39828   0.86949   0.00000  Uiso   1.00
Cl754  Cl    0.14562   0.27875   0.79459   0.00000  Uiso   1.00
Cl755  Cl    0.35123   0.22247   0.80397   0.00000  Uiso   1.00
Cl756  Cl    0.13853   0.21247   0.89315   0.00000  Uiso   1.00
Cl757  Cl    0.38261   0.31148   0.74639   0.00000  Uiso   1.00
Cl758  Cl    0.43518   0.36747   0.92130   0.00000  Uiso   1.00
Cl759  Cl    0.03967   0.11022   0.77240   0.00000  Uiso   1.00
Cl760  Cl    0.22037   0.35172   0.79718   0.00000  Uiso   1.00
F761   F     0.01555   0.32654   0.71414   0.00000  Uiso   1.00
F762   F     0.48481   0.17339   0.95257   0.00000  Uiso   1.00
F763   F     0.48418   0.17354   0.71213   0.00000  Uiso   1.00
F764   F     0.01815   0.32599   0.95468   0.00000  Uiso   1.00
F765   F     0.26519   0.07661   0.71409   0.00000  Uiso   1.00
F766   F     0.23445   0.42346   0.95252   0.00000  Uiso   1.00
F767   F     0.23185   0.42401   0.71199   0.00000  Uiso   1.00
F768   F     0.26583   0.07646   0.95454   0.00000  Uiso   1.00
N769   N     0.00000   0.25000   0.95240   0.00000  Uiso   1.00
N770   N     0.00000   0.25000   0.71427   0.00000  Uiso   1.00
N771   N     0.25000  -0.00000   0.95240   0.00000  Uiso   1.00
N772   N     0.25000  -0.00000   0.71427   0.00000  Uiso   1.00
O773   O     0.04581   0.20419   0.87154   0.00000  Uiso   1.00
O774   O     0.20420   0.04581   0.79513   0.00000  Uiso   1.00
O775   O     0.20420   0.04581   0.87154   0.00000  Uiso   1.00
O776   O     0.29581   0.45419   0.79513   0.00000  Uiso   1.00
O777   O     0.20420   0.45419   0.79513   0.00000  Uiso   1.00
O778   O     0.29581   0.04581   0.87154   0.00000  Uiso   1.00
O779   O     0.29581   0.04581   0.79513   0.00000  Uiso   1.00
O780   O     0.20420   0.45419   0.87154   0.00000  Uiso   1.00
O781   O     0.45420   0.29581   0.79513   0.00000  Uiso   1.00
O782   O     0.45420   0.29581   0.87154   0.00000  Uiso   1.00
O783   O     0.04581   0.20419   0.79513   0.00000  Uiso   1.00
O784   O     0.45420   0.20419   0.79513   0.00000  Uiso   1.00
O785   O     0.04581   0.29581   0.87154   0.00000  Uiso   1.00
O786   O     0.04581   0.29581   0.79513   0.00000  Uiso   1.00
O787   O     0.45420   0.20419   0.87154   0.00000  Uiso   1.00
O788   O     0.29581   0.45419   0.87154   0.00000  Uiso   1.00
Zn789  Zn    0.00000   0.25000   0.88437   0.00000  Uiso   1.00
Zn790  Zn    0.00000   0.25000   0.78229   0.00000  Uiso   1.00
Zn791  Zn    0.25000  -0.00000   0.88437   0.00000  Uiso   1.00
Zn792  Zn    0.25000  -0.00000   0.78229   0.00000  Uiso   1.00
C793   C     0.55996   0.19000   0.83317   0.00000  Uiso   1.00
C794   C     0.99217   0.21183   0.97556   0.00000  Uiso   1.00
C795   C     0.99214   0.21184   0.69012   0.00000  Uiso   1.00
C796   C     0.50849   0.28802   0.97659   0.00000  Uiso   1.00
C797   C     0.75784   0.03817   0.69110   0.00000  Uiso   1.00
C798   C     0.74200   0.46186   0.97554   0.00000  Uiso   1.00
C799   C     0.74151   0.46198   0.69008   0.00000  Uiso   1.00
C800   C     0.75787   0.03816   0.97655   0.00000  Uiso   1.00
C801   C     0.91778   0.11472   0.84798   0.00000  Uiso   1.00
C802   C     0.58311   0.38521   0.85057   0.00000  Uiso   1.00
C803   C     0.63433   0.33247   0.81599   0.00000  Uiso   1.00
C804   C     0.93986   0.30986   0.83348   0.00000  Uiso   1.00
C805   C     0.86454   0.16785   0.81899   0.00000  Uiso   1.00
C806   C     0.63052   0.16337   0.86047   0.00000  Uiso   1.00
C807   C     0.87951   0.34691   0.79508   0.00000  Uiso   1.00
C808   C     0.90190   0.37072   0.87194   0.00000  Uiso   1.00
C809   C     0.58752   0.11892   0.80574   0.00000  Uiso   1.00
C810   C     0.66689   0.36478   0.81610   0.00000  Uiso   1.00
C811   C     0.83222   0.13529   0.81869   0.00000  Uiso   1.00
C812   C     0.88546   0.08215   0.84768   0.00000  Uiso   1.00
C813   C     0.61567   0.41753   0.85068   0.00000  Uiso   1.00
C814   C     0.87051   0.40311   0.87157   0.00000  Uiso   1.00
C815   C     0.94000   0.19018   0.83322   0.00000  Uiso   1.00
C816   C     0.61948   0.08663   0.80619   0.00000  Uiso   1.00
C817   C     0.66248   0.13109   0.86092   0.00000  Uiso   1.00
C818   C     0.84812   0.37929   0.79472   0.00000  Uiso   1.00
C819   C     0.59296   0.34304   0.83357   0.00000  Uiso   1.00
C820   C     0.90697   0.15703   0.83316   0.00000  Uiso   1.00
C821   C     0.90656   0.34276   0.83364   0.00000  Uiso   1.00
C822   C     0.59323   0.15703   0.83294   0.00000  Uiso   1.00
C823   C     0.84303   0.09297   0.83351   0.00000  Uiso   1.00
C824   C     0.65704   0.40696   0.83310   0.00000  Uiso   1.00
C825   C     0.65677   0.09297   0.83373   0.00000  Uiso   1.00
C826   C     0.55978   0.31005   0.83347   0.00000  Uiso   1.00
C827   C     0.84346   0.40725   0.83302   0.00000  Uiso   1.00
C828   C     0.81014   0.44014   0.83318   0.00000  Uiso   1.00
C829   C     0.69004   0.06000   0.83349   0.00000  Uiso   1.00
C830   C     0.69023   0.43995   0.83320   0.00000  Uiso   1.00
C831   C     0.81000   0.05982   0.83345   0.00000  Uiso   1.00
C832   C     0.50800   0.28814   0.69113   0.00000  Uiso   1.00
Cl833  Cl    0.97163   0.10236   0.86648   0.00000  Uiso   1.00
Cl834  Cl    0.77836   0.14764   0.80019   0.00000  Uiso   1.00
Cl835  Cl    0.89877   0.02753   0.86270   0.00000  Uiso   1.00
Cl836  Cl    0.60438   0.47125   0.87207   0.00000  Uiso   1.00
Cl837  Cl    0.86741   0.43855   0.92027   0.00000  Uiso   1.00
Cl838  Cl    0.61147   0.03753   0.77352   0.00000  Uiso   1.00
Cl839  Cl    0.71033   0.13978   0.89427   0.00000  Uiso   1.00
Cl840  Cl    0.81483   0.38255   0.74535   0.00000  Uiso   1.00
Cl841  Cl    0.52963   0.39828   0.86949   0.00000  Uiso   1.00
Cl842  Cl    0.64562   0.27875   0.79459   0.00000  Uiso   1.00
Cl843  Cl    0.85123   0.22247   0.80397   0.00000  Uiso   1.00
Cl844  Cl    0.63853   0.21247   0.89315   0.00000  Uiso   1.00
Cl845  Cl    0.88261   0.31148   0.74639   0.00000  Uiso   1.00
Cl846  Cl    0.93518   0.36747   0.92130   0.00000  Uiso   1.00
Cl847  Cl    0.53967   0.11022   0.77240   0.00000  Uiso   1.00
Cl848  Cl    0.72037   0.35172   0.79718   0.00000  Uiso   1.00
F849   F     0.51555   0.32654   0.71414   0.00000  Uiso   1.00
F850   F     0.98481   0.17339   0.95257   0.00000  Uiso   1.00
F851   F     0.98418   0.17354   0.71213   0.00000  Uiso   1.00
F852   F     0.51815   0.32599   0.95468   0.00000  Uiso   1.00
F853   F     0.76519   0.07661   0.71409   0.00000  Uiso   1.00
F854   F     0.73445   0.42346   0.95252   0.00000  Uiso   1.00
F855   F     0.73185   0.42401   0.71199   0.00000  Uiso   1.00
F856   F     0.76583   0.07646   0.95454   0.00000  Uiso   1.00
N857   N     0.50000   0.25000   0.95240   0.00000  Uiso   1.00
N858   N     0.50000   0.25000   0.71427   0.00000  Uiso   1.00
N859   N     0.75000  -0.00000   0.95240   0.00000  Uiso   1.00
N860   N     0.75000  -0.00000   0.71427   0.00000  Uiso   1.00
O861   O     0.54581   0.20419   0.87154   0.00000  Uiso   1.00
O862   O     0.70420   0.04581   0.79513   0.00000  Uiso   1.00
O863   O     0.70420   0.04581   0.87154   0.00000  Uiso   1.00
O864   O     0.79581   0.45419   0.79513   0.00000  Uiso   1.00
O865   O     0.70420   0.45419   0.79513   0.00000  Uiso   1.00
O866   O     0.79581   0.04581   0.87154   0.00000  Uiso   1.00
O867   O     0.79581   0.04581   0.79513   0.00000  Uiso   1.00
O868   O     0.70420   0.45419   0.87154   0.00000  Uiso   1.00
O869   O     0.95420   0.29581   0.79513   0.00000  Uiso   1.00
O870   O     0.95420   0.29581   0.87154   0.00000  Uiso   1.00
O871   O     0.54581   0.20419   0.79513   0.00000  Uiso   1.00
O872   O     0.95420   0.20419   0.79513   0.00000  Uiso   1.00
O873   O     0.54581   0.29581   0.87154   0.00000  Uiso   1.00
O874   O     0.54581   0.29581   0.79513   0.00000  Uiso   1.00
O875   O     0.95420   0.20419   0.87154   0.00000  Uiso   1.00
O876   O     0.79581   0.45419   0.87154   0.00000  Uiso   1.00
Zn877  Zn    0.50000   0.25000   0.88437   0.00000  Uiso   1.00
Zn878  Zn    0.50000   0.25000   0.78229   0.00000  Uiso   1.00
Zn879  Zn    0.75000  -0.00000   0.88437   0.00000  Uiso   1.00
Zn880  Zn    0.75000  -0.00000   0.78229   0.00000  Uiso   1.00
C881   C     0.05996   0.69000   0.83317   0.00000  Uiso   1.00
C882   C     0.49217   0.71183   0.97556   0.00000  Uiso   1.00
C883   C     0.49214   0.71184   0.69012   0.00000  Uiso   1.00
C884   C     0.00849   0.78802   0.97659   0.00000  Uiso   1.00
C885   C     0.25784   0.53817   0.69110   0.00000  Uiso   1.00
C886   C     0.24200   0.96186   0.97554   0.00000  Uiso   1.00
C887   C     0.24151   0.96198   0.69008   0.00000  Uiso   1.00
C888   C     0.25787   0.53816   0.97655   0.00000  Uiso   1.00
C889   C     0.41778   0.61472   0.84798   0.00000  Uiso   1.00
C890   C     0.08311   0.88521   0.85057   0.00000  Uiso   1.00
C891   C     0.13433   0.83247   0.81599   0.00000  Uiso   1.00
C892   C     0.43986   0.80986   0.83348   0.00000  Uiso   1.00
C893   C     0.36454   0.66785   0.81899   0.00000  Uiso   1.00
C894   C     0.13052   0.66337   0.86047   0.00000  Uiso   1.00
C895   C     0.37951   0.84691   0.79508   0.00000  Uiso   1.00
C896   C     0.40190   0.87072   0.87194   0.00000  Uiso   1.00
C897   C     0.08752   0.61892   0.80574   0.00000  Uiso   1.00
C898   C     0.16689   0.86478   0.81610   0.00000  Uiso   1.00
C899   C     0.33222   0.63529   0.81869   0.00000  Uiso   1.00
C900   C     0.38546   0.58215   0.84768   0.00000  Uiso   1.00
C901   C     0.11567   0.91753   0.85068   0.00000  Uiso   1.00
C902   C     0.37051   0.90311   0.87157   0.00000  Uiso   1.00
C903   C     0.44000   0.69018   0.83322   0.00000  Uiso   1.00
C904   C     0.11948   0.58663   0.80619   0.00000  Uiso   1.00
C905   C     0.16248   0.63109   0.86092   0.00000  Uiso   1.00
C906   C     0.34812   0.87929   0.79472   0.00000  Uiso   1.00
C907   C     0.09296   0.84304   0.83357   0.00000  Uiso   1.00
C908   C     0.40697   0.65703   0.83316   0.00000  Uiso   1.00
C909   C     0.40656   0.84276   0.83364   0.00000  Uiso   1.00
C910   C     0.09323   0.65703   0.83294   0.00000  Uiso   1.00
C911   C     0.34303   0.59297   0.83351   0.00000  Uiso   1.00
C912   C     0.15704   0.90696   0.83310   0.00000  Uiso   1.00
C913   C     0.15677   0.59297   0.83373   0.00000  Uiso   1.00
C914   C     0.05978   0.81005   0.83347   0.00000  Uiso   1.00
C915   C     0.34346   0.90725   0.83302   0.00000  Uiso   1.00
C916   C     0.31014   0.94014   0.83318   0.00000  Uiso   1.00
C917   C     0.19004   0.56000   0.83349   0.00000  Uiso   1.00
C918   C     0.19023   0.93995   0.83320   0.00000  Uiso   1.00
C919   C     0.31000   0.55982   0.83345   0.00000  Uiso   1.00
C920   C     0.00800   0.78814   0.69113   0.00000  Uiso   1.00
Cl921  Cl    0.47163   0.60236   0.86648   0.00000  Uiso   1.00
Cl922  Cl    0.27836   0.64764   0.80019   0.00000  Uiso   1.00
Cl923  Cl    0.39877   0.52753   0.86270   0.00000  Uiso   1.00
Cl924  Cl    0.10438   0.97125   0.87207   0.00000  Uiso   1.00
Cl925  Cl    0.36741   0.93855   0.92027   0.00000  Uiso   1.00
Cl926  Cl    0.11147   0.53753   0.77352   0.00000  Uiso   1.00
Cl927  Cl    0.21033   0.63978   0.89427   0.00000  Uiso   1.00
Cl928  Cl    0.31483   0.88255   0.74535   0.00000  Uiso   1.00
Cl929  Cl    0.02963   0.89828   0.86949   0.00000  Uiso   1.00
Cl930  Cl    0.14562   0.77875   0.79459   0.00000  Uiso   1.00
Cl931  Cl    0.35123   0.72247   0.80397   0.00000  Uiso   1.00
Cl932  Cl    0.13853   0.71247   0.89315   0.00000  Uiso   1.00
Cl933  Cl    0.38261   0.81148   0.74639   0.00000  Uiso   1.00
Cl934  Cl    0.43518   0.86747   0.92130   0.00000  Uiso   1.00
Cl935  Cl    0.03967   0.61022   0.77240   0.00000  Uiso   1.00
Cl936  Cl    0.22037   0.85172   0.79718   0.00000  Uiso   1.00
F937   F     0.01555   0.82654   0.71414   0.00000  Uiso   1.00
F938   F     0.48481   0.67339   0.95257   0.00000  Uiso   1.00
F939   F     0.48418   0.67354   0.71213   0.00000  Uiso   1.00
F940   F     0.01815   0.82599   0.95468   0.00000  Uiso   1.00
F941   F     0.26519   0.57661   0.71409   0.00000  Uiso   1.00
F942   F     0.23445   0.92346   0.95252   0.00000  Uiso   1.00
F943   F     0.23185   0.92401   0.71199   0.00000  Uiso   1.00
F944   F     0.26583   0.57646   0.95454   0.00000  Uiso   1.00
N945   N     0.00000   0.75000   0.95240   0.00000  Uiso   1.00
N946   N     0.00000   0.75000   0.71427   0.00000  Uiso   1.00
N947   N     0.25000   0.50000   0.95240   0.00000  Uiso   1.00
N948   N     0.25000   0.50000   0.71427   0.00000  Uiso   1.00
O949   O     0.04581   0.70419   0.87154   0.00000  Uiso   1.00
O950   O     0.20420   0.54581   0.79513   0.00000  Uiso   1.00
O951   O     0.20420   0.54581   0.87154   0.00000  Uiso   1.00
O952   O     0.29581   0.95419   0.79513   0.00000  Uiso   1.00
O953   O     0.20420   0.95419   0.79513   0.00000  Uiso   1.00
O954   O     0.29581   0.54581   0.87154   0.00000  Uiso   1.00
O955   O     0.29581   0.54581   0.79513   0.00000  Uiso   1.00
O956   O     0.20420   0.95419   0.87154   0.00000  Uiso   1.00
O957   O     0.45420   0.79581   0.79513   0.00000  Uiso   1.00
O958   O     0.45420   0.79581   0.87154   0.00000  Uiso   1.00
O959   O     0.04581   0.70419   0.79513   0.00000  Uiso   1.00
O960   O     0.45420   0.70419   0.79513   0.00000  Uiso   1.00
O961   O     0.04581   0.79581   0.87154   0.00000  Uiso   1.00
O962   O     0.04581   0.79581   0.79513   0.00000  Uiso   1.00
O963   O     0.45420   0.70419   0.87154   0.00000  Uiso   1.00
O964   O     0.29581   0.95419   0.87154   0.00000  Uiso   1.00
Zn965  Zn    0.00000   0.75000   0.88437   0.00000  Uiso   1.00
Zn966  Zn    0.00000   0.75000   0.78229   0.00000  Uiso   1.00
Zn967  Zn    0.25000   0.50000   0.88437   0.00000  Uiso   1.00
Zn968  Zn    0.25000   0.50000   0.78229   0.00000  Uiso   1.00
C969   C     0.55996   0.69000   0.83317   0.00000  Uiso   1.00
C970   C     0.99217   0.71183   0.97556   0.00000  Uiso   1.00
C971   C     0.99214   0.71184   0.69012   0.00000  Uiso   1.00
C972   C     0.50849   0.78802   0.97659   0.00000  Uiso   1.00
C973   C     0.75784   0.53817   0.69110   0.00000  Uiso   1.00
C974   C     0.74200   0.96186   0.97554   0.00000  Uiso   1.00
C975   C     0.74151   0.96198   0.69008   0.00000  Uiso   1.00
C976   C     0.75787   0.53816   0.97655   0.00000  Uiso   1.00
C977   C     0.91778   0.61472   0.84798   0.00000  Uiso   1.00
C978   C     0.58311   0.88521   0.85057   0.00000  Uiso   1.00
C979   C     0.63433   0.83247   0.81599   0.00000  Uiso   1.00
C980   C     0.93986   0.80986   0.83348   0.00000  Uiso   1.00
C981   C     0.86454   0.66785   0.81899   0.00000  Uiso   1.00
C982   C     0.63052   0.66337   0.86047   0.00000  Uiso   1.00
C983   C     0.87951   0.84691   0.79508   0.00000  Uiso   1.00
C984   C     0.90190   0.87072   0.87194   0.00000  Uiso   1.00
C985   C     0.58752   0.61892   0.80574   0.00000  Uiso   1.00
C986   C     0.66689   0.86478   0.81610   0.00000  Uiso   1.00
C987   C     0.83222   0.63529   0.81869   0.00000  Uiso   1.00
C988   C     0.88546   0.58215   0.84768   0.00000  Uiso   1.00
C989   C     0.61567   0.91753   0.85068   0.00000  Uiso   1.00
C990   C     0.87051   0.90311   0.87157   0.00000  Uiso   1.00
C991   C     0.94000   0.69018   0.83322   0.00000  Uiso   1.00
C992   C     0.61948   0.58663   0.80619   0.00000  Uiso   1.00
C993   C     0.66248   0.63109   0.86092   0.00000  Uiso   1.00
C994   C     0.84812   0.87929   0.79472   0.00000  Uiso   1.00
C995   C     0.59296   0.84304   0.83357   0.00000  Uiso   1.00
C996   C     0.90697   0.65703   0.83316   0.00000  Uiso   1.00
C997   C     0.90656   0.84276   0.83364   0.00000  Uiso   1.00
C998   C     0.59323   0.65703   0.83294   0.00000  Uiso   1.00
C999   C     0.84303   0.59297   0.83351   0.00000  Uiso   1.00
C1000  C     0.65704   0.90696   0.83310   0.00000  Uiso   1.00
C1001  C     0.65677   0.59297   0.83373   0.00000  Uiso   1.00
C1002  C     0.55978   0.81005   0.83347   0.00000  Uiso   1.00
C1003  C     0.84346   0.90725   0.83302   0.00000  Uiso   1.00
C1004  C     0.81014   0.94014   0.83318   0.00000  Uiso   1.00
C1005  C     0.69004   0.56000   0.83349   0.00000  Uiso   1.00
C1006  C     0.69023   0.93995   0.83320   0.00000  Uiso   1.00
C1007  C     0.81000   0.55982   0.83345   0.00000  Uiso   1.00
C1008  C     0.50800   0.78814   0.69113   0.00000  Uiso   1.00
Cl1009 Cl    0.97163   0.60236   0.86648   0.00000  Uiso   1.00
Cl1010 Cl    0.77836   0.64764   0.80019   0.00000  Uiso   1.00
Cl1011 Cl    0.89877   0.52753   0.86270   0.00000  Uiso   1.00
Cl1012 Cl    0.60438   0.97125   0.87207   0.00000  Uiso   1.00
Cl1013 Cl    0.86741   0.93855   0.92027   0.00000  Uiso   1.00
Cl1014 Cl    0.61147   0.53753   0.77352   0.00000  Uiso   1.00
Cl1015 Cl    0.71033   0.63978   0.89427   0.00000  Uiso   1.00
Cl1016 Cl    0.81483   0.88255   0.74535   0.00000  Uiso   1.00
Cl1017 Cl    0.52963   0.89828   0.86949   0.00000  Uiso   1.00
Cl1018 Cl    0.64562   0.77875   0.79459   0.00000  Uiso   1.00
Cl1019 Cl    0.85123   0.72247   0.80397   0.00000  Uiso   1.00
Cl1020 Cl    0.63853   0.71247   0.89315   0.00000  Uiso   1.00
Cl1021 Cl    0.88261   0.81148   0.74639   0.00000  Uiso   1.00
Cl1022 Cl    0.93518   0.86747   0.92130   0.00000  Uiso   1.00
Cl1023 Cl    0.53967   0.61022   0.77240   0.00000  Uiso   1.00
Cl1024 Cl    0.72037   0.85172   0.79718   0.00000  Uiso   1.00
F1025  F     0.51555   0.82654   0.71414   0.00000  Uiso   1.00
F1026  F     0.98481   0.67339   0.95257   0.00000  Uiso   1.00
F1027  F     0.98418   0.67354   0.71213   0.00000  Uiso   1.00
F1028  F     0.51815   0.82599   0.95468   0.00000  Uiso   1.00
F1029  F     0.76519   0.57661   0.71409   0.00000  Uiso   1.00
F1030  F     0.73445   0.92346   0.95252   0.00000  Uiso   1.00
F1031  F     0.73185   0.92401   0.71199   0.00000  Uiso   1.00
F1032  F     0.76583   0.57646   0.95454   0.00000  Uiso   1.00
N1033  N     0.50000   0.75000   0.95240   0.00000  Uiso   1.00
N1034  N     0.50000   0.75000   0.71427   0.00000  Uiso   1.00
N1035  N     0.75000   0.50000   0.95240   0.00000  Uiso   1.00
N1036  N     0.75000   0.50000   0.71427   0.00000  Uiso   1.00
O1037  O     0.54581   0.70419   0.87154   0.00000  Uiso   1.00
O1038  O     0.70420   0.54581   0.79513   0.00000  Uiso   1.00
O1039  O     0.70420   0.54581   0.87154   0.00000  Uiso   1.00
O1040  O     0.79581   0.95419   0.79513   0.00000  Uiso   1.00
O1041  O     0.70420   0.95419   0.79513   0.00000  Uiso   1.00
O1042  O     0.79581   0.54581   0.87154   0.00000  Uiso   1.00
O1043  O     0.79581   0.54581   0.79513   0.00000  Uiso   1.00
O1044  O     0.70420   0.95419   0.87154   0.00000  Uiso   1.00
O1045  O     0.95420   0.79581   0.79513   0.00000  Uiso   1.00
O1046  O     0.95420   0.79581   0.87154   0.00000  Uiso   1.00
O1047  O     0.54581   0.70419   0.79513   0.00000  Uiso   1.00
O1048  O     0.95420   0.70419   0.79513   0.00000  Uiso   1.00
O1049  O     0.54581   0.79581   0.87154   0.00000  Uiso   1.00
O1050  O     0.54581   0.79581   0.79513   0.00000  Uiso   1.00
O1051  O     0.95420   0.70419   0.87154   0.00000  Uiso   1.00
O1052  O     0.79581   0.95419   0.87154   0.00000  Uiso   1.00
Zn1053 Zn    0.50000   0.75000   0.88437   0.00000  Uiso   1.00
Zn1054 Zn    0.50000   0.75000   0.78229   0.00000  Uiso   1.00
Zn1055 Zn    0.75000   0.50000   0.88437   0.00000  Uiso   1.00
Zn1056 Zn    0.75000   0.50000   0.78229   0.00000  Uiso   1.00
loop_
_geom_bond_atom_site_label_1
_geom_bond_atom_site_label_2
_geom_bond_distance
_geom_bond_site_symmetry_2
_ccdc_geom_bond_type
C1     O69     1.284   .     A
C1     O79     1.285   .     A
C1     C30     1.428   .     S
C2     N153    1.367   .     A
C2     F58     1.354   .     S
C2     C355    1.416   .     S
C3     N154    1.367   .     A
C3     F59     1.354   .     S
C3     C706    1.416   1_554 S
C4     F60     1.353   .     S
C4     C392    1.416   .     S
C4     N65     1.367   .     S
C5     N68     1.367   .     A
C5     F61     1.354   .     S
C5     C712    1.416   1_554 S
C6     F62     1.355   .     S
C6     C359    1.416   .     S
C6     N243    1.367   .     S
C7     F63     1.353   .     S
C7     C710    1.416   1_554 S
C7     N244    1.367   .     S
C8     F64     1.354   .     S
C8     N67     1.367   .     A
C8     C357    1.416   .     S
C9     C20     1.381   .     A
C9     Cl41    1.771   .     S
C9     C28     1.400   .     A
C10    C27     1.400   .     A
C10    C21     1.381   .     A
C10    Cl49    1.767   .     S
C11    C18     1.381   .     A
C11    C27     1.400   .     A
C11    Cl50    1.772   .     S
C12    C29     1.428   .     S
C12    O78     1.286   .     A
C12    O77     1.284   .     A
C13    Cl51    1.766   .     S
C13    C28     1.400   .     A
C13    C19     1.381   .     A
C14    Cl52    1.774   .     S
C14    C30     1.405   .     A
C14    C25     1.386   .     A
C15    Cl53    1.787   .     S
C15    C29     1.413   .     A
C15    C26     1.376   .     A
C16    C29     1.413   .     A
C16    C22     1.376   .     A
C16    Cl54    1.780   .     S
C17    C30     1.405   .     A
C17    C24     1.386   .     A
C17    Cl55    1.772   .     S
C18    Cl56    1.767   .     S
C18    C32     1.400   .     A
C19    Cl42    1.771   .     S
C19    C31     1.400   .     A
C20    Cl43    1.766   .     S
C20    C31     1.400   .     A
C21    C32     1.400   .     A
C21    Cl44    1.772   .     S
C22    C35     1.413   .     A
C22    Cl45    1.787   .     S
C23    O83     1.278   .     A
C23    C28     1.409   .     S
C23    O80     1.281   .     A
C24    C33     1.405   .     A
C24    Cl46    1.774   .     S
C25    Cl47    1.772   .     S
C25    C33     1.405   .     A
C26    Cl48    1.780   .     S
C26    C35     1.413   .     A
C27    C34     1.409   .     S
C31    C39     1.409   .     S
C32    C38     1.409   .     S
C33    C37     1.428   .     S
C34    O81     1.281   .     A
C34    O82     1.278   .     A
C35    C36     1.428   .     S
C36    O84     1.284   .     A
C36    O72     1.286   .     A
C37    O70     1.284   .     A
C37    O71     1.285   .     A
C38    O76     1.278   .     A
C38    O73     1.281   .     A
C39    O74     1.281   .     A
C39    O75     1.278   .     A
C40    F57     1.355   .     S
C40    C708    1.416   1_554 S
C40    N66     1.367   .     S
N65    C90     1.367   1_455 A
N65    Zn85    2.012   .     S
N66    C91     1.367   1_455 A
N66    Zn86    2.012   .     S
N67    C182    1.367   1_545 S
N67    Zn87    2.012   .     S
N68    Zn88    2.012   .     S
N68    C183    1.367   1_545 S
O69    Zn85    2.009   .     S
O70    Zn88    2.009   .     S
O71    Zn87    2.015   .     S
O72    Zn264   2.015   .     S
O73    Zn264   1.990   .     S
O74    Zn87    1.990   .     S
O75    Zn88    1.984   .     S
O76    Zn263   1.984   .     S
O77    Zn174   2.009   .     S
O78    Zn173   2.015   .     S
O79    Zn86    2.015   .     S
O80    Zn174   1.990   .     S
O81    Zn85    1.990   .     S
O82    Zn86    1.984   .     S
O83    Zn173   1.984   .     S
O84    Zn263   2.009   .     S
Zn85   O171    1.984   1_455 S
Zn85   O166    2.015   1_455 S
Zn86   O168    1.990   1_455 S
Zn86   O165    2.009   1_455 S
Zn87   O260    2.009   1_545 S
Zn87   O252    1.984   1_545 S
Zn88   O249    1.990   1_545 S
Zn88   O248    2.015   1_545 S
C89    O157    1.284   .     A
C89    O167    1.285   .     A
C89    C118    1.428   .     S
C90    N65     1.367   1_655 A
C90    F146    1.354   .     S
C90    C443    1.416   .     S
C91    N66     1.367   1_655 A
C91    F147    1.354   .     S
C91    C794    1.416   1_554 S
C92    F148    1.353   .     S
C92    C480    1.416   .     S
C92    N153    1.367   .     S
C93    N156    1.367   .     A
C93    F149    1.354   .     S
C93    C800    1.416   1_554 S
C94    F150    1.355   .     S
C94    C447    1.416   .     S
C94    N331    1.367   .     S
C95    F151    1.353   .     S
C95    C798    1.416   1_554 S
C95    N332    1.367   .     S
C96    F152    1.354   .     S
C96    N155    1.367   .     A
C96    C445    1.416   .     S
C97    C108    1.381   .     A
C97    Cl129   1.771   .     S
C97    C116    1.400   .     A
C98    C115    1.400   .     A
C98    C109    1.381   .     A
C98    Cl137   1.767   .     S
C99    C106    1.381   .     A
C99    C115    1.400   .     A
C99    Cl138   1.772   .     S
C100   C117    1.428   .     S
C100   O166    1.286   .     A
C100   O165    1.284   .     A
C101   Cl139   1.766   .     S
C101   C116    1.400   .     A
C101   C107    1.381   .     A
C102   Cl140   1.774   .     S
C102   C118    1.405   .     A
C102   C113    1.386   .     A
C103   Cl141   1.787   .     S
C103   C117    1.413   .     A
C103   C114    1.376   .     A
C104   C117    1.413   .     A
C104   C110    1.376   .     A
C104   Cl142   1.780   .     S
C105   C118    1.405   .     A
C105   C112    1.386   .     A
C105   Cl143   1.772   .     S
C106   Cl144   1.767   .     S
C106   C120    1.400   .     A
C107   Cl130   1.771   .     S
C107   C119    1.400   .     A
C108   Cl131   1.766   .     S
C108   C119    1.400   .     A
C109   C120    1.400   .     A
C109   Cl132   1.772   .     S
C110   C123    1.413   .     A
C110   Cl133   1.787   .     S
C111   O171    1.278   .     A
C111   C116    1.409   .     S
C111   O168    1.281   .     A
C112   C121    1.405   .     A
C112   Cl134   1.774   .     S
C113   Cl135   1.772   .     S
C113   C121    1.405   .     A
C114   Cl136   1.780   .     S
C114   C123    1.413   .     A
C115   C122    1.409   .     S
C119   C127    1.409   .     S
C120   C126    1.409   .     S
C121   C125    1.428   .     S
C122   O169    1.281   .     A
C122   O170    1.278   .     A
C123   C124    1.428   .     S
C124   O172    1.284   .     A
C124   O160    1.286   .     A
C125   O158    1.284   .     A
C125   O159    1.285   .     A
C126   O164    1.278   .     A
C126   O161    1.281   .     A
C127   O162    1.281   .     A
C127   O163    1.278   .     A
C128   F145    1.355   .     S
C128   C796    1.416   1_554 S
C128   N154    1.367   .     S
N153   Zn173   2.012   .     S
N154   Zn174   2.012   .     S
N155   C270    1.367   1_545 S
N155   Zn175   2.012   .     S
N156   Zn176   2.012   .     S
N156   C271    1.367   1_545 S
O157   Zn173   2.009   .     S
O158   Zn176   2.009   .     S
O159   Zn175   2.015   .     S
O160   Zn352   2.015   .     S
O161   Zn352   1.990   .     S
O162   Zn175   1.990   .     S
O163   Zn176   1.984   .     S
O164   Zn351   1.984   .     S
O165   Zn86    2.009   1_655 S
O166   Zn85    2.015   1_655 S
O167   Zn174   2.015   .     S
O168   Zn86    1.990   1_655 S
O169   Zn173   1.990   .     S
O170   Zn174   1.984   .     S
O171   Zn85    1.984   1_655 S
O172   Zn351   2.009   .     S
Zn175  O348    2.009   1_545 S
Zn175  O340    1.984   1_545 S
Zn176  O337    1.990   1_545 S
Zn176  O336    2.015   1_545 S
C177   O245    1.284   .     A
C177   O255    1.285   .     A
C177   C206    1.428   .     S
C178   N329    1.367   .     A
C178   F234    1.354   .     S
C178   C531    1.416   .     S
C179   N330    1.367   .     A
C179   F235    1.354   .     S
C179   C882    1.416   1_554 S
C180   F236    1.353   .     S
C180   C568    1.416   .     S
C180   N241    1.367   .     S
C181   N244    1.367   .     A
C181   F237    1.354   .     S
C181   C888    1.416   1_554 S
C182   F238    1.355   .     S
C182   C535    1.416   .     S
C182   N67     1.367   1_565 S
C183   F239    1.353   .     S
C183   C886    1.416   1_554 S
C183   N68     1.367   1_565 S
C184   F240    1.354   .     S
C184   N243    1.367   .     A
C184   C533    1.416   .     S
C185   C196    1.381   .     A
C185   Cl217   1.771   .     S
C185   C204    1.400   .     A
C186   C203    1.400   .     A
C186   C197    1.381   .     A
C186   Cl225   1.767   .     S
C187   C194    1.381   .     A
C187   C203    1.400   .     A
C187   Cl226   1.772   .     S
C188   C205    1.428   .     S
C188   O254    1.286   .     A
C188   O253    1.284   .     A
C189   Cl227   1.766   .     S
C189   C204    1.400   .     A
C189   C195    1.381   .     A
C190   Cl228   1.774   .     S
C190   C206    1.405   .     A
C190   C201    1.386   .     A
C191   Cl229   1.787   .     S
C191   C205    1.413   .     A
C191   C202    1.376   .     A
C192   C205    1.413   .     A
C192   C198    1.376   .     A
C192   Cl230   1.780   .     S
C193   C206    1.405   .     A
C193   C200    1.386   .     A
C193   Cl231   1.772   .     S
C194   Cl232   1.767   .     S
C194   C208    1.400   .     A
C195   Cl218   1.771   .     S
C195   C207    1.400   .     A
C196   Cl219   1.766   .     S
C196   C207    1.400   .     A
C197   C208    1.400   .     A
C197   Cl220   1.772   .     S
C198   C211    1.413   .     A
C198   Cl221   1.787   .     S
C199   O259    1.278   .     A
C199   C204    1.409   .     S
C199   O256    1.281   .     A
C200   C209    1.405   .     A
C200   Cl222   1.774   .     S
C201   Cl223   1.772   .     S
C201   C209    1.405   .     A
C202   Cl224   1.780   .     S
C202   C211    1.413   .     A
C203   C210    1.409   .     S
C207   C215    1.409   .     S
C208   C214    1.409   .     S
C209   C213    1.428   .     S
C210   O257    1.281   .     A
C210   O258    1.278   .     A
C211   C212    1.428   .     S
C212   O260    1.284   .     A
C212   O248    1.286   .     A
C213   O246    1.284   .     A
C213   O247    1.285   .     A
C214   O252    1.278   .     A
C214   O249    1.281   .     A
C215   O250    1.281   .     A
C215   O251    1.278   .     A
C216   F233    1.355   .     S
C216   C884    1.416   1_554 S
C216   N242    1.367   .     S
N241   C266    1.367   1_455 A
N241   Zn261   2.012   .     S
N242   C267    1.367   1_455 A
N242   Zn262   2.012   .     S
N243   Zn263   2.012   .     S
N244   Zn264   2.012   .     S
O245   Zn261   2.009   .     S
O246   Zn264   2.009   .     S
O247   Zn263   2.015   .     S
O248   Zn88    2.015   1_565 S
O249   Zn88    1.990   1_565 S
O250   Zn263   1.990   .     S
O251   Zn264   1.984   .     S
O252   Zn87    1.984   1_565 S
O253   Zn350   2.009   .     S
O254   Zn349   2.015   .     S
O255   Zn262   2.015   .     S
O256   Zn350   1.990   .     S
O257   Zn261   1.990   .     S
O258   Zn262   1.984   .     S
O259   Zn349   1.984   .     S
O260   Zn87    2.009   1_565 S
Zn261  O347    1.984   1_455 S
Zn261  O342    2.015   1_455 S
Zn262  O344    1.990   1_455 S
Zn262  O341    2.009   1_455 S
C265   O333    1.284   .     A
C265   O343    1.285   .     A
C265   C294    1.428   .     S
C266   N241    1.367   1_655 A
C266   F322    1.354   .     S
C266   C619    1.416   .     S
C267   N242    1.367   1_655 A
C267   F323    1.354   .     S
C267   C970    1.416   1_554 S
C268   F324    1.353   .     S
C268   C656    1.416   .     S
C268   N329    1.367   .     S
C269   N332    1.367   .     A
C269   F325    1.354   .     S
C269   C976    1.416   1_554 S
C270   F326    1.355   .     S
C270   C623    1.416   .     S
C270   N155    1.367   1_565 S
C271   F327    1.353   .     S
C271   C974    1.416   1_554 S
C271   N156    1.367   1_565 S
C272   F328    1.354   .     S
C272   N331    1.367   .     A
C272   C621    1.416   .     S
C273   C284    1.381   .     A
C273   Cl305   1.771   .     S
C273   C292    1.400   .     A
C274   C291    1.400   .     A
C274   C285    1.381   .     A
C274   Cl313   1.767   .     S
C275   C282    1.381   .     A
C275   C291    1.400   .     A
C275   Cl314   1.772   .     S
C276   C293    1.428   .     S
C276   O342    1.286   .     A
C276   O341    1.284   .     A
C277   Cl315   1.766   .     S
C277   C292    1.400   .     A
C277   C283    1.381   .     A
C278   Cl316   1.774   .     S
C278   C294    1.405   .     A
C278   C289    1.386   .     A
C279   Cl317   1.787   .     S
C279   C293    1.413   .     A
C279   C290    1.376   .     A
C280   C293    1.413   .     A
C280   C286    1.376   .     A
C280   Cl318   1.780   .     S
C281   C294    1.405   .     A
C281   C288    1.386   .     A
C281   Cl319   1.772   .     S
C282   Cl320   1.767   .     S
C282   C296    1.400   .     A
C283   Cl306   1.771   .     S
C283   C295    1.400   .     A
C284   Cl307   1.766   .     S
C284   C295    1.400   .     A
C285   C296    1.400   .     A
C285   Cl308   1.772   .     S
C286   C299    1.413   .     A
C286   Cl309   1.787   .     S
C287   O347    1.278   .     A
C287   C292    1.409   .     S
C287   O344    1.281   .     A
C288   C297    1.405   .     A
C288   Cl310   1.774   .     S
C289   Cl311   1.772   .     S
C289   C297    1.405   .     A
C290   Cl312   1.780   .     S
C290   C299    1.413   .     A
C291   C298    1.409   .     S
C295   C303    1.409   .     S
C296   C302    1.409   .     S
C297   C301    1.428   .     S
C298   O345    1.281   .     A
C298   O346    1.278   .     A
C299   C300    1.428   .     S
C300   O348    1.284   .     A
C300   O336    1.286   .     A
C301   O334    1.284   .     A
C301   O335    1.285   .     A
C302   O340    1.278   .     A
C302   O337    1.281   .     A
C303   O338    1.281   .     A
C303   O339    1.278   .     A
C304   F321    1.355   .     S
C304   C972    1.416   1_554 S
C304   N330    1.367   .     S
N329   Zn349   2.012   .     S
N330   Zn350   2.012   .     S
N331   Zn351   2.012   .     S
N332   Zn352   2.012   .     S
O333   Zn349   2.009   .     S
O334   Zn352   2.009   .     S
O335   Zn351   2.015   .     S
O336   Zn176   2.015   1_565 S
O337   Zn176   1.990   1_565 S
O338   Zn351   1.990   .     S
O339   Zn352   1.984   .     S
O340   Zn175   1.984   1_565 S
O341   Zn262   2.009   1_655 S
O342   Zn261   2.015   1_655 S
O343   Zn350   2.015   .     S
O344   Zn262   1.990   1_655 S
O345   Zn349   1.990   .     S
O346   Zn350   1.984   .     S
O347   Zn261   1.984   1_655 S
O348   Zn175   2.009   1_565 S
C353   O421    1.284   .     A
C353   O431    1.285   .     A
C353   C382    1.428   .     S
C354   N505    1.367   .     A
C354   F410    1.354   .     S
C354   C707    1.416   .     S
C355   N506    1.367   .     A
C355   F411    1.354   .     S
C356   F412    1.353   .     S
C356   C744    1.416   .     S
C356   N417    1.367   .     S
C357   N420    1.367   .     A
C357   F413    1.354   .     S
C358   F414    1.355   .     S
C358   C711    1.416   .     S
C358   N595    1.367   .     S
C359   F415    1.353   .     S
C359   N596    1.367   .     S
C360   F416    1.354   .     S
C360   N419    1.367   .     A
C360   C709    1.416   .     S
C361   C372    1.381   .     A
C361   Cl393   1.771   .     S
C361   C380    1.400   .     A
C362   C379    1.400   .     A
C362   C373    1.381   .     A
C362   Cl401   1.767   .     S
C363   C370    1.381   .     A
C363   C379    1.400   .     A
C363   Cl402   1.772   .     S
C364   C381    1.428   .     S
C364   O430    1.286   .     A
C364   O429    1.284   .     A
C365   Cl403   1.766   .     S
C365   C380    1.400   .     A
C365   C371    1.381   .     A
C366   Cl404   1.774   .     S
C366   C382    1.405   .     A
C366   C377    1.386   .     A
C367   Cl405   1.787   .     S
C367   C381    1.413   .     A
C367   C378    1.376   .     A
C368   C381    1.413   .     A
C368   C374    1.376   .     A
C368   Cl406   1.780   .     S
C369   C382    1.405   .     A
C369   C376    1.386   .     A
C369   Cl407   1.772   .     S
C370   Cl408   1.767   .     S
C370   C384    1.400   .     A
C371   Cl394   1.771   .     S
C371   C383    1.400   .     A
C372   Cl395   1.766   .     S
C372   C383    1.400   .     A
C373   C384    1.400   .     A
C373   Cl396   1.772   .     S
C374   C387    1.413   .     A
C374   Cl397   1.787   .     S
C375   O435    1.278   .     A
C375   C380    1.409   .     S
C375   O432    1.281   .     A
C376   C385    1.405   .     A
C376   Cl398   1.774   .     S
C377   Cl399   1.772   .     S
C377   C385    1.405   .     A
C378   Cl400   1.780   .     S
C378   C387    1.413   .     A
C379   C386    1.409   .     S
C383   C391    1.409   .     S
C384   C390    1.409   .     S
C385   C389    1.428   .     S
C386   O433    1.281   .     A
C386   O434    1.278   .     A
C387   C388    1.428   .     S
C388   O436    1.284   .     A
C388   O424    1.286   .     A
C389   O422    1.284   .     A
C389   O423    1.285   .     A
C390   O428    1.278   .     A
C390   O425    1.281   .     A
C391   O426    1.281   .     A
C391   O427    1.278   .     A
C392   F409    1.355   .     S
C392   N418    1.367   .     S
N417   C442    1.367   1_455 A
N417   Zn437   2.012   .     S
N418   C443    1.367   1_455 A
N418   Zn438   2.012   .     S
N419   C534    1.367   1_545 S
N419   Zn439   2.012   .     S
N420   Zn440   2.012   .     S
N420   C535    1.367   1_545 S
O421   Zn437   2.009   .     S
O422   Zn440   2.009   .     S
O423   Zn439   2.015   .     S
O424   Zn616   2.015   .     S
O425   Zn616   1.990   .     S
O426   Zn439   1.990   .     S
O427   Zn440   1.984   .     S
O428   Zn615   1.984   .     S
O429   Zn526   2.009   .     S
O430   Zn525   2.015   .     S
O431   Zn438   2.015   .     S
O432   Zn526   1.990   .     S
O433   Zn437   1.990   .     S
O434   Zn438   1.984   .     S
O435   Zn525   1.984   .     S
O436   Zn615   2.009   .     S
Zn437  O523    1.984   1_455 S
Zn437  O518    2.015   1_455 S
Zn438  O520    1.990   1_455 S
Zn438  O517    2.009   1_455 S
Zn439  O612    2.009   1_545 S
Zn439  O604    1.984   1_545 S
Zn440  O601    1.990   1_545 S
Zn440  O600    2.015   1_545 S
C441   O509    1.284   .     A
C441   O519    1.285   .     A
C441   C470    1.428   .     S
C442   N417    1.367   1_655 A
C442   F498    1.354   .     S
C442   C795    1.416   .     S
C443   N418    1.367   1_655 A
C443   F499    1.354   .     S
C444   F500    1.353   .     S
C444   C832    1.416   .     S
C444   N505    1.367   .     S
C445   N508    1.367   .     A
C445   F501    1.354   .     S
C446   F502    1.355   .     S
C446   C799    1.416   .     S
C446   N683    1.367   .     S
C447   F503    1.353   .     S
C447   N684    1.367   .     S
C448   F504    1.354   .     S
C448   N507    1.367   .     A
C448   C797    1.416   .     S
C449   C460    1.381   .     A
C449   Cl481   1.771   .     S
C449   C468    1.400   .     A
C450   C467    1.400   .     A
C450   C461    1.381   .     A
C450   Cl489   1.767   .     S
C451   C458    1.381   .     A
C451   C467    1.400   .     A
C451   Cl490   1.772   .     S
C452   C469    1.428   .     S
C452   O518    1.286   .     A
C452   O517    1.284   .     A
C453   Cl491   1.766   .     S
C453   C468    1.400   .     A
C453   C459    1.381   .     A
C454   Cl492   1.774   .     S
C454   C470    1.405   .     A
C454   C465    1.386   .     A
C455   Cl493   1.787   .     S
C455   C469    1.413   .     A
C455   C466    1.376   .     A
C456   C469    1.413   .     A
C456   C462    1.376   .     A
C456   Cl494   1.780   .     S
C457   C470    1.405   .     A
C457   C464    1.386   .     A
C457   Cl495   1.772   .     S
C458   Cl496   1.767   .     S
C458   C472    1.400   .     A
C459   Cl482   1.771   .     S
C459   C471    1.400   .     A
C460   Cl483   1.766   .     S
C460   C471    1.400   .     A
C461   C472    1.400   .     A
C461   Cl484   1.772   .     S
C462   C475    1.413   .     A
C462   Cl485   1.787   .     S
C463   O523    1.278   .     A
C463   C468    1.409   .     S
C463   O520    1.281   .     A
C464   C473    1.405   .     A
C464   Cl486   1.774   .     S
C465   Cl487   1.772   .     S
C465   C473    1.405   .     A
C466   Cl488   1.780   .     S
C466   C475    1.413   .     A
C467   C474    1.409   .     S
C471   C479    1.409   .     S
C472   C478    1.409   .     S
C473   C477    1.428   .     S
C474   O521    1.281   .     A
C474   O522    1.278   .     A
C475   C476    1.428   .     S
C476   O524    1.284   .     A
C476   O512    1.286   .     A
C477   O510    1.284   .     A
C477   O511    1.285   .     A
C478   O516    1.278   .     A
C478   O513    1.281   .     A
C479   O514    1.281   .     A
C479   O515    1.278   .     A
C480   F497    1.355   .     S
C480   N506    1.367   .     S
N505   Zn525   2.012   .     S
N506   Zn526   2.012   .     S
N507   C622    1.367   1_545 S
N507   Zn527   2.012   .     S
N508   Zn528   2.012   .     S
N508   C623    1.367   1_545 S
O509   Zn525   2.009   .     S
O510   Zn528   2.009   .     S
O511   Zn527   2.015   .     S
O512   Zn704   2.015   .     S
O513   Zn704   1.990   .     S
O514   Zn527   1.990   .     S
O515   Zn528   1.984   .     S
O516   Zn703   1.984   .     S
O517   Zn438   2.009   1_655 S
O518   Zn437   2.015   1_655 S
O519   Zn526   2.015   .     S
O520   Zn438   1.990   1_655 S
O521   Zn525   1.990   .     S
O522   Zn526   1.984   .     S
O523   Zn437   1.984   1_655 S
O524   Zn703   2.009   .     S
Zn527  O700    2.009   1_545 S
Zn527  O692    1.984   1_545 S
Zn528  O689    1.990   1_545 S
Zn528  O688    2.015   1_545 S
C529   O597    1.284   .     A
C529   O607    1.285   .     A
C529   C558    1.428   .     S
C530   N681    1.367   .     A
C530   F586    1.354   .     S
C530   C883    1.416   .     S
C531   N682    1.367   .     A
C531   F587    1.354   .     S
C532   F588    1.353   .     S
C532   C920    1.416   .     S
C532   N593    1.367   .     S
C533   N596    1.367   .     A
C533   F589    1.354   .     S
C534   F590    1.355   .     S
C534   C887    1.416   .     S
C534   N419    1.367   1_565 S
C535   F591    1.353   .     S
C535   N420    1.367   1_565 S
C536   F592    1.354   .     S
C536   N595    1.367   .     A
C536   C885    1.416   .     S
C537   C548    1.381   .     A
C537   Cl569   1.771   .     S
C537   C556    1.400   .     A
C538   C555    1.400   .     A
C538   C549    1.381   .     A
C538   Cl577   1.767   .     S
C539   C546    1.381   .     A
C539   C555    1.400   .     A
C539   Cl578   1.772   .     S
C540   C557    1.428   .     S
C540   O606    1.286   .     A
C540   O605    1.284   .     A
C541   Cl579   1.766   .     S
C541   C556    1.400   .     A
C541   C547    1.381   .     A
C542   Cl580   1.774   .     S
C542   C558    1.405   .     A
C542   C553    1.386   .     A
C543   Cl581   1.787   .     S
C543   C557    1.413   .     A
C543   C554    1.376   .     A
C544   C557    1.413   .     A
C544   C550    1.376   .     A
C544   Cl582   1.780   .     S
C545   C558    1.405   .     A
C545   C552    1.386   .     A
C545   Cl583   1.772   .     S
C546   Cl584   1.767   .     S
C546   C560    1.400   .     A
C547   Cl570   1.771   .     S
C547   C559    1.400   .     A
C548   Cl571   1.766   .     S
C548   C559    1.400   .     A
C549   C560    1.400   .     A
C549   Cl572   1.772   .     S
C550   C563    1.413   .     A
C550   Cl573   1.787   .     S
C551   O611    1.278   .     A
C551   C556    1.409   .     S
C551   O608    1.281   .     A
C552   C561    1.405   .     A
C552   Cl574   1.774   .     S
C553   Cl575   1.772   .     S
C553   C561    1.405   .     A
C554   Cl576   1.780   .     S
C554   C563    1.413   .     A
C555   C562    1.409   .     S
C559   C567    1.409   .     S
C560   C566    1.409   .     S
C561   C565    1.428   .     S
C562   O609    1.281   .     A
C562   O610    1.278   .     A
C563   C564    1.428   .     S
C564   O612    1.284   .     A
C564   O600    1.286   .     A
C565   O598    1.284   .     A
C565   O599    1.285   .     A
C566   O604    1.278   .     A
C566   O601    1.281   .     A
C567   O602    1.281   .     A
C567   O603    1.278   .     A
C568   F585    1.355   .     S
C568   N594    1.367   .     S
N593   C618    1.367   1_455 A
N593   Zn613   2.012   .     S
N594   C619    1.367   1_455 A
N594   Zn614   2.012   .     S
N595   Zn615   2.012   .     S
N596   Zn616   2.012   .     S
O597   Zn613   2.009   .     S
O598   Zn616   2.009   .     S
O599   Zn615   2.015   .     S
O600   Zn440   2.015   1_565 S
O601   Zn440   1.990   1_565 S
O602   Zn615   1.990   .     S
O603   Zn616   1.984   .     S
O604   Zn439   1.984   1_565 S
O605   Zn702   2.009   .     S
O606   Zn701   2.015   .     S
O607   Zn614   2.015   .     S
O608   Zn702   1.990   .     S
O609   Zn613   1.990   .     S
O610   Zn614   1.984   .     S
O611   Zn701   1.984   .     S
O612   Zn439   2.009   1_565 S
Zn613  O699    1.984   1_455 S
Zn613  O694    2.015   1_455 S
Zn614  O696    1.990   1_455 S
Zn614  O693    2.009   1_455 S
C617   O685    1.284   .     A
C617   O695    1.285   .     A
C617   C646    1.428   .     S
C618   N593    1.367   1_655 A
C618   F674    1.354   .     S
C618   C971    1.416   .     S
C619   N594    1.367   1_655 A
C619   F675    1.354   .     S
C620   F676    1.353   .     S
C620   C1008   1.416   .     S
C620   N681    1.367   .     S
C621   N684    1.367   .     A
C621   F677    1.354   .     S
C622   F678    1.355   .     S
C622   C975    1.416   .     S
C622   N507    1.367   1_565 S
C623   F679    1.353   .     S
C623   N508    1.367   1_565 S
C624   F680    1.354   .     S
C624   N683    1.367   .     A
C624   C973    1.416   .     S
C625   C636    1.381   .     A
C625   Cl657   1.771   .     S
C625   C644    1.400   .     A
C626   C643    1.400   .     A
C626   C637    1.381   .     A
C626   Cl665   1.767   .     S
C627   C634    1.381   .     A
C627   C643    1.400   .     A
C627   Cl666   1.772   .     S
C628   C645    1.428   .     S
C628   O694    1.286   .     A
C628   O693    1.284   .     A
C629   Cl667   1.766   .     S
C629   C644    1.400   .     A
C629   C635    1.381   .     A
C630   Cl668   1.774   .     S
C630   C646    1.405   .     A
C630   C641    1.386   .     A
C631   Cl669   1.787   .     S
C631   C645    1.413   .     A
C631   C642    1.376   .     A
C632   C645    1.413   .     A
C632   C638    1.376   .     A
C632   Cl670   1.780   .     S
C633   C646    1.405   .     A
C633   C640    1.386   .     A
C633   Cl671   1.772   .     S
C634   Cl672   1.767   .     S
C634   C648    1.400   .     A
C635   Cl658   1.771   .     S
C635   C647    1.400   .     A
C636   Cl659   1.766   .     S
C636   C647    1.400   .     A
C637   C648    1.400   .     A
C637   Cl660   1.772   .     S
C638   C651    1.413   .     A
C638   Cl661   1.787   .     S
C639   O699    1.278   .     A
C639   C644    1.409   .     S
C639   O696    1.281   .     A
C640   C649    1.405   .     A
C640   Cl662   1.774   .     S
C641   Cl663   1.772   .     S
C641   C649    1.405   .     A
C642   Cl664   1.780   .     S
C642   C651    1.413   .     A
C643   C650    1.409   .     S
C647   C655    1.409   .     S
C648   C654    1.409   .     S
C649   C653    1.428   .     S
C650   O697    1.281   .     A
C650   O698    1.278   .     A
C651   C652    1.428   .     S
C652   O700    1.284   .     A
C652   O688    1.286   .     A
C653   O686    1.284   .     A
C653   O687    1.285   .     A
C654   O692    1.278   .     A
C654   O689    1.281   .     A
C655   O690    1.281   .     A
C655   O691    1.278   .     A
C656   F673    1.355   .     S
C656   N682    1.367   .     S
N681   Zn701   2.012   .     S
N682   Zn702   2.012   .     S
N683   Zn703   2.012   .     S
N684   Zn704   2.012   .     S
O685   Zn701   2.009   .     S
O686   Zn704   2.009   .     S
O687   Zn703   2.015   .     S
O688   Zn528   2.015   1_565 S
O689   Zn528   1.990   1_565 S
O690   Zn703   1.990   .     S
O691   Zn704   1.984   .     S
O692   Zn527   1.984   1_565 S
O693   Zn614   2.009   1_655 S
O694   Zn613   2.015   1_655 S
O695   Zn702   2.015   .     S
O696   Zn614   1.990   1_655 S
O697   Zn701   1.990   .     S
O698   Zn702   1.984   .     S
O699   Zn613   1.984   1_655 S
O700   Zn527   2.009   1_565 S
C705   O773    1.284   .     A
C705   O783    1.285   .     A
C705   C734    1.428   .     S
C706   N857    1.367   .     A
C706   F762    1.354   .     S
C706   C3      1.416   1_556 S
C707   N858    1.367   .     A
C707   F763    1.354   .     S
C708   F764    1.353   .     S
C708   C40     1.416   1_556 S
C708   N769    1.367   .     S
C709   N772    1.367   .     A
C709   F765    1.354   .     S
C710   F766    1.355   .     S
C710   C7      1.416   1_556 S
C710   N947    1.367   .     S
C711   F767    1.353   .     S
C711   N948    1.367   .     S
C712   F768    1.354   .     S
C712   N771    1.367   .     A
C712   C5      1.416   1_556 S
C713   C724    1.381   .     A
C713   Cl745   1.771   .     S
C713   C732    1.400   .     A
C714   C731    1.400   .     A
C714   C725    1.381   .     A
C714   Cl753   1.767   .     S
C715   C722    1.381   .     A
C715   C731    1.400   .     A
C715   Cl754   1.772   .     S
C716   C733    1.428   .     S
C716   O782    1.286   .     A
C716   O781    1.284   .     A
C717   Cl755   1.766   .     S
C717   C732    1.400   .     A
C717   C723    1.381   .     A
C718   Cl756   1.774   .     S
C718   C734    1.405   .     A
C718   C729    1.386   .     A
C719   Cl757   1.787   .     S
C719   C733    1.413   .     A
C719   C730    1.376   .     A
C720   C733    1.413   .     A
C720   C726    1.376   .     A
C720   Cl758   1.780   .     S
C721   C734    1.405   .     A
C721   C728    1.386   .     A
C721   Cl759   1.772   .     S
C722   Cl760   1.767   .     S
C722   C736    1.400   .     A
C723   Cl746   1.771   .     S
C723   C735    1.400   .     A
C724   Cl747   1.766   .     S
C724   C735    1.400   .     A
C725   C736    1.400   .     A
C725   Cl748   1.772   .     S
C726   C739    1.413   .     A
C726   Cl749   1.787   .     S
C727   O787    1.278   .     A
C727   C732    1.409   .     S
C727   O784    1.281   .     A
C728   C737    1.405   .     A
C728   Cl750   1.774   .     S
C729   Cl751   1.772   .     S
C729   C737    1.405   .     A
C730   Cl752   1.780   .     S
C730   C739    1.413   .     A
C731   C738    1.409   .     S
C735   C743    1.409   .     S
C736   C742    1.409   .     S
C737   C741    1.428   .     S
C738   O785    1.281   .     A
C738   O786    1.278   .     A
C739   C740    1.428   .     S
C740   O788    1.284   .     A
C740   O776    1.286   .     A
C741   O774    1.284   .     A
C741   O775    1.285   .     A
C742   O780    1.278   .     A
C742   O777    1.281   .     A
C743   O778    1.281   .     A
C743   O779    1.278   .     A
C744   F761    1.355   .     S
C744   N770    1.367   .     S
N769   C794    1.367   1_455 A
N769   Zn789   2.012   .     S
N770   C795    1.367   1_455 A
N770   Zn790   2.012   .     S
N771   C886    1.367   1_545 S
N771   Zn791   2.012   .     S
N772   Zn792   2.012   .     S
N772   C887    1.367   1_545 S
O773   Zn789   2.009   .     S
O774   Zn792   2.009   .     S
O775   Zn791   2.015   .     S
O776   Zn968   2.015   .     S
O777   Zn968   1.990   .     S
O778   Zn791   1.990   .     S
O779   Zn792   1.984   .     S
O780   Zn967   1.984   .     S
O781   Zn878   2.009   .     S
O782   Zn877   2.015   .     S
O783   Zn790   2.015   .     S
O784   Zn878   1.990   .     S
O785   Zn789   1.990   .     S
O786   Zn790   1.984   .     S
O787   Zn877   1.984   .     S
O788   Zn967   2.009   .     S
Zn789  O875    1.984   1_455 S
Zn789  O870    2.015   1_455 S
Zn790  O872    1.990   1_455 S
Zn790  O869    2.009   1_455 S
Zn791  O964    2.009   1_545 S
Zn791  O956    1.984   1_545 S
Zn792  O953    1.990   1_545 S
Zn792  O952    2.015   1_545 S
C793   O861    1.284   .     A
C793   O871    1.285   .     A
C793   C822    1.428   .     S
C794   N769    1.367   1_655 A
C794   F850    1.354   .     S
C794   C91     1.416   1_556 S
C795   N770    1.367   1_655 A
C795   F851    1.354   .     S
C796   F852    1.353   .     S
C796   C128    1.416   1_556 S
C796   N857    1.367   .     S
C797   N860    1.367   .     A
C797   F853    1.354   .     S
C798   F854    1.355   .     S
C798   C95     1.416   1_556 S
C798   N1035   1.367   .     S
C799   F855    1.353   .     S
C799   N1036   1.367   .     S
C800   F856    1.354   .     S
C800   N859    1.367   .     A
C800   C93     1.416   1_556 S
C801   C812    1.381   .     A
C801   Cl833   1.771   .     S
C801   C820    1.400   .     A
C802   C819    1.400   .     A
C802   C813    1.381   .     A
C802   Cl841   1.767   .     S
C803   C810    1.381   .     A
C803   C819    1.400   .     A
C803   Cl842   1.772   .     S
C804   C821    1.428   .     S
C804   O870    1.286   .     A
C804   O869    1.284   .     A
C805   Cl843   1.766   .     S
C805   C820    1.400   .     A
C805   C811    1.381   .     A
C806   Cl844   1.774   .     S
C806   C822    1.405   .     A
C806   C817    1.386   .     A
C807   Cl845   1.787   .     S
C807   C821    1.413   .     A
C807   C818    1.376   .     A
C808   C821    1.413   .     A
C808   C814    1.376   .     A
C808   Cl846   1.780   .     S
C809   C822    1.405   .     A
C809   C816    1.386   .     A
C809   Cl847   1.772   .     S
C810   Cl848   1.767   .     S
C810   C824    1.400   .     A
C811   Cl834   1.771   .     S
C811   C823    1.400   .     A
C812   Cl835   1.766   .     S
C812   C823    1.400   .     A
C813   C824    1.400   .     A
C813   Cl836   1.772   .     S
C814   C827    1.413   .     A
C814   Cl837   1.787   .     S
C815   O875    1.278   .     A
C815   C820    1.409   .     S
C815   O872    1.281   .     A
C816   C825    1.405   .     A
C816   Cl838   1.774   .     S
C817   Cl839   1.772   .     S
C817   C825    1.405   .     A
C818   Cl840   1.780   .     S
C818   C827    1.413   .     A
C819   C826    1.409   .     S
C823   C831    1.409   .     S
C824   C830    1.409   .     S
C825   C829    1.428   .     S
C826   O873    1.281   .     A
C826   O874    1.278   .     A
C827   C828    1.428   .     S
C828   O876    1.284   .     A
C828   O864    1.286   .     A
C829   O862    1.284   .     A
C829   O863    1.285   .     A
C830   O868    1.278   .     A
C830   O865    1.281   .     A
C831   O866    1.281   .     A
C831   O867    1.278   .     A
C832   F849    1.355   .     S
C832   N858    1.367   .     S
N857   Zn877   2.012   .     S
N858   Zn878   2.012   .     S
N859   C974    1.367   1_545 S
N859   Zn879   2.012   .     S
N860   Zn880   2.012   .     S
N860   C975    1.367   1_545 S
O861   Zn877   2.009   .     S
O862   Zn880   2.009   .     S
O863   Zn879   2.015   .     S
O864   Zn1056  2.015   .     S
O865   Zn1056  1.990   .     S
O866   Zn879   1.990   .     S
O867   Zn880   1.984   .     S
O868   Zn1055  1.984   .     S
O869   Zn790   2.009   1_655 S
O870   Zn789   2.015   1_655 S
O871   Zn878   2.015   .     S
O872   Zn790   1.990   1_655 S
O873   Zn877   1.990   .     S
O874   Zn878   1.984   .     S
O875   Zn789   1.984   1_655 S
O876   Zn1055  2.009   .     S
Zn879  O1052   2.009   1_545 S
Zn879  O1044   1.984   1_545 S
Zn880  O1041   1.990   1_545 S
Zn880  O1040   2.015   1_545 S
C881   O949    1.284   .     A
C881   O959    1.285   .     A
C881   C910    1.428   .     S
C882   N1033   1.367   .     A
C882   F938    1.354   .     S
C882   C179    1.416   1_556 S
C883   N1034   1.367   .     A
C883   F939    1.354   .     S
C884   F940    1.353   .     S
C884   C216    1.416   1_556 S
C884   N945    1.367   .     S
C885   N948    1.367   .     A
C885   F941    1.354   .     S
C886   F942    1.355   .     S
C886   C183    1.416   1_556 S
C886   N771    1.367   1_565 S
C887   F943    1.353   .     S
C887   N772    1.367   1_565 S
C888   F944    1.354   .     S
C888   N947    1.367   .     A
C888   C181    1.416   1_556 S
C889   C900    1.381   .     A
C889   Cl921   1.771   .     S
C889   C908    1.400   .     A
C890   C907    1.400   .     A
C890   C901    1.381   .     A
C890   Cl929   1.767   .     S
C891   C898    1.381   .     A
C891   C907    1.400   .     A
C891   Cl930   1.772   .     S
C892   C909    1.428   .     S
C892   O958    1.286   .     A
C892   O957    1.284   .     A
C893   Cl931   1.766   .     S
C893   C908    1.400   .     A
C893   C899    1.381   .     A
C894   Cl932   1.774   .     S
C894   C910    1.405   .     A
C894   C905    1.386   .     A
C895   Cl933   1.787   .     S
C895   C909    1.413   .     A
C895   C906    1.376   .     A
C896   C909    1.413   .     A
C896   C902    1.376   .     A
C896   Cl934   1.780   .     S
C897   C910    1.405   .     A
C897   C904    1.386   .     A
C897   Cl935   1.772   .     S
C898   Cl936   1.767   .     S
C898   C912    1.400   .     A
C899   Cl922   1.771   .     S
C899   C911    1.400   .     A
C900   Cl923   1.766   .     S
C900   C911    1.400   .     A
C901   C912    1.400   .     A
C901   Cl924   1.772   .     S
C902   C915    1.413   .     A
C902   Cl925   1.787   .     S
C903   O963    1.278   .     A
C903   C908    1.409   .     S
C903   O960    1.281   .     A
C904   C913    1.405   .     A
C904   Cl926   1.774   .     S
C905   Cl927   1.772   .     S
C905   C913    1.405   .     A
C906   Cl928   1.780   .     S
C906   C915    1.413   .     A
C907   C914    1.409   .     S
C911   C919    1.409   .     S
C912   C918    1.409   .     S
C913   C917    1.428   .     S
C914   O961    1.281   .     A
C914   O962    1.278   .     A
C915   C916    1.428   .     S
C916   O964    1.284   .     A
C916   O952    1.286   .     A
C917   O950    1.284   .     A
C917   O951    1.285   .     A
C918   O956    1.278   .     A
C918   O953    1.281   .     A
C919   O954    1.281   .     A
C919   O955    1.278   .     A
C920   F937    1.355   .     S
C920   N946    1.367   .     S
N945   C970    1.367   1_455 A
N945   Zn965   2.012   .     S
N946   C971    1.367   1_455 A
N946   Zn966   2.012   .     S
N947   Zn967   2.012   .     S
N948   Zn968   2.012   .     S
O949   Zn965   2.009   .     S
O950   Zn968   2.009   .     S
O951   Zn967   2.015   .     S
O952   Zn792   2.015   1_565 S
O953   Zn792   1.990   1_565 S
O954   Zn967   1.990   .     S
O955   Zn968   1.984   .     S
O956   Zn791   1.984   1_565 S
O957   Zn1054  2.009   .     S
O958   Zn1053  2.015   .     S
O959   Zn966   2.015   .     S
O960   Zn1054  1.990   .     S
O961   Zn965   1.990   .     S
O962   Zn966   1.984   .     S
O963   Zn1053  1.984   .     S
O964   Zn791   2.009   1_565 S
Zn965  O1051   1.984   1_455 S
Zn965  O1046   2.015   1_455 S
Zn966  O1048   1.990   1_455 S
Zn966  O1045   2.009   1_455 S
C969   O1037   1.284   .     A
C969   O1047   1.285   .     A
C969   C998    1.428   .     S
C970   N945    1.367   1_655 A
C970   F1026   1.354   .     S
C970   C267    1.416   1_556 S
C971   N946    1.367   1_655 A
C971   F1027   1.354   .     S
C972   F1028   1.353   .     S
C972   C304    1.416   1_556 S
C972   N1033   1.367   .     S
C973   N1036   1.367   .     A
C973   F1029   1.354   .     S
C974   F1030   1.355   .     S
C974   C271    1.416   1_556 S
C974   N859    1.367   1_565 S
C975   F1031   1.353   .     S
C975   N860    1.367   1_565 S
C976   F1032   1.354   .     S
C976   N1035   1.367   .     A
C976   C269    1.416   1_556 S
C977   C988    1.381   .     A
C977   Cl1009  1.771   .     S
C977   C996    1.400   .     A
C978   C995    1.400   .     A
C978   C989    1.381   .     A
C978   Cl1017  1.767   .     S
C979   C986    1.381   .     A
C979   C995    1.400   .     A
C979   Cl1018  1.772   .     S
C980   C997    1.428   .     S
C980   O1046   1.286   .     A
C980   O1045   1.284   .     A
C981   Cl1019  1.766   .     S
C981   C996    1.400   .     A
C981   C987    1.381   .     A
C982   Cl1020  1.774   .     S
C982   C998    1.405   .     A
C982   C993    1.386   .     A
C983   Cl1021  1.787   .     S
C983   C997    1.413   .     A
C983   C994    1.376   .     A
C984   C997    1.413   .     A
C984   C990    1.376   .     A
C984   Cl1022  1.780   .     S
C985   C998    1.405   .     A
C985   C992    1.386   .     A
C985   Cl1023  1.772   .     S
C986   Cl1024  1.767   .     S
C986   C1000   1.400   .     A
C987   Cl1010  1.771   .     S
C987   C999    1.400   .     A
C988   Cl1011  1.766   .     S
C988   C999    1.400   .     A
C989   C1000   1.400   .     A
C989   Cl1012  1.772   .     S
C990   C1003   1.413   .     A
C990   Cl1013  1.787   .     S
C991   O1051   1.278   .     A
C991   C996    1.409   .     S
C991   O1048   1.281   .     A
C992   C1001   1.405   .     A
C992   Cl1014  1.774   .     S
C993   Cl1015  1.772   .     S
C993   C1001   1.405   .     A
C994   Cl1016  1.780   .     S
C994   C1003   1.413   .     A
C995   C1002   1.409   .     S
C999   C1007   1.409   .     S
C1000  C1006   1.409   .     S
C1001  C1005   1.428   .     S
C1002  O1049   1.281   .     A
C1002  O1050   1.278   .     A
C1003  C1004   1.428   .     S
C1004  O1052   1.284   .     A
C1004  O1040   1.286   .     A
C1005  O1038   1.284   .     A
C1005  O1039   1.285   .     A
C1006  O1044   1.278   .     A
C1006  O1041   1.281   .     A
C1007  O1042   1.281   .     A
C1007  O1043   1.278   .     A
C1008  F1025   1.355   .     S
C1008  N1034   1.367   .     S
N1033  Zn1053  2.012   .     S
N1034  Zn1054  2.012   .     S
N1035  Zn1055  2.012   .     S
N1036  Zn1056  2.012   .     S
O1037  Zn1053  2.009   .     S
O1038  Zn1056  2.009   .     S
O1039  Zn1055  2.015   .     S
O1040  Zn880   2.015   1_565 S
O1041  Zn880   1.990   1_565 S
O1042  Zn1055  1.990   .     S
O1043  Zn1056  1.984   .     S
O1044  Zn879   1.984   1_565 S
O1045  Zn966   2.009   1_655 S
O1046  Zn965   2.015   1_655 S
O1047  Zn1054  2.015   .     S
O1048  Zn966   1.990   1_655 S
O1049  Zn1053  1.990   .     S
O1050  Zn1054  1.984   .     S
O1051  Zn965   1.984   1_655 S
O1052  Zn879   2.009   1_565 S
