data_str_m3_o1_o5_pcu_sym.62
_audit_creation_date              2020-01-03
_audit_creation_method            'Materials Studio'
_symmetry_space_group_name_H-M    'P1'
_symmetry_Int_Tables_number       1
_symmetry_cell_setting            triclinic
loop_
_symmetry_equiv_pos_as_xyz
  x,y,z
_cell_length_a                    32.2514
_cell_length_b                    29.8229
_cell_length_c                    27.0686
_cell_angle_alpha                 89.9999
_cell_angle_beta                  97.5161
_cell_angle_gamma                 90.0000
loop_
_atom_site_label
_atom_site_type_symbol
_atom_site_fract_x
_atom_site_fract_y
_atom_site_fract_z
_atom_site_U_iso_or_equiv
_atom_site_adp_type
_atom_site_occupancy
C1     C     0.08716   0.16667   0.17187   0.00000  Uiso   1.00
C2     C     0.02105   0.20764   0.17708   0.00000  Uiso   1.00
C3     C     0.29044   0.16667   0.15442   0.00000  Uiso   1.00
C4     C     0.04290   0.16667   0.17892   0.00000  Uiso   1.00
C5     C     0.19175   0.02393   0.20257   0.00000  Uiso   1.00
C6     C     0.14158   0.30940   0.13077   0.00000  Uiso   1.00
C7     C     0.14158   0.02393   0.13077   0.00000  Uiso   1.00
C8     C     0.19175   0.30940   0.20257   0.00000  Uiso   1.00
C9     C     0.04025   0.08670   0.20642   0.00000  Uiso   1.00
C10    C     0.29308   0.24663   0.12691   0.00000  Uiso   1.00
C11    C     0.29308   0.08670   0.12691   0.00000  Uiso   1.00
C12    C     0.24618   0.16667   0.16146   0.00000  Uiso   1.00
C13    C     0.04025   0.24663   0.20642   0.00000  Uiso   1.00
C14    C     0.21806   0.04793   0.24300   0.00000  Uiso   1.00
C15    C     0.25898   0.06048   0.23782   0.00000  Uiso   1.00
C16    C     0.28311   0.08444   0.27569   0.00000  Uiso   1.00
C17    C     0.26739   0.09333   0.32026   0.00000  Uiso   1.00
C18    C     0.22807   0.07719   0.32741   0.00000  Uiso   1.00
C19    C     0.20361   0.05422   0.28896   0.00000  Uiso   1.00
C20    C     0.11528   0.28541   0.09034   0.00000  Uiso   1.00
C21    C     0.07436   0.27285   0.09551   0.00000  Uiso   1.00
C22    C     0.05023   0.24890   0.05764   0.00000  Uiso   1.00
C23    C     0.16628   0.16667   0.07283   0.00000  Uiso   1.00
C24    C     0.06595   0.24001   0.01308   0.00000  Uiso   1.00
C25    C     0.10527   0.25615   0.00592   0.00000  Uiso   1.00
C26    C     0.12972   0.27911   0.04438   0.00000  Uiso   1.00
C27    C     0.11528   0.04793   0.09034   0.00000  Uiso   1.00
C28    C     0.07436   0.06048   0.09551   0.00000  Uiso   1.00
C29    C     0.05023   0.08444   0.05764   0.00000  Uiso   1.00
C30    C     0.06595   0.09333   0.01308   0.00000  Uiso   1.00
C31    C     0.10527   0.07719   0.00592   0.00000  Uiso   1.00
C32    C     0.12972   0.05422   0.04438   0.00000  Uiso   1.00
C33    C     0.21806   0.28541   0.24299   0.00000  Uiso   1.00
C34    C     0.16705   0.16667   0.26050   0.00000  Uiso   1.00
C35    C     0.20361   0.27911   0.28896   0.00000  Uiso   1.00
C36    C     0.22807   0.25615   0.32741   0.00000  Uiso   1.00
C37    C     0.26739   0.24001   0.32026   0.00000  Uiso   1.00
C38    C     0.28311   0.24890   0.27569   0.00000  Uiso   1.00
C39    C     0.25898   0.27285   0.23782   0.00000  Uiso   1.00
C40    C     0.16656   0.16667   0.02172   0.00000  Uiso   1.00
C41    C     0.16678   0.16667   0.31162   0.00000  Uiso   1.00
C42    C     0.02105   0.12570   0.17708   0.00000  Uiso   1.00
C43    C     0.31228   0.20764   0.15625   0.00000  Uiso   1.00
C44    C     0.31228   0.12570   0.15625   0.00000  Uiso   1.00
H45    H     0.07127   0.08952   0.22695   0.00000  Uiso   1.00
H46    H     0.06147   0.28188   0.12873   0.00000  Uiso   1.00
H47    H     0.01943   0.23719   0.06260   0.00000  Uiso   1.00
H48    H     0.04755   0.22109   0.31729   0.00000  Uiso   1.00
H49    H     0.11687   0.24999   0.30427   0.00000  Uiso   1.00
H50    H     0.16014   0.29172   0.03935   0.00000  Uiso   1.00
H51    H     0.06147   0.05145   0.12873   0.00000  Uiso   1.00
H52    H     0.01943   0.09614   0.06260   0.00000  Uiso   1.00
H53    H     0.04755   0.11225   0.31729   0.00000  Uiso   1.00
H54    H     0.11687   0.08334   0.30427   0.00000  Uiso   1.00
H55    H     0.16014   0.04162   0.03935   0.00000  Uiso   1.00
H56    H     0.26206   0.24381   0.10638   0.00000  Uiso   1.00
H57    H     0.17319   0.29172   0.29398   0.00000  Uiso   1.00
H58    H     0.21646   0.24999   0.02906   0.00000  Uiso   1.00
H59    H     0.28578   0.22109   0.01605   0.00000  Uiso   1.00
H60    H     0.31390   0.23719   0.27073   0.00000  Uiso   1.00
H61    H     0.27186   0.28188   0.20460   0.00000  Uiso   1.00
H62    H     0.26206   0.08952   0.10638   0.00000  Uiso   1.00
H63    H     0.07127   0.24381   0.22695   0.00000  Uiso   1.00
H64    H     0.27186   0.05145   0.20460   0.00000  Uiso   1.00
H65    H     0.31390   0.09614   0.27073   0.00000  Uiso   1.00
H66    H     0.28578   0.11225   0.01605   0.00000  Uiso   1.00
H67    H     0.21646   0.08334   0.02906   0.00000  Uiso   1.00
H68    H     0.17319   0.04162   0.29398   0.00000  Uiso   1.00
N69    N     0.16667   0.28573   0.16667   0.00000  Uiso   1.00
N70    N     0.16667   0.04760   0.16667   0.00000  Uiso   1.00
O71    O     0.10559   0.20487   0.16666   0.00000  Uiso   1.00
O72    O     0.31203   0.28153   0.12280   0.00000  Uiso   1.00
O73    O     0.31203   0.05180   0.12280   0.00000  Uiso   1.00
O74    O     0.02130   0.28153   0.21053   0.00000  Uiso   1.00
O75    O     0.22774   0.12846   0.16667   0.00000  Uiso   1.00
O76    O     0.22774   0.20487   0.16667   0.00000  Uiso   1.00
O77    O     0.10559   0.12846   0.16666   0.00000  Uiso   1.00
O78    O     0.16667   0.20488   0.09511   0.00000  Uiso   1.00
O79    O     0.16666   0.12845   0.23822   0.00000  Uiso   1.00
O80    O     0.16666   0.20488   0.23822   0.00000  Uiso   1.00
O81    O     0.16667   0.12845   0.09511   0.00000  Uiso   1.00
O82    O     0.02130   0.05180   0.21053   0.00000  Uiso   1.00
Zn83   Zn    0.16667   0.21771   0.16667   0.00000  Uiso   1.00
Zn84   Zn    0.16667   0.11563   0.16667   0.00000  Uiso   1.00
C85    C     0.42049   0.16667   0.17187   0.00000  Uiso   1.00
C86    C     0.35439   0.20764   0.17708   0.00000  Uiso   1.00
C87    C     0.62377   0.16667   0.15442   0.00000  Uiso   1.00
C88    C     0.37623   0.16667   0.17892   0.00000  Uiso   1.00
C89    C     0.52508   0.02393   0.20257   0.00000  Uiso   1.00
C90    C     0.47492   0.30940   0.13077   0.00000  Uiso   1.00
C91    C     0.47492   0.02393   0.13077   0.00000  Uiso   1.00
C92    C     0.52508   0.30940   0.20257   0.00000  Uiso   1.00
C93    C     0.37358   0.08670   0.20642   0.00000  Uiso   1.00
C94    C     0.62642   0.24663   0.12691   0.00000  Uiso   1.00
C95    C     0.62642   0.08670   0.12691   0.00000  Uiso   1.00
C96    C     0.57951   0.16667   0.16146   0.00000  Uiso   1.00
C97    C     0.37358   0.24663   0.20642   0.00000  Uiso   1.00
C98    C     0.55139   0.04793   0.24300   0.00000  Uiso   1.00
C99    C     0.59231   0.06048   0.23782   0.00000  Uiso   1.00
C100   C     0.61644   0.08444   0.27569   0.00000  Uiso   1.00
C101   C     0.60072   0.09333   0.32026   0.00000  Uiso   1.00
C102   C     0.56140   0.07719   0.32741   0.00000  Uiso   1.00
C103   C     0.53695   0.05422   0.28896   0.00000  Uiso   1.00
C104   C     0.44861   0.28541   0.09034   0.00000  Uiso   1.00
C105   C     0.40769   0.27285   0.09551   0.00000  Uiso   1.00
C106   C     0.38356   0.24890   0.05764   0.00000  Uiso   1.00
C107   C     0.49962   0.16667   0.07283   0.00000  Uiso   1.00
C108   C     0.39928   0.24001   0.01308   0.00000  Uiso   1.00
C109   C     0.43860   0.25615   0.00592   0.00000  Uiso   1.00
C110   C     0.46305   0.27911   0.04438   0.00000  Uiso   1.00
C111   C     0.44861   0.04793   0.09034   0.00000  Uiso   1.00
C112   C     0.40769   0.06048   0.09551   0.00000  Uiso   1.00
C113   C     0.38356   0.08444   0.05764   0.00000  Uiso   1.00
C114   C     0.39928   0.09333   0.01308   0.00000  Uiso   1.00
C115   C     0.43860   0.07719   0.00592   0.00000  Uiso   1.00
C116   C     0.46305   0.05422   0.04438   0.00000  Uiso   1.00
C117   C     0.55139   0.28541   0.24299   0.00000  Uiso   1.00
C118   C     0.50038   0.16667   0.26050   0.00000  Uiso   1.00
C119   C     0.53695   0.27911   0.28896   0.00000  Uiso   1.00
C120   C     0.56140   0.25615   0.32741   0.00000  Uiso   1.00
C121   C     0.60072   0.24001   0.32026   0.00000  Uiso   1.00
C122   C     0.61644   0.24890   0.27569   0.00000  Uiso   1.00
C123   C     0.59231   0.27285   0.23782   0.00000  Uiso   1.00
C124   C     0.49989   0.16667   0.02172   0.00000  Uiso   1.00
C125   C     0.50011   0.16667   0.31162   0.00000  Uiso   1.00
C126   C     0.35439   0.12570   0.17708   0.00000  Uiso   1.00
C127   C     0.64561   0.20764   0.15625   0.00000  Uiso   1.00
C128   C     0.64561   0.12570   0.15625   0.00000  Uiso   1.00
H129   H     0.40460   0.08952   0.22695   0.00000  Uiso   1.00
H130   H     0.39481   0.28188   0.12873   0.00000  Uiso   1.00
H131   H     0.35276   0.23719   0.06260   0.00000  Uiso   1.00
H132   H     0.38089   0.22109   0.31729   0.00000  Uiso   1.00
H133   H     0.45021   0.24999   0.30427   0.00000  Uiso   1.00
H134   H     0.49347   0.29172   0.03935   0.00000  Uiso   1.00
H135   H     0.39481   0.05145   0.12873   0.00000  Uiso   1.00
H136   H     0.35276   0.09614   0.06260   0.00000  Uiso   1.00
H137   H     0.38089   0.11225   0.31729   0.00000  Uiso   1.00
H138   H     0.45021   0.08334   0.30427   0.00000  Uiso   1.00
H139   H     0.49347   0.04162   0.03935   0.00000  Uiso   1.00
H140   H     0.59540   0.24381   0.10638   0.00000  Uiso   1.00
H141   H     0.50653   0.29172   0.29398   0.00000  Uiso   1.00
H142   H     0.54979   0.24999   0.02906   0.00000  Uiso   1.00
H143   H     0.61911   0.22109   0.01605   0.00000  Uiso   1.00
H144   H     0.64724   0.23719   0.27073   0.00000  Uiso   1.00
H145   H     0.60519   0.28188   0.20460   0.00000  Uiso   1.00
H146   H     0.59540   0.08952   0.10638   0.00000  Uiso   1.00
H147   H     0.40460   0.24381   0.22695   0.00000  Uiso   1.00
H148   H     0.60519   0.05145   0.20460   0.00000  Uiso   1.00
H149   H     0.64724   0.09614   0.27073   0.00000  Uiso   1.00
H150   H     0.61911   0.11225   0.01605   0.00000  Uiso   1.00
H151   H     0.54979   0.08334   0.02906   0.00000  Uiso   1.00
H152   H     0.50653   0.04162   0.29398   0.00000  Uiso   1.00
N153   N     0.50000   0.28573   0.16667   0.00000  Uiso   1.00
N154   N     0.50000   0.04760   0.16667   0.00000  Uiso   1.00
O155   O     0.43892   0.20487   0.16666   0.00000  Uiso   1.00
O156   O     0.64537   0.28153   0.12280   0.00000  Uiso   1.00
O157   O     0.64537   0.05180   0.12280   0.00000  Uiso   1.00
O158   O     0.35463   0.28153   0.21053   0.00000  Uiso   1.00
O159   O     0.56108   0.12846   0.16667   0.00000  Uiso   1.00
O160   O     0.56108   0.20487   0.16667   0.00000  Uiso   1.00
O161   O     0.43892   0.12846   0.16666   0.00000  Uiso   1.00
O162   O     0.50000   0.20488   0.09511   0.00000  Uiso   1.00
O163   O     0.50000   0.12845   0.23822   0.00000  Uiso   1.00
O164   O     0.50000   0.20488   0.23822   0.00000  Uiso   1.00
O165   O     0.50000   0.12845   0.09511   0.00000  Uiso   1.00
O166   O     0.35463   0.05180   0.21053   0.00000  Uiso   1.00
Zn167  Zn    0.50000   0.21771   0.16667   0.00000  Uiso   1.00
Zn168  Zn    0.50000   0.11563   0.16667   0.00000  Uiso   1.00
C169   C     0.75382   0.16667   0.17187   0.00000  Uiso   1.00
C170   C     0.68772   0.20764   0.17708   0.00000  Uiso   1.00
C171   C     0.95710   0.16667   0.15442   0.00000  Uiso   1.00
C172   C     0.70956   0.16667   0.17892   0.00000  Uiso   1.00
C173   C     0.85842   0.02393   0.20257   0.00000  Uiso   1.00
C174   C     0.80825   0.30940   0.13077   0.00000  Uiso   1.00
C175   C     0.80825   0.02393   0.13077   0.00000  Uiso   1.00
C176   C     0.85842   0.30940   0.20257   0.00000  Uiso   1.00
C177   C     0.70692   0.08670   0.20642   0.00000  Uiso   1.00
C178   C     0.95975   0.24663   0.12691   0.00000  Uiso   1.00
C179   C     0.95975   0.08670   0.12691   0.00000  Uiso   1.00
C180   C     0.91284   0.16667   0.16146   0.00000  Uiso   1.00
C181   C     0.70692   0.24663   0.20642   0.00000  Uiso   1.00
C182   C     0.88472   0.04793   0.24300   0.00000  Uiso   1.00
C183   C     0.92564   0.06048   0.23782   0.00000  Uiso   1.00
C184   C     0.94977   0.08444   0.27569   0.00000  Uiso   1.00
C185   C     0.93405   0.09333   0.32026   0.00000  Uiso   1.00
C186   C     0.89473   0.07719   0.32741   0.00000  Uiso   1.00
C187   C     0.87028   0.05422   0.28896   0.00000  Uiso   1.00
C188   C     0.78195   0.28541   0.09034   0.00000  Uiso   1.00
C189   C     0.74102   0.27285   0.09551   0.00000  Uiso   1.00
C190   C     0.71689   0.24890   0.05764   0.00000  Uiso   1.00
C191   C     0.83295   0.16667   0.07283   0.00000  Uiso   1.00
C192   C     0.73261   0.24001   0.01308   0.00000  Uiso   1.00
C193   C     0.77193   0.25615   0.00592   0.00000  Uiso   1.00
C194   C     0.79639   0.27911   0.04438   0.00000  Uiso   1.00
C195   C     0.78195   0.04793   0.09034   0.00000  Uiso   1.00
C196   C     0.74102   0.06048   0.09551   0.00000  Uiso   1.00
C197   C     0.71689   0.08444   0.05764   0.00000  Uiso   1.00
C198   C     0.73261   0.09333   0.01308   0.00000  Uiso   1.00
C199   C     0.77193   0.07719   0.00592   0.00000  Uiso   1.00
C200   C     0.79639   0.05422   0.04438   0.00000  Uiso   1.00
C201   C     0.88472   0.28541   0.24299   0.00000  Uiso   1.00
C202   C     0.83372   0.16667   0.26050   0.00000  Uiso   1.00
C203   C     0.87028   0.27911   0.28896   0.00000  Uiso   1.00
C204   C     0.89473   0.25615   0.32741   0.00000  Uiso   1.00
C205   C     0.93405   0.24001   0.32026   0.00000  Uiso   1.00
C206   C     0.94977   0.24890   0.27569   0.00000  Uiso   1.00
C207   C     0.92564   0.27285   0.23782   0.00000  Uiso   1.00
C208   C     0.83323   0.16667   0.02172   0.00000  Uiso   1.00
C209   C     0.83344   0.16667   0.31162   0.00000  Uiso   1.00
C210   C     0.68772   0.12570   0.17708   0.00000  Uiso   1.00
C211   C     0.97895   0.20764   0.15625   0.00000  Uiso   1.00
C212   C     0.97895   0.12570   0.15625   0.00000  Uiso   1.00
H213   H     0.73794   0.08952   0.22695   0.00000  Uiso   1.00
H214   H     0.72814   0.28188   0.12873   0.00000  Uiso   1.00
H215   H     0.68610   0.23719   0.06260   0.00000  Uiso   1.00
H216   H     0.71422   0.22109   0.31729   0.00000  Uiso   1.00
H217   H     0.78354   0.24999   0.30427   0.00000  Uiso   1.00
H218   H     0.82681   0.29172   0.03935   0.00000  Uiso   1.00
H219   H     0.72814   0.05145   0.12873   0.00000  Uiso   1.00
H220   H     0.68610   0.09614   0.06260   0.00000  Uiso   1.00
H221   H     0.71422   0.11225   0.31729   0.00000  Uiso   1.00
H222   H     0.78354   0.08334   0.30427   0.00000  Uiso   1.00
H223   H     0.82681   0.04162   0.03935   0.00000  Uiso   1.00
H224   H     0.92873   0.24381   0.10638   0.00000  Uiso   1.00
H225   H     0.83986   0.29172   0.29398   0.00000  Uiso   1.00
H226   H     0.88313   0.24999   0.02906   0.00000  Uiso   1.00
H227   H     0.95245   0.22109   0.01605   0.00000  Uiso   1.00
H228   H     0.98057   0.23719   0.27073   0.00000  Uiso   1.00
H229   H     0.93853   0.28188   0.20460   0.00000  Uiso   1.00
H230   H     0.92873   0.08952   0.10638   0.00000  Uiso   1.00
H231   H     0.73794   0.24381   0.22695   0.00000  Uiso   1.00
H232   H     0.93853   0.05145   0.20460   0.00000  Uiso   1.00
H233   H     0.98057   0.09614   0.27073   0.00000  Uiso   1.00
H234   H     0.95245   0.11225   0.01605   0.00000  Uiso   1.00
H235   H     0.88313   0.08334   0.02906   0.00000  Uiso   1.00
H236   H     0.83986   0.04162   0.29398   0.00000  Uiso   1.00
N237   N     0.83333   0.28573   0.16667   0.00000  Uiso   1.00
N238   N     0.83333   0.04760   0.16667   0.00000  Uiso   1.00
O239   O     0.77226   0.20487   0.16666   0.00000  Uiso   1.00
O240   O     0.97870   0.28153   0.12280   0.00000  Uiso   1.00
O241   O     0.97870   0.05180   0.12280   0.00000  Uiso   1.00
O242   O     0.68797   0.28153   0.21053   0.00000  Uiso   1.00
O243   O     0.89441   0.12846   0.16667   0.00000  Uiso   1.00
O244   O     0.89441   0.20487   0.16667   0.00000  Uiso   1.00
O245   O     0.77226   0.12846   0.16666   0.00000  Uiso   1.00
O246   O     0.83334   0.20488   0.09511   0.00000  Uiso   1.00
O247   O     0.83333   0.12845   0.23822   0.00000  Uiso   1.00
O248   O     0.83333   0.20488   0.23822   0.00000  Uiso   1.00
O249   O     0.83334   0.12845   0.09511   0.00000  Uiso   1.00
O250   O     0.68797   0.05180   0.21053   0.00000  Uiso   1.00
Zn251  Zn    0.83333   0.21771   0.16667   0.00000  Uiso   1.00
Zn252  Zn    0.83333   0.11563   0.16667   0.00000  Uiso   1.00
C253   C     0.08716   0.50000   0.17187   0.00000  Uiso   1.00
C254   C     0.02105   0.54097   0.17708   0.00000  Uiso   1.00
C255   C     0.29044   0.50000   0.15442   0.00000  Uiso   1.00
C256   C     0.04290   0.50000   0.17892   0.00000  Uiso   1.00
C257   C     0.19175   0.35726   0.20257   0.00000  Uiso   1.00
C258   C     0.14158   0.64274   0.13077   0.00000  Uiso   1.00
C259   C     0.14158   0.35726   0.13077   0.00000  Uiso   1.00
C260   C     0.19175   0.64274   0.20257   0.00000  Uiso   1.00
C261   C     0.04025   0.42004   0.20642   0.00000  Uiso   1.00
C262   C     0.29308   0.57996   0.12691   0.00000  Uiso   1.00
C263   C     0.29308   0.42004   0.12691   0.00000  Uiso   1.00
C264   C     0.24618   0.50000   0.16146   0.00000  Uiso   1.00
C265   C     0.04025   0.57996   0.20642   0.00000  Uiso   1.00
C266   C     0.21806   0.38126   0.24300   0.00000  Uiso   1.00
C267   C     0.25898   0.39382   0.23782   0.00000  Uiso   1.00
C268   C     0.28311   0.41777   0.27569   0.00000  Uiso   1.00
C269   C     0.26739   0.42666   0.32026   0.00000  Uiso   1.00
C270   C     0.22807   0.41052   0.32741   0.00000  Uiso   1.00
C271   C     0.20361   0.38755   0.28896   0.00000  Uiso   1.00
C272   C     0.11528   0.61874   0.09034   0.00000  Uiso   1.00
C273   C     0.07436   0.60619   0.09551   0.00000  Uiso   1.00
C274   C     0.05023   0.58223   0.05764   0.00000  Uiso   1.00
C275   C     0.16628   0.50000   0.07283   0.00000  Uiso   1.00
C276   C     0.06595   0.57334   0.01308   0.00000  Uiso   1.00
C277   C     0.10527   0.58948   0.00592   0.00000  Uiso   1.00
C278   C     0.12972   0.61245   0.04438   0.00000  Uiso   1.00
C279   C     0.11528   0.38126   0.09034   0.00000  Uiso   1.00
C280   C     0.07436   0.39382   0.09551   0.00000  Uiso   1.00
C281   C     0.05023   0.41777   0.05764   0.00000  Uiso   1.00
C282   C     0.06595   0.42666   0.01308   0.00000  Uiso   1.00
C283   C     0.10527   0.41052   0.00592   0.00000  Uiso   1.00
C284   C     0.12972   0.38755   0.04438   0.00000  Uiso   1.00
C285   C     0.21806   0.61874   0.24299   0.00000  Uiso   1.00
C286   C     0.16705   0.50000   0.26050   0.00000  Uiso   1.00
C287   C     0.20361   0.61245   0.28896   0.00000  Uiso   1.00
C288   C     0.22807   0.58948   0.32741   0.00000  Uiso   1.00
C289   C     0.26739   0.57334   0.32026   0.00000  Uiso   1.00
C290   C     0.28311   0.58223   0.27569   0.00000  Uiso   1.00
C291   C     0.25898   0.60618   0.23782   0.00000  Uiso   1.00
C292   C     0.16656   0.50000   0.02172   0.00000  Uiso   1.00
C293   C     0.16678   0.50000   0.31162   0.00000  Uiso   1.00
C294   C     0.02105   0.45903   0.17708   0.00000  Uiso   1.00
C295   C     0.31228   0.54097   0.15625   0.00000  Uiso   1.00
C296   C     0.31228   0.45903   0.15625   0.00000  Uiso   1.00
H297   H     0.07127   0.42285   0.22695   0.00000  Uiso   1.00
H298   H     0.06147   0.61522   0.12873   0.00000  Uiso   1.00
H299   H     0.01943   0.57053   0.06260   0.00000  Uiso   1.00
H300   H     0.04755   0.55442   0.31729   0.00000  Uiso   1.00
H301   H     0.11687   0.58332   0.30427   0.00000  Uiso   1.00
H302   H     0.16014   0.62505   0.03935   0.00000  Uiso   1.00
H303   H     0.06147   0.38479   0.12873   0.00000  Uiso   1.00
H304   H     0.01943   0.42947   0.06260   0.00000  Uiso   1.00
H305   H     0.04755   0.44558   0.31729   0.00000  Uiso   1.00
H306   H     0.11687   0.41668   0.30427   0.00000  Uiso   1.00
H307   H     0.16014   0.37495   0.03935   0.00000  Uiso   1.00
H308   H     0.26206   0.57715   0.10638   0.00000  Uiso   1.00
H309   H     0.17319   0.62505   0.29398   0.00000  Uiso   1.00
H310   H     0.21646   0.58332   0.02906   0.00000  Uiso   1.00
H311   H     0.28578   0.55442   0.01605   0.00000  Uiso   1.00
H312   H     0.31390   0.57053   0.27073   0.00000  Uiso   1.00
H313   H     0.27186   0.61522   0.20460   0.00000  Uiso   1.00
H314   H     0.26206   0.42285   0.10638   0.00000  Uiso   1.00
H315   H     0.07127   0.57715   0.22695   0.00000  Uiso   1.00
H316   H     0.27186   0.38478   0.20460   0.00000  Uiso   1.00
H317   H     0.31390   0.42947   0.27073   0.00000  Uiso   1.00
H318   H     0.28578   0.44558   0.01605   0.00000  Uiso   1.00
H319   H     0.21646   0.41668   0.02906   0.00000  Uiso   1.00
H320   H     0.17319   0.37495   0.29398   0.00000  Uiso   1.00
N321   N     0.16667   0.61907   0.16667   0.00000  Uiso   1.00
N322   N     0.16667   0.38093   0.16667   0.00000  Uiso   1.00
O323   O     0.10559   0.53821   0.16666   0.00000  Uiso   1.00
O324   O     0.31203   0.61487   0.12280   0.00000  Uiso   1.00
O325   O     0.31203   0.38513   0.12280   0.00000  Uiso   1.00
O326   O     0.02130   0.61487   0.21053   0.00000  Uiso   1.00
O327   O     0.22774   0.46179   0.16667   0.00000  Uiso   1.00
O328   O     0.22774   0.53821   0.16667   0.00000  Uiso   1.00
O329   O     0.10559   0.46179   0.16666   0.00000  Uiso   1.00
O330   O     0.16667   0.53821   0.09511   0.00000  Uiso   1.00
O331   O     0.16666   0.46179   0.23822   0.00000  Uiso   1.00
O332   O     0.16666   0.53821   0.23822   0.00000  Uiso   1.00
O333   O     0.16667   0.46179   0.09511   0.00000  Uiso   1.00
O334   O     0.02130   0.38513   0.21053   0.00000  Uiso   1.00
Zn335  Zn    0.16667   0.55104   0.16667   0.00000  Uiso   1.00
Zn336  Zn    0.16667   0.44896   0.16667   0.00000  Uiso   1.00
C337   C     0.42049   0.50000   0.17187   0.00000  Uiso   1.00
C338   C     0.35439   0.54097   0.17708   0.00000  Uiso   1.00
C339   C     0.62377   0.50000   0.15442   0.00000  Uiso   1.00
C340   C     0.37623   0.50000   0.17892   0.00000  Uiso   1.00
C341   C     0.52508   0.35726   0.20257   0.00000  Uiso   1.00
C342   C     0.47492   0.64274   0.13077   0.00000  Uiso   1.00
C343   C     0.47492   0.35726   0.13077   0.00000  Uiso   1.00
C344   C     0.52508   0.64274   0.20257   0.00000  Uiso   1.00
C345   C     0.37358   0.42004   0.20642   0.00000  Uiso   1.00
C346   C     0.62642   0.57996   0.12691   0.00000  Uiso   1.00
C347   C     0.62642   0.42004   0.12691   0.00000  Uiso   1.00
C348   C     0.57951   0.50000   0.16146   0.00000  Uiso   1.00
C349   C     0.37358   0.57996   0.20642   0.00000  Uiso   1.00
C350   C     0.55139   0.38126   0.24300   0.00000  Uiso   1.00
C351   C     0.59231   0.39382   0.23782   0.00000  Uiso   1.00
C352   C     0.61644   0.41777   0.27569   0.00000  Uiso   1.00
C353   C     0.60072   0.42666   0.32026   0.00000  Uiso   1.00
C354   C     0.56140   0.41052   0.32741   0.00000  Uiso   1.00
C355   C     0.53695   0.38755   0.28896   0.00000  Uiso   1.00
C356   C     0.44861   0.61874   0.09034   0.00000  Uiso   1.00
C357   C     0.40769   0.60619   0.09551   0.00000  Uiso   1.00
C358   C     0.38356   0.58223   0.05764   0.00000  Uiso   1.00
C359   C     0.49962   0.50000   0.07283   0.00000  Uiso   1.00
C360   C     0.39928   0.57334   0.01308   0.00000  Uiso   1.00
C361   C     0.43860   0.58948   0.00592   0.00000  Uiso   1.00
C362   C     0.46305   0.61245   0.04438   0.00000  Uiso   1.00
C363   C     0.44861   0.38126   0.09034   0.00000  Uiso   1.00
C364   C     0.40769   0.39382   0.09551   0.00000  Uiso   1.00
C365   C     0.38356   0.41777   0.05764   0.00000  Uiso   1.00
C366   C     0.39928   0.42666   0.01308   0.00000  Uiso   1.00
C367   C     0.43860   0.41052   0.00592   0.00000  Uiso   1.00
C368   C     0.46305   0.38755   0.04438   0.00000  Uiso   1.00
C369   C     0.55139   0.61874   0.24299   0.00000  Uiso   1.00
C370   C     0.50038   0.50000   0.26050   0.00000  Uiso   1.00
C371   C     0.53695   0.61245   0.28896   0.00000  Uiso   1.00
C372   C     0.56140   0.58948   0.32741   0.00000  Uiso   1.00
C373   C     0.60072   0.57334   0.32026   0.00000  Uiso   1.00
C374   C     0.61644   0.58223   0.27569   0.00000  Uiso   1.00
C375   C     0.59231   0.60618   0.23782   0.00000  Uiso   1.00
C376   C     0.49989   0.50000   0.02172   0.00000  Uiso   1.00
C377   C     0.50011   0.50000   0.31162   0.00000  Uiso   1.00
C378   C     0.35439   0.45903   0.17708   0.00000  Uiso   1.00
C379   C     0.64561   0.54097   0.15625   0.00000  Uiso   1.00
C380   C     0.64561   0.45903   0.15625   0.00000  Uiso   1.00
H381   H     0.40460   0.42285   0.22695   0.00000  Uiso   1.00
H382   H     0.39481   0.61522   0.12873   0.00000  Uiso   1.00
H383   H     0.35276   0.57053   0.06260   0.00000  Uiso   1.00
H384   H     0.38089   0.55442   0.31729   0.00000  Uiso   1.00
H385   H     0.45021   0.58332   0.30427   0.00000  Uiso   1.00
H386   H     0.49347   0.62505   0.03935   0.00000  Uiso   1.00
H387   H     0.39481   0.38479   0.12873   0.00000  Uiso   1.00
H388   H     0.35276   0.42947   0.06260   0.00000  Uiso   1.00
H389   H     0.38089   0.44558   0.31729   0.00000  Uiso   1.00
H390   H     0.45021   0.41668   0.30427   0.00000  Uiso   1.00
H391   H     0.49347   0.37495   0.03935   0.00000  Uiso   1.00
H392   H     0.59540   0.57715   0.10638   0.00000  Uiso   1.00
H393   H     0.50653   0.62505   0.29398   0.00000  Uiso   1.00
H394   H     0.54979   0.58332   0.02906   0.00000  Uiso   1.00
H395   H     0.61911   0.55442   0.01605   0.00000  Uiso   1.00
H396   H     0.64724   0.57053   0.27073   0.00000  Uiso   1.00
H397   H     0.60519   0.61522   0.20460   0.00000  Uiso   1.00
H398   H     0.59540   0.42285   0.10638   0.00000  Uiso   1.00
H399   H     0.40460   0.57715   0.22695   0.00000  Uiso   1.00
H400   H     0.60519   0.38478   0.20460   0.00000  Uiso   1.00
H401   H     0.64724   0.42947   0.27073   0.00000  Uiso   1.00
H402   H     0.61911   0.44558   0.01605   0.00000  Uiso   1.00
H403   H     0.54979   0.41668   0.02906   0.00000  Uiso   1.00
H404   H     0.50653   0.37495   0.29398   0.00000  Uiso   1.00
N405   N     0.50000   0.61907   0.16667   0.00000  Uiso   1.00
N406   N     0.50000   0.38093   0.16667   0.00000  Uiso   1.00
O407   O     0.43892   0.53821   0.16666   0.00000  Uiso   1.00
O408   O     0.64537   0.61487   0.12280   0.00000  Uiso   1.00
O409   O     0.64537   0.38513   0.12280   0.00000  Uiso   1.00
O410   O     0.35463   0.61487   0.21053   0.00000  Uiso   1.00
O411   O     0.56108   0.46179   0.16667   0.00000  Uiso   1.00
O412   O     0.56108   0.53821   0.16667   0.00000  Uiso   1.00
O413   O     0.43892   0.46179   0.16666   0.00000  Uiso   1.00
O414   O     0.50000   0.53821   0.09511   0.00000  Uiso   1.00
O415   O     0.50000   0.46179   0.23822   0.00000  Uiso   1.00
O416   O     0.50000   0.53821   0.23822   0.00000  Uiso   1.00
O417   O     0.50000   0.46179   0.09511   0.00000  Uiso   1.00
O418   O     0.35463   0.38513   0.21053   0.00000  Uiso   1.00
Zn419  Zn    0.50000   0.55104   0.16667   0.00000  Uiso   1.00
Zn420  Zn    0.50000   0.44896   0.16667   0.00000  Uiso   1.00
C421   C     0.75382   0.50000   0.17187   0.00000  Uiso   1.00
C422   C     0.68772   0.54097   0.17708   0.00000  Uiso   1.00
C423   C     0.95710   0.50000   0.15442   0.00000  Uiso   1.00
C424   C     0.70956   0.50000   0.17892   0.00000  Uiso   1.00
C425   C     0.85842   0.35726   0.20257   0.00000  Uiso   1.00
C426   C     0.80825   0.64274   0.13077   0.00000  Uiso   1.00
C427   C     0.80825   0.35726   0.13077   0.00000  Uiso   1.00
C428   C     0.85842   0.64274   0.20257   0.00000  Uiso   1.00
C429   C     0.70692   0.42004   0.20642   0.00000  Uiso   1.00
C430   C     0.95975   0.57996   0.12691   0.00000  Uiso   1.00
C431   C     0.95975   0.42004   0.12691   0.00000  Uiso   1.00
C432   C     0.91284   0.50000   0.16146   0.00000  Uiso   1.00
C433   C     0.70692   0.57996   0.20642   0.00000  Uiso   1.00
C434   C     0.88472   0.38126   0.24300   0.00000  Uiso   1.00
C435   C     0.92564   0.39382   0.23782   0.00000  Uiso   1.00
C436   C     0.94977   0.41777   0.27569   0.00000  Uiso   1.00
C437   C     0.93405   0.42666   0.32026   0.00000  Uiso   1.00
C438   C     0.89473   0.41052   0.32741   0.00000  Uiso   1.00
C439   C     0.87028   0.38755   0.28896   0.00000  Uiso   1.00
C440   C     0.78195   0.61874   0.09034   0.00000  Uiso   1.00
C441   C     0.74102   0.60619   0.09551   0.00000  Uiso   1.00
C442   C     0.71689   0.58223   0.05764   0.00000  Uiso   1.00
C443   C     0.83295   0.50000   0.07283   0.00000  Uiso   1.00
C444   C     0.73261   0.57334   0.01308   0.00000  Uiso   1.00
C445   C     0.77193   0.58948   0.00592   0.00000  Uiso   1.00
C446   C     0.79639   0.61245   0.04438   0.00000  Uiso   1.00
C447   C     0.78195   0.38126   0.09034   0.00000  Uiso   1.00
C448   C     0.74102   0.39382   0.09551   0.00000  Uiso   1.00
C449   C     0.71689   0.41777   0.05764   0.00000  Uiso   1.00
C450   C     0.73261   0.42666   0.01308   0.00000  Uiso   1.00
C451   C     0.77193   0.41052   0.00592   0.00000  Uiso   1.00
C452   C     0.79639   0.38755   0.04438   0.00000  Uiso   1.00
C453   C     0.88472   0.61874   0.24299   0.00000  Uiso   1.00
C454   C     0.83372   0.50000   0.26050   0.00000  Uiso   1.00
C455   C     0.87028   0.61245   0.28896   0.00000  Uiso   1.00
C456   C     0.89473   0.58948   0.32741   0.00000  Uiso   1.00
C457   C     0.93405   0.57334   0.32026   0.00000  Uiso   1.00
C458   C     0.94977   0.58223   0.27569   0.00000  Uiso   1.00
C459   C     0.92564   0.60618   0.23782   0.00000  Uiso   1.00
C460   C     0.83323   0.50000   0.02172   0.00000  Uiso   1.00
C461   C     0.83344   0.50000   0.31162   0.00000  Uiso   1.00
C462   C     0.68772   0.45903   0.17708   0.00000  Uiso   1.00
C463   C     0.97895   0.54097   0.15625   0.00000  Uiso   1.00
C464   C     0.97895   0.45903   0.15625   0.00000  Uiso   1.00
H465   H     0.73794   0.42285   0.22695   0.00000  Uiso   1.00
H466   H     0.72814   0.61522   0.12873   0.00000  Uiso   1.00
H467   H     0.68610   0.57053   0.06260   0.00000  Uiso   1.00
H468   H     0.71422   0.55442   0.31729   0.00000  Uiso   1.00
H469   H     0.78354   0.58332   0.30427   0.00000  Uiso   1.00
H470   H     0.82681   0.62505   0.03935   0.00000  Uiso   1.00
H471   H     0.72814   0.38479   0.12873   0.00000  Uiso   1.00
H472   H     0.68610   0.42947   0.06260   0.00000  Uiso   1.00
H473   H     0.71422   0.44558   0.31729   0.00000  Uiso   1.00
H474   H     0.78354   0.41668   0.30427   0.00000  Uiso   1.00
H475   H     0.82681   0.37495   0.03935   0.00000  Uiso   1.00
H476   H     0.92873   0.57715   0.10638   0.00000  Uiso   1.00
H477   H     0.83986   0.62505   0.29398   0.00000  Uiso   1.00
H478   H     0.88313   0.58332   0.02906   0.00000  Uiso   1.00
H479   H     0.95245   0.55442   0.01605   0.00000  Uiso   1.00
H480   H     0.98057   0.57053   0.27073   0.00000  Uiso   1.00
H481   H     0.93853   0.61522   0.20460   0.00000  Uiso   1.00
H482   H     0.92873   0.42285   0.10638   0.00000  Uiso   1.00
H483   H     0.73794   0.57715   0.22695   0.00000  Uiso   1.00
H484   H     0.93853   0.38478   0.20460   0.00000  Uiso   1.00
H485   H     0.98057   0.42947   0.27073   0.00000  Uiso   1.00
H486   H     0.95245   0.44558   0.01605   0.00000  Uiso   1.00
H487   H     0.88313   0.41668   0.02906   0.00000  Uiso   1.00
H488   H     0.83986   0.37495   0.29398   0.00000  Uiso   1.00
N489   N     0.83333   0.61907   0.16667   0.00000  Uiso   1.00
N490   N     0.83333   0.38093   0.16667   0.00000  Uiso   1.00
O491   O     0.77226   0.53821   0.16666   0.00000  Uiso   1.00
O492   O     0.97870   0.61487   0.12280   0.00000  Uiso   1.00
O493   O     0.97870   0.38513   0.12280   0.00000  Uiso   1.00
O494   O     0.68797   0.61487   0.21053   0.00000  Uiso   1.00
O495   O     0.89441   0.46179   0.16667   0.00000  Uiso   1.00
O496   O     0.89441   0.53821   0.16667   0.00000  Uiso   1.00
O497   O     0.77226   0.46179   0.16666   0.00000  Uiso   1.00
O498   O     0.83334   0.53821   0.09511   0.00000  Uiso   1.00
O499   O     0.83333   0.46179   0.23822   0.00000  Uiso   1.00
O500   O     0.83333   0.53821   0.23822   0.00000  Uiso   1.00
O501   O     0.83334   0.46179   0.09511   0.00000  Uiso   1.00
O502   O     0.68797   0.38513   0.21053   0.00000  Uiso   1.00
Zn503  Zn    0.83333   0.55104   0.16667   0.00000  Uiso   1.00
Zn504  Zn    0.83333   0.44896   0.16667   0.00000  Uiso   1.00
C505   C     0.08716   0.83333   0.17187   0.00000  Uiso   1.00
C506   C     0.02105   0.87430   0.17708   0.00000  Uiso   1.00
C507   C     0.29044   0.83333   0.15442   0.00000  Uiso   1.00
C508   C     0.04290   0.83333   0.17892   0.00000  Uiso   1.00
C509   C     0.19175   0.69060   0.20257   0.00000  Uiso   1.00
C510   C     0.14158   0.97607   0.13077   0.00000  Uiso   1.00
C511   C     0.14158   0.69060   0.13077   0.00000  Uiso   1.00
C512   C     0.19175   0.97607   0.20257   0.00000  Uiso   1.00
C513   C     0.04025   0.75337   0.20642   0.00000  Uiso   1.00
C514   C     0.29308   0.91330   0.12691   0.00000  Uiso   1.00
C515   C     0.29308   0.75337   0.12691   0.00000  Uiso   1.00
C516   C     0.24618   0.83333   0.16146   0.00000  Uiso   1.00
C517   C     0.04025   0.91330   0.20642   0.00000  Uiso   1.00
C518   C     0.21806   0.71459   0.24300   0.00000  Uiso   1.00
C519   C     0.25898   0.72715   0.23782   0.00000  Uiso   1.00
C520   C     0.28311   0.75110   0.27569   0.00000  Uiso   1.00
C521   C     0.26739   0.76000   0.32026   0.00000  Uiso   1.00
C522   C     0.22807   0.74385   0.32741   0.00000  Uiso   1.00
C523   C     0.20361   0.72089   0.28896   0.00000  Uiso   1.00
C524   C     0.11528   0.95207   0.09034   0.00000  Uiso   1.00
C525   C     0.07436   0.93952   0.09551   0.00000  Uiso   1.00
C526   C     0.05023   0.91556   0.05764   0.00000  Uiso   1.00
C527   C     0.16628   0.83333   0.07283   0.00000  Uiso   1.00
C528   C     0.06595   0.90667   0.01308   0.00000  Uiso   1.00
C529   C     0.10527   0.92281   0.00592   0.00000  Uiso   1.00
C530   C     0.12972   0.94578   0.04438   0.00000  Uiso   1.00
C531   C     0.11528   0.71459   0.09034   0.00000  Uiso   1.00
C532   C     0.07436   0.72715   0.09551   0.00000  Uiso   1.00
C533   C     0.05023   0.75110   0.05764   0.00000  Uiso   1.00
C534   C     0.06595   0.76000   0.01308   0.00000  Uiso   1.00
C535   C     0.10527   0.74385   0.00592   0.00000  Uiso   1.00
C536   C     0.12972   0.72089   0.04438   0.00000  Uiso   1.00
C537   C     0.21806   0.95207   0.24299   0.00000  Uiso   1.00
C538   C     0.16705   0.83333   0.26050   0.00000  Uiso   1.00
C539   C     0.20361   0.94578   0.28896   0.00000  Uiso   1.00
C540   C     0.22807   0.92281   0.32741   0.00000  Uiso   1.00
C541   C     0.26739   0.90667   0.32026   0.00000  Uiso   1.00
C542   C     0.28311   0.91556   0.27569   0.00000  Uiso   1.00
C543   C     0.25898   0.93952   0.23782   0.00000  Uiso   1.00
C544   C     0.16656   0.83333   0.02172   0.00000  Uiso   1.00
C545   C     0.16678   0.83333   0.31162   0.00000  Uiso   1.00
C546   C     0.02105   0.79236   0.17708   0.00000  Uiso   1.00
C547   C     0.31228   0.87430   0.15625   0.00000  Uiso   1.00
C548   C     0.31228   0.79236   0.15625   0.00000  Uiso   1.00
H549   H     0.07127   0.75619   0.22695   0.00000  Uiso   1.00
H550   H     0.06147   0.94855   0.12873   0.00000  Uiso   1.00
H551   H     0.01943   0.90386   0.06260   0.00000  Uiso   1.00
H552   H     0.04755   0.88776   0.31729   0.00000  Uiso   1.00
H553   H     0.11687   0.91666   0.30427   0.00000  Uiso   1.00
H554   H     0.16014   0.95838   0.03935   0.00000  Uiso   1.00
H555   H     0.06147   0.71812   0.12873   0.00000  Uiso   1.00
H556   H     0.01943   0.76281   0.06260   0.00000  Uiso   1.00
H557   H     0.04755   0.77891   0.31729   0.00000  Uiso   1.00
H558   H     0.11687   0.75001   0.30427   0.00000  Uiso   1.00
H559   H     0.16014   0.70829   0.03935   0.00000  Uiso   1.00
H560   H     0.26206   0.91048   0.10638   0.00000  Uiso   1.00
H561   H     0.17319   0.95838   0.29398   0.00000  Uiso   1.00
H562   H     0.21646   0.91666   0.02906   0.00000  Uiso   1.00
H563   H     0.28578   0.88775   0.01605   0.00000  Uiso   1.00
H564   H     0.31390   0.90386   0.27073   0.00000  Uiso   1.00
H565   H     0.27186   0.94855   0.20460   0.00000  Uiso   1.00
H566   H     0.26206   0.75619   0.10638   0.00000  Uiso   1.00
H567   H     0.07127   0.91048   0.22695   0.00000  Uiso   1.00
H568   H     0.27186   0.71812   0.20460   0.00000  Uiso   1.00
H569   H     0.31390   0.76281   0.27073   0.00000  Uiso   1.00
H570   H     0.28578   0.77891   0.01605   0.00000  Uiso   1.00
H571   H     0.21646   0.75001   0.02906   0.00000  Uiso   1.00
H572   H     0.17319   0.70829   0.29398   0.00000  Uiso   1.00
N573   N     0.16667   0.95240   0.16667   0.00000  Uiso   1.00
N574   N     0.16667   0.71427   0.16667   0.00000  Uiso   1.00
O575   O     0.10559   0.87154   0.16666   0.00000  Uiso   1.00
O576   O     0.31203   0.94820   0.12280   0.00000  Uiso   1.00
O577   O     0.31203   0.71847   0.12280   0.00000  Uiso   1.00
O578   O     0.02130   0.94820   0.21053   0.00000  Uiso   1.00
O579   O     0.22774   0.79513   0.16667   0.00000  Uiso   1.00
O580   O     0.22774   0.87154   0.16667   0.00000  Uiso   1.00
O581   O     0.10559   0.79513   0.16666   0.00000  Uiso   1.00
O582   O     0.16667   0.87155   0.09511   0.00000  Uiso   1.00
O583   O     0.16666   0.79512   0.23822   0.00000  Uiso   1.00
O584   O     0.16666   0.87155   0.23822   0.00000  Uiso   1.00
O585   O     0.16667   0.79512   0.09511   0.00000  Uiso   1.00
O586   O     0.02130   0.71847   0.21053   0.00000  Uiso   1.00
Zn587  Zn    0.16667   0.88437   0.16667   0.00000  Uiso   1.00
Zn588  Zn    0.16667   0.78229   0.16667   0.00000  Uiso   1.00
C589   C     0.42049   0.83333   0.17187   0.00000  Uiso   1.00
C590   C     0.35439   0.87430   0.17708   0.00000  Uiso   1.00
C591   C     0.62377   0.83333   0.15442   0.00000  Uiso   1.00
C592   C     0.37623   0.83333   0.17892   0.00000  Uiso   1.00
C593   C     0.52508   0.69060   0.20257   0.00000  Uiso   1.00
C594   C     0.47492   0.97607   0.13077   0.00000  Uiso   1.00
C595   C     0.47492   0.69060   0.13077   0.00000  Uiso   1.00
C596   C     0.52508   0.97607   0.20257   0.00000  Uiso   1.00
C597   C     0.37358   0.75337   0.20642   0.00000  Uiso   1.00
C598   C     0.62642   0.91330   0.12691   0.00000  Uiso   1.00
C599   C     0.62642   0.75337   0.12691   0.00000  Uiso   1.00
C600   C     0.57951   0.83333   0.16146   0.00000  Uiso   1.00
C601   C     0.37358   0.91330   0.20642   0.00000  Uiso   1.00
C602   C     0.55139   0.71459   0.24300   0.00000  Uiso   1.00
C603   C     0.59231   0.72715   0.23782   0.00000  Uiso   1.00
C604   C     0.61644   0.75110   0.27569   0.00000  Uiso   1.00
C605   C     0.60072   0.76000   0.32026   0.00000  Uiso   1.00
C606   C     0.56140   0.74385   0.32741   0.00000  Uiso   1.00
C607   C     0.53695   0.72089   0.28896   0.00000  Uiso   1.00
C608   C     0.44861   0.95207   0.09034   0.00000  Uiso   1.00
C609   C     0.40769   0.93952   0.09551   0.00000  Uiso   1.00
C610   C     0.38356   0.91556   0.05764   0.00000  Uiso   1.00
C611   C     0.49962   0.83333   0.07283   0.00000  Uiso   1.00
C612   C     0.39928   0.90667   0.01308   0.00000  Uiso   1.00
C613   C     0.43860   0.92281   0.00592   0.00000  Uiso   1.00
C614   C     0.46305   0.94578   0.04438   0.00000  Uiso   1.00
C615   C     0.44861   0.71459   0.09034   0.00000  Uiso   1.00
C616   C     0.40769   0.72715   0.09551   0.00000  Uiso   1.00
C617   C     0.38356   0.75110   0.05764   0.00000  Uiso   1.00
C618   C     0.39928   0.76000   0.01308   0.00000  Uiso   1.00
C619   C     0.43860   0.74385   0.00592   0.00000  Uiso   1.00
C620   C     0.46305   0.72089   0.04438   0.00000  Uiso   1.00
C621   C     0.55139   0.95207   0.24299   0.00000  Uiso   1.00
C622   C     0.50038   0.83333   0.26050   0.00000  Uiso   1.00
C623   C     0.53695   0.94578   0.28896   0.00000  Uiso   1.00
C624   C     0.56140   0.92281   0.32741   0.00000  Uiso   1.00
C625   C     0.60072   0.90667   0.32026   0.00000  Uiso   1.00
C626   C     0.61644   0.91556   0.27569   0.00000  Uiso   1.00
C627   C     0.59231   0.93952   0.23782   0.00000  Uiso   1.00
C628   C     0.49989   0.83333   0.02172   0.00000  Uiso   1.00
C629   C     0.50011   0.83333   0.31162   0.00000  Uiso   1.00
C630   C     0.35439   0.79236   0.17708   0.00000  Uiso   1.00
C631   C     0.64561   0.87430   0.15625   0.00000  Uiso   1.00
C632   C     0.64561   0.79236   0.15625   0.00000  Uiso   1.00
H633   H     0.40460   0.75619   0.22695   0.00000  Uiso   1.00
H634   H     0.39481   0.94855   0.12873   0.00000  Uiso   1.00
H635   H     0.35276   0.90386   0.06260   0.00000  Uiso   1.00
H636   H     0.38089   0.88776   0.31729   0.00000  Uiso   1.00
H637   H     0.45021   0.91666   0.30427   0.00000  Uiso   1.00
H638   H     0.49347   0.95838   0.03935   0.00000  Uiso   1.00
H639   H     0.39481   0.71812   0.12873   0.00000  Uiso   1.00
H640   H     0.35276   0.76281   0.06260   0.00000  Uiso   1.00
H641   H     0.38089   0.77891   0.31729   0.00000  Uiso   1.00
H642   H     0.45021   0.75001   0.30427   0.00000  Uiso   1.00
H643   H     0.49347   0.70829   0.03935   0.00000  Uiso   1.00
H644   H     0.59540   0.91048   0.10638   0.00000  Uiso   1.00
H645   H     0.50653   0.95838   0.29398   0.00000  Uiso   1.00
H646   H     0.54979   0.91666   0.02906   0.00000  Uiso   1.00
H647   H     0.61911   0.88775   0.01605   0.00000  Uiso   1.00
H648   H     0.64724   0.90386   0.27073   0.00000  Uiso   1.00
H649   H     0.60519   0.94855   0.20460   0.00000  Uiso   1.00
H650   H     0.59540   0.75619   0.10638   0.00000  Uiso   1.00
H651   H     0.40460   0.91048   0.22695   0.00000  Uiso   1.00
H652   H     0.60519   0.71812   0.20460   0.00000  Uiso   1.00
H653   H     0.64724   0.76281   0.27073   0.00000  Uiso   1.00
H654   H     0.61911   0.77891   0.01605   0.00000  Uiso   1.00
H655   H     0.54979   0.75001   0.02906   0.00000  Uiso   1.00
H656   H     0.50653   0.70829   0.29398   0.00000  Uiso   1.00
N657   N     0.50000   0.95240   0.16667   0.00000  Uiso   1.00
N658   N     0.50000   0.71427   0.16667   0.00000  Uiso   1.00
O659   O     0.43892   0.87154   0.16666   0.00000  Uiso   1.00
O660   O     0.64537   0.94820   0.12280   0.00000  Uiso   1.00
O661   O     0.64537   0.71847   0.12280   0.00000  Uiso   1.00
O662   O     0.35463   0.94820   0.21053   0.00000  Uiso   1.00
O663   O     0.56108   0.79513   0.16667   0.00000  Uiso   1.00
O664   O     0.56108   0.87154   0.16667   0.00000  Uiso   1.00
O665   O     0.43892   0.79513   0.16666   0.00000  Uiso   1.00
O666   O     0.50000   0.87155   0.09511   0.00000  Uiso   1.00
O667   O     0.50000   0.79512   0.23822   0.00000  Uiso   1.00
O668   O     0.50000   0.87155   0.23822   0.00000  Uiso   1.00
O669   O     0.50000   0.79512   0.09511   0.00000  Uiso   1.00
O670   O     0.35463   0.71847   0.21053   0.00000  Uiso   1.00
Zn671  Zn    0.50000   0.88437   0.16667   0.00000  Uiso   1.00
Zn672  Zn    0.50000   0.78229   0.16667   0.00000  Uiso   1.00
C673   C     0.75382   0.83333   0.17187   0.00000  Uiso   1.00
C674   C     0.68772   0.87430   0.17708   0.00000  Uiso   1.00
C675   C     0.95710   0.83333   0.15442   0.00000  Uiso   1.00
C676   C     0.70956   0.83333   0.17892   0.00000  Uiso   1.00
C677   C     0.85842   0.69060   0.20257   0.00000  Uiso   1.00
C678   C     0.80825   0.97607   0.13077   0.00000  Uiso   1.00
C679   C     0.80825   0.69060   0.13077   0.00000  Uiso   1.00
C680   C     0.85842   0.97607   0.20257   0.00000  Uiso   1.00
C681   C     0.70692   0.75337   0.20642   0.00000  Uiso   1.00
C682   C     0.95975   0.91330   0.12691   0.00000  Uiso   1.00
C683   C     0.95975   0.75337   0.12691   0.00000  Uiso   1.00
C684   C     0.91284   0.83333   0.16146   0.00000  Uiso   1.00
C685   C     0.70692   0.91330   0.20642   0.00000  Uiso   1.00
C686   C     0.88472   0.71459   0.24300   0.00000  Uiso   1.00
C687   C     0.92564   0.72715   0.23782   0.00000  Uiso   1.00
C688   C     0.94977   0.75110   0.27569   0.00000  Uiso   1.00
C689   C     0.93405   0.76000   0.32026   0.00000  Uiso   1.00
C690   C     0.89473   0.74385   0.32741   0.00000  Uiso   1.00
C691   C     0.87028   0.72089   0.28896   0.00000  Uiso   1.00
C692   C     0.78195   0.95207   0.09034   0.00000  Uiso   1.00
C693   C     0.74102   0.93952   0.09551   0.00000  Uiso   1.00
C694   C     0.71689   0.91556   0.05764   0.00000  Uiso   1.00
C695   C     0.83295   0.83333   0.07283   0.00000  Uiso   1.00
C696   C     0.73261   0.90667   0.01308   0.00000  Uiso   1.00
C697   C     0.77193   0.92281   0.00592   0.00000  Uiso   1.00
C698   C     0.79639   0.94578   0.04438   0.00000  Uiso   1.00
C699   C     0.78195   0.71459   0.09034   0.00000  Uiso   1.00
C700   C     0.74102   0.72715   0.09551   0.00000  Uiso   1.00
C701   C     0.71689   0.75110   0.05764   0.00000  Uiso   1.00
C702   C     0.73261   0.76000   0.01308   0.00000  Uiso   1.00
C703   C     0.77193   0.74385   0.00592   0.00000  Uiso   1.00
C704   C     0.79639   0.72089   0.04438   0.00000  Uiso   1.00
C705   C     0.88472   0.95207   0.24299   0.00000  Uiso   1.00
C706   C     0.83372   0.83333   0.26050   0.00000  Uiso   1.00
C707   C     0.87028   0.94578   0.28896   0.00000  Uiso   1.00
C708   C     0.89473   0.92281   0.32741   0.00000  Uiso   1.00
C709   C     0.93405   0.90667   0.32026   0.00000  Uiso   1.00
C710   C     0.94977   0.91556   0.27569   0.00000  Uiso   1.00
C711   C     0.92564   0.93952   0.23782   0.00000  Uiso   1.00
C712   C     0.83323   0.83333   0.02172   0.00000  Uiso   1.00
C713   C     0.83344   0.83333   0.31162   0.00000  Uiso   1.00
C714   C     0.68772   0.79236   0.17708   0.00000  Uiso   1.00
C715   C     0.97895   0.87430   0.15625   0.00000  Uiso   1.00
C716   C     0.97895   0.79236   0.15625   0.00000  Uiso   1.00
H717   H     0.73794   0.75619   0.22695   0.00000  Uiso   1.00
H718   H     0.72814   0.94855   0.12873   0.00000  Uiso   1.00
H719   H     0.68610   0.90386   0.06260   0.00000  Uiso   1.00
H720   H     0.71422   0.88776   0.31729   0.00000  Uiso   1.00
H721   H     0.78354   0.91666   0.30427   0.00000  Uiso   1.00
H722   H     0.82681   0.95838   0.03935   0.00000  Uiso   1.00
H723   H     0.72814   0.71812   0.12873   0.00000  Uiso   1.00
H724   H     0.68610   0.76281   0.06260   0.00000  Uiso   1.00
H725   H     0.71422   0.77891   0.31729   0.00000  Uiso   1.00
H726   H     0.78354   0.75001   0.30427   0.00000  Uiso   1.00
H727   H     0.82681   0.70829   0.03935   0.00000  Uiso   1.00
H728   H     0.92873   0.91048   0.10638   0.00000  Uiso   1.00
H729   H     0.83986   0.95838   0.29398   0.00000  Uiso   1.00
H730   H     0.88313   0.91666   0.02906   0.00000  Uiso   1.00
H731   H     0.95245   0.88775   0.01605   0.00000  Uiso   1.00
H732   H     0.98057   0.90386   0.27073   0.00000  Uiso   1.00
H733   H     0.93853   0.94855   0.20460   0.00000  Uiso   1.00
H734   H     0.92873   0.75619   0.10638   0.00000  Uiso   1.00
H735   H     0.73794   0.91048   0.22695   0.00000  Uiso   1.00
H736   H     0.93853   0.71812   0.20460   0.00000  Uiso   1.00
H737   H     0.98057   0.76281   0.27073   0.00000  Uiso   1.00
H738   H     0.95245   0.77891   0.01605   0.00000  Uiso   1.00
H739   H     0.88313   0.75001   0.02906   0.00000  Uiso   1.00
H740   H     0.83986   0.70829   0.29398   0.00000  Uiso   1.00
N741   N     0.83333   0.95240   0.16667   0.00000  Uiso   1.00
N742   N     0.83333   0.71427   0.16667   0.00000  Uiso   1.00
O743   O     0.77226   0.87154   0.16666   0.00000  Uiso   1.00
O744   O     0.97870   0.94820   0.12280   0.00000  Uiso   1.00
O745   O     0.97870   0.71847   0.12280   0.00000  Uiso   1.00
O746   O     0.68797   0.94820   0.21053   0.00000  Uiso   1.00
O747   O     0.89441   0.79513   0.16667   0.00000  Uiso   1.00
O748   O     0.89441   0.87154   0.16667   0.00000  Uiso   1.00
O749   O     0.77226   0.79513   0.16666   0.00000  Uiso   1.00
O750   O     0.83334   0.87155   0.09511   0.00000  Uiso   1.00
O751   O     0.83333   0.79512   0.23822   0.00000  Uiso   1.00
O752   O     0.83333   0.87155   0.23822   0.00000  Uiso   1.00
O753   O     0.83334   0.79512   0.09511   0.00000  Uiso   1.00
O754   O     0.68797   0.71847   0.21053   0.00000  Uiso   1.00
Zn755  Zn    0.83333   0.88437   0.16667   0.00000  Uiso   1.00
Zn756  Zn    0.83333   0.78229   0.16667   0.00000  Uiso   1.00
C757   C     0.08716   0.16667   0.50521   0.00000  Uiso   1.00
C758   C     0.02105   0.20764   0.51042   0.00000  Uiso   1.00
C759   C     0.29044   0.16667   0.48775   0.00000  Uiso   1.00
C760   C     0.04290   0.16667   0.51225   0.00000  Uiso   1.00
C761   C     0.19175   0.02393   0.53590   0.00000  Uiso   1.00
C762   C     0.14158   0.30940   0.46410   0.00000  Uiso   1.00
C763   C     0.14158   0.02393   0.46410   0.00000  Uiso   1.00
C764   C     0.19175   0.30940   0.53590   0.00000  Uiso   1.00
C765   C     0.04025   0.08670   0.53975   0.00000  Uiso   1.00
C766   C     0.29308   0.24663   0.46025   0.00000  Uiso   1.00
C767   C     0.29308   0.08670   0.46025   0.00000  Uiso   1.00
C768   C     0.24618   0.16667   0.49479   0.00000  Uiso   1.00
C769   C     0.04025   0.24663   0.53975   0.00000  Uiso   1.00
C770   C     0.21806   0.04793   0.57633   0.00000  Uiso   1.00
C771   C     0.25898   0.06048   0.57115   0.00000  Uiso   1.00
C772   C     0.28311   0.08444   0.60902   0.00000  Uiso   1.00
C773   C     0.26739   0.09333   0.65359   0.00000  Uiso   1.00
C774   C     0.22807   0.07719   0.66074   0.00000  Uiso   1.00
C775   C     0.20361   0.05422   0.62229   0.00000  Uiso   1.00
C776   C     0.11528   0.28541   0.42367   0.00000  Uiso   1.00
C777   C     0.07436   0.27285   0.42885   0.00000  Uiso   1.00
C778   C     0.05023   0.24890   0.39098   0.00000  Uiso   1.00
C779   C     0.16628   0.16667   0.40616   0.00000  Uiso   1.00
C780   C     0.06595   0.24001   0.34641   0.00000  Uiso   1.00
C781   C     0.10527   0.25615   0.33926   0.00000  Uiso   1.00
C782   C     0.12972   0.27911   0.37771   0.00000  Uiso   1.00
C783   C     0.11528   0.04793   0.42367   0.00000  Uiso   1.00
C784   C     0.07436   0.06048   0.42885   0.00000  Uiso   1.00
C785   C     0.05023   0.08444   0.39098   0.00000  Uiso   1.00
C786   C     0.06595   0.09333   0.34641   0.00000  Uiso   1.00
C787   C     0.10527   0.07719   0.33926   0.00000  Uiso   1.00
C788   C     0.12972   0.05422   0.37771   0.00000  Uiso   1.00
C789   C     0.21806   0.28541   0.57633   0.00000  Uiso   1.00
C790   C     0.16705   0.16667   0.59384   0.00000  Uiso   1.00
C791   C     0.20361   0.27911   0.62229   0.00000  Uiso   1.00
C792   C     0.22807   0.25615   0.66074   0.00000  Uiso   1.00
C793   C     0.26739   0.24001   0.65359   0.00000  Uiso   1.00
C794   C     0.28311   0.24890   0.60902   0.00000  Uiso   1.00
C795   C     0.25898   0.27285   0.57115   0.00000  Uiso   1.00
C796   C     0.16656   0.16667   0.35505   0.00000  Uiso   1.00
C797   C     0.16678   0.16667   0.64495   0.00000  Uiso   1.00
C798   C     0.02105   0.12570   0.51042   0.00000  Uiso   1.00
C799   C     0.31228   0.20764   0.48958   0.00000  Uiso   1.00
C800   C     0.31228   0.12570   0.48958   0.00000  Uiso   1.00
H801   H     0.07127   0.08952   0.56029   0.00000  Uiso   1.00
H802   H     0.06147   0.28188   0.46206   0.00000  Uiso   1.00
H803   H     0.01943   0.23719   0.39593   0.00000  Uiso   1.00
H804   H     0.04755   0.22109   0.65062   0.00000  Uiso   1.00
H805   H     0.11687   0.24999   0.63761   0.00000  Uiso   1.00
H806   H     0.16014   0.29172   0.37268   0.00000  Uiso   1.00
H807   H     0.06147   0.05145   0.46206   0.00000  Uiso   1.00
H808   H     0.01943   0.09614   0.39593   0.00000  Uiso   1.00
H809   H     0.04755   0.11225   0.65062   0.00000  Uiso   1.00
H810   H     0.11687   0.08334   0.63761   0.00000  Uiso   1.00
H811   H     0.16014   0.04162   0.37268   0.00000  Uiso   1.00
H812   H     0.26206   0.24381   0.43971   0.00000  Uiso   1.00
H813   H     0.17319   0.29172   0.62732   0.00000  Uiso   1.00
H814   H     0.21646   0.24999   0.36239   0.00000  Uiso   1.00
H815   H     0.28578   0.22109   0.34938   0.00000  Uiso   1.00
H816   H     0.31390   0.23719   0.60407   0.00000  Uiso   1.00
H817   H     0.27186   0.28188   0.53794   0.00000  Uiso   1.00
H818   H     0.26206   0.08952   0.43971   0.00000  Uiso   1.00
H819   H     0.07127   0.24381   0.56029   0.00000  Uiso   1.00
H820   H     0.27186   0.05145   0.53794   0.00000  Uiso   1.00
H821   H     0.31390   0.09614   0.60407   0.00000  Uiso   1.00
H822   H     0.28578   0.11225   0.34938   0.00000  Uiso   1.00
H823   H     0.21646   0.08334   0.36239   0.00000  Uiso   1.00
H824   H     0.17319   0.04162   0.62732   0.00000  Uiso   1.00
N825   N     0.16667   0.28573   0.50000   0.00000  Uiso   1.00
N826   N     0.16667   0.04760   0.50000   0.00000  Uiso   1.00
O827   O     0.10559   0.20487   0.50000   0.00000  Uiso   1.00
O828   O     0.31203   0.28153   0.45614   0.00000  Uiso   1.00
O829   O     0.31203   0.05180   0.45614   0.00000  Uiso   1.00
O830   O     0.02130   0.28153   0.54386   0.00000  Uiso   1.00
O831   O     0.22774   0.12846   0.50000   0.00000  Uiso   1.00
O832   O     0.22774   0.20487   0.50000   0.00000  Uiso   1.00
O833   O     0.10559   0.12846   0.50000   0.00000  Uiso   1.00
O834   O     0.16667   0.20488   0.42845   0.00000  Uiso   1.00
O835   O     0.16666   0.12845   0.57155   0.00000  Uiso   1.00
O836   O     0.16666   0.20488   0.57155   0.00000  Uiso   1.00
O837   O     0.16667   0.12845   0.42845   0.00000  Uiso   1.00
O838   O     0.02130   0.05180   0.54386   0.00000  Uiso   1.00
Zn839  Zn    0.16667   0.21771   0.50000   0.00000  Uiso   1.00
Zn840  Zn    0.16667   0.11563   0.50000   0.00000  Uiso   1.00
C841   C     0.42049   0.16667   0.50521   0.00000  Uiso   1.00
C842   C     0.35439   0.20764   0.51042   0.00000  Uiso   1.00
C843   C     0.62377   0.16667   0.48775   0.00000  Uiso   1.00
C844   C     0.37623   0.16667   0.51225   0.00000  Uiso   1.00
C845   C     0.52508   0.02393   0.53590   0.00000  Uiso   1.00
C846   C     0.47492   0.30940   0.46410   0.00000  Uiso   1.00
C847   C     0.47492   0.02393   0.46410   0.00000  Uiso   1.00
C848   C     0.52508   0.30940   0.53590   0.00000  Uiso   1.00
C849   C     0.37358   0.08670   0.53975   0.00000  Uiso   1.00
C850   C     0.62642   0.24663   0.46025   0.00000  Uiso   1.00
C851   C     0.62642   0.08670   0.46025   0.00000  Uiso   1.00
C852   C     0.57951   0.16667   0.49479   0.00000  Uiso   1.00
C853   C     0.37358   0.24663   0.53975   0.00000  Uiso   1.00
C854   C     0.55139   0.04793   0.57633   0.00000  Uiso   1.00
C855   C     0.59231   0.06048   0.57115   0.00000  Uiso   1.00
C856   C     0.61644   0.08444   0.60902   0.00000  Uiso   1.00
C857   C     0.60072   0.09333   0.65359   0.00000  Uiso   1.00
C858   C     0.56140   0.07719   0.66074   0.00000  Uiso   1.00
C859   C     0.53695   0.05422   0.62229   0.00000  Uiso   1.00
C860   C     0.44861   0.28541   0.42367   0.00000  Uiso   1.00
C861   C     0.40769   0.27285   0.42885   0.00000  Uiso   1.00
C862   C     0.38356   0.24890   0.39098   0.00000  Uiso   1.00
C863   C     0.49962   0.16667   0.40616   0.00000  Uiso   1.00
C864   C     0.39928   0.24001   0.34641   0.00000  Uiso   1.00
C865   C     0.43860   0.25615   0.33926   0.00000  Uiso   1.00
C866   C     0.46305   0.27911   0.37771   0.00000  Uiso   1.00
C867   C     0.44861   0.04793   0.42367   0.00000  Uiso   1.00
C868   C     0.40769   0.06048   0.42885   0.00000  Uiso   1.00
C869   C     0.38356   0.08444   0.39098   0.00000  Uiso   1.00
C870   C     0.39928   0.09333   0.34641   0.00000  Uiso   1.00
C871   C     0.43860   0.07719   0.33926   0.00000  Uiso   1.00
C872   C     0.46305   0.05422   0.37771   0.00000  Uiso   1.00
C873   C     0.55139   0.28541   0.57633   0.00000  Uiso   1.00
C874   C     0.50038   0.16667   0.59384   0.00000  Uiso   1.00
C875   C     0.53695   0.27911   0.62229   0.00000  Uiso   1.00
C876   C     0.56140   0.25615   0.66074   0.00000  Uiso   1.00
C877   C     0.60072   0.24001   0.65359   0.00000  Uiso   1.00
C878   C     0.61644   0.24890   0.60902   0.00000  Uiso   1.00
C879   C     0.59231   0.27285   0.57115   0.00000  Uiso   1.00
C880   C     0.49989   0.16667   0.35505   0.00000  Uiso   1.00
C881   C     0.50011   0.16667   0.64495   0.00000  Uiso   1.00
C882   C     0.35439   0.12570   0.51042   0.00000  Uiso   1.00
C883   C     0.64561   0.20764   0.48958   0.00000  Uiso   1.00
C884   C     0.64561   0.12570   0.48958   0.00000  Uiso   1.00
H885   H     0.40460   0.08952   0.56029   0.00000  Uiso   1.00
H886   H     0.39481   0.28188   0.46206   0.00000  Uiso   1.00
H887   H     0.35276   0.23719   0.39593   0.00000  Uiso   1.00
H888   H     0.38089   0.22109   0.65062   0.00000  Uiso   1.00
H889   H     0.45021   0.24999   0.63761   0.00000  Uiso   1.00
H890   H     0.49347   0.29172   0.37268   0.00000  Uiso   1.00
H891   H     0.39481   0.05145   0.46206   0.00000  Uiso   1.00
H892   H     0.35276   0.09614   0.39593   0.00000  Uiso   1.00
H893   H     0.38089   0.11225   0.65062   0.00000  Uiso   1.00
H894   H     0.45021   0.08334   0.63761   0.00000  Uiso   1.00
H895   H     0.49347   0.04162   0.37268   0.00000  Uiso   1.00
H896   H     0.59540   0.24381   0.43971   0.00000  Uiso   1.00
H897   H     0.50653   0.29172   0.62732   0.00000  Uiso   1.00
H898   H     0.54979   0.24999   0.36239   0.00000  Uiso   1.00
H899   H     0.61911   0.22109   0.34938   0.00000  Uiso   1.00
H900   H     0.64724   0.23719   0.60407   0.00000  Uiso   1.00
H901   H     0.60519   0.28188   0.53794   0.00000  Uiso   1.00
H902   H     0.59540   0.08952   0.43971   0.00000  Uiso   1.00
H903   H     0.40460   0.24381   0.56029   0.00000  Uiso   1.00
H904   H     0.60519   0.05145   0.53794   0.00000  Uiso   1.00
H905   H     0.64724   0.09614   0.60407   0.00000  Uiso   1.00
H906   H     0.61911   0.11225   0.34938   0.00000  Uiso   1.00
H907   H     0.54979   0.08334   0.36239   0.00000  Uiso   1.00
H908   H     0.50653   0.04162   0.62732   0.00000  Uiso   1.00
N909   N     0.50000   0.28573   0.50000   0.00000  Uiso   1.00
N910   N     0.50000   0.04760   0.50000   0.00000  Uiso   1.00
O911   O     0.43892   0.20487   0.50000   0.00000  Uiso   1.00
O912   O     0.64537   0.28153   0.45614   0.00000  Uiso   1.00
O913   O     0.64537   0.05180   0.45614   0.00000  Uiso   1.00
O914   O     0.35463   0.28153   0.54386   0.00000  Uiso   1.00
O915   O     0.56108   0.12846   0.50000   0.00000  Uiso   1.00
O916   O     0.56108   0.20487   0.50000   0.00000  Uiso   1.00
O917   O     0.43892   0.12846   0.50000   0.00000  Uiso   1.00
O918   O     0.50000   0.20488   0.42845   0.00000  Uiso   1.00
O919   O     0.50000   0.12845   0.57155   0.00000  Uiso   1.00
O920   O     0.50000   0.20488   0.57155   0.00000  Uiso   1.00
O921   O     0.50000   0.12845   0.42845   0.00000  Uiso   1.00
O922   O     0.35463   0.05180   0.54386   0.00000  Uiso   1.00
Zn923  Zn    0.50000   0.21771   0.50000   0.00000  Uiso   1.00
Zn924  Zn    0.50000   0.11563   0.50000   0.00000  Uiso   1.00
C925   C     0.75382   0.16667   0.50521   0.00000  Uiso   1.00
C926   C     0.68772   0.20764   0.51042   0.00000  Uiso   1.00
C927   C     0.95710   0.16667   0.48775   0.00000  Uiso   1.00
C928   C     0.70956   0.16667   0.51225   0.00000  Uiso   1.00
C929   C     0.85842   0.02393   0.53590   0.00000  Uiso   1.00
C930   C     0.80825   0.30940   0.46410   0.00000  Uiso   1.00
C931   C     0.80825   0.02393   0.46410   0.00000  Uiso   1.00
C932   C     0.85842   0.30940   0.53590   0.00000  Uiso   1.00
C933   C     0.70692   0.08670   0.53975   0.00000  Uiso   1.00
C934   C     0.95975   0.24663   0.46025   0.00000  Uiso   1.00
C935   C     0.95975   0.08670   0.46025   0.00000  Uiso   1.00
C936   C     0.91284   0.16667   0.49479   0.00000  Uiso   1.00
C937   C     0.70692   0.24663   0.53975   0.00000  Uiso   1.00
C938   C     0.88472   0.04793   0.57633   0.00000  Uiso   1.00
C939   C     0.92564   0.06048   0.57115   0.00000  Uiso   1.00
C940   C     0.94977   0.08444   0.60902   0.00000  Uiso   1.00
C941   C     0.93405   0.09333   0.65359   0.00000  Uiso   1.00
C942   C     0.89473   0.07719   0.66074   0.00000  Uiso   1.00
C943   C     0.87028   0.05422   0.62229   0.00000  Uiso   1.00
C944   C     0.78195   0.28541   0.42367   0.00000  Uiso   1.00
C945   C     0.74102   0.27285   0.42885   0.00000  Uiso   1.00
C946   C     0.71689   0.24890   0.39098   0.00000  Uiso   1.00
C947   C     0.83295   0.16667   0.40616   0.00000  Uiso   1.00
C948   C     0.73261   0.24001   0.34641   0.00000  Uiso   1.00
C949   C     0.77193   0.25615   0.33926   0.00000  Uiso   1.00
C950   C     0.79639   0.27911   0.37771   0.00000  Uiso   1.00
C951   C     0.78195   0.04793   0.42367   0.00000  Uiso   1.00
C952   C     0.74102   0.06048   0.42885   0.00000  Uiso   1.00
C953   C     0.71689   0.08444   0.39098   0.00000  Uiso   1.00
C954   C     0.73261   0.09333   0.34641   0.00000  Uiso   1.00
C955   C     0.77193   0.07719   0.33926   0.00000  Uiso   1.00
C956   C     0.79639   0.05422   0.37771   0.00000  Uiso   1.00
C957   C     0.88472   0.28541   0.57633   0.00000  Uiso   1.00
C958   C     0.83372   0.16667   0.59384   0.00000  Uiso   1.00
C959   C     0.87028   0.27911   0.62229   0.00000  Uiso   1.00
C960   C     0.89473   0.25615   0.66074   0.00000  Uiso   1.00
C961   C     0.93405   0.24001   0.65359   0.00000  Uiso   1.00
C962   C     0.94977   0.24890   0.60902   0.00000  Uiso   1.00
C963   C     0.92564   0.27285   0.57115   0.00000  Uiso   1.00
C964   C     0.83323   0.16667   0.35505   0.00000  Uiso   1.00
C965   C     0.83344   0.16667   0.64495   0.00000  Uiso   1.00
C966   C     0.68772   0.12570   0.51042   0.00000  Uiso   1.00
C967   C     0.97895   0.20764   0.48958   0.00000  Uiso   1.00
C968   C     0.97895   0.12570   0.48958   0.00000  Uiso   1.00
H969   H     0.73794   0.08952   0.56029   0.00000  Uiso   1.00
H970   H     0.72814   0.28188   0.46206   0.00000  Uiso   1.00
H971   H     0.68610   0.23719   0.39593   0.00000  Uiso   1.00
H972   H     0.71422   0.22109   0.65062   0.00000  Uiso   1.00
H973   H     0.78354   0.24999   0.63761   0.00000  Uiso   1.00
H974   H     0.82681   0.29172   0.37268   0.00000  Uiso   1.00
H975   H     0.72814   0.05145   0.46206   0.00000  Uiso   1.00
H976   H     0.68610   0.09614   0.39593   0.00000  Uiso   1.00
H977   H     0.71422   0.11225   0.65062   0.00000  Uiso   1.00
H978   H     0.78354   0.08334   0.63761   0.00000  Uiso   1.00
H979   H     0.82681   0.04162   0.37268   0.00000  Uiso   1.00
H980   H     0.92873   0.24381   0.43971   0.00000  Uiso   1.00
H981   H     0.83986   0.29172   0.62732   0.00000  Uiso   1.00
H982   H     0.88313   0.24999   0.36239   0.00000  Uiso   1.00
H983   H     0.95245   0.22109   0.34938   0.00000  Uiso   1.00
H984   H     0.98057   0.23719   0.60407   0.00000  Uiso   1.00
H985   H     0.93853   0.28188   0.53794   0.00000  Uiso   1.00
H986   H     0.92873   0.08952   0.43971   0.00000  Uiso   1.00
H987   H     0.73794   0.24381   0.56029   0.00000  Uiso   1.00
H988   H     0.93853   0.05145   0.53794   0.00000  Uiso   1.00
H989   H     0.98057   0.09614   0.60407   0.00000  Uiso   1.00
H990   H     0.95245   0.11225   0.34938   0.00000  Uiso   1.00
H991   H     0.88313   0.08334   0.36239   0.00000  Uiso   1.00
H992   H     0.83986   0.04162   0.62732   0.00000  Uiso   1.00
N993   N     0.83333   0.28573   0.50000   0.00000  Uiso   1.00
N994   N     0.83333   0.04760   0.50000   0.00000  Uiso   1.00
O995   O     0.77226   0.20487   0.50000   0.00000  Uiso   1.00
O996   O     0.97870   0.28153   0.45614   0.00000  Uiso   1.00
O997   O     0.97870   0.05180   0.45614   0.00000  Uiso   1.00
O998   O     0.68797   0.28153   0.54386   0.00000  Uiso   1.00
O999   O     0.89441   0.12846   0.50000   0.00000  Uiso   1.00
O1000  O     0.89441   0.20487   0.50000   0.00000  Uiso   1.00
O1001  O     0.77226   0.12846   0.50000   0.00000  Uiso   1.00
O1002  O     0.83334   0.20488   0.42845   0.00000  Uiso   1.00
O1003  O     0.83333   0.12845   0.57155   0.00000  Uiso   1.00
O1004  O     0.83333   0.20488   0.57155   0.00000  Uiso   1.00
O1005  O     0.83334   0.12845   0.42845   0.00000  Uiso   1.00
O1006  O     0.68797   0.05180   0.54386   0.00000  Uiso   1.00
Zn1007 Zn    0.83333   0.21771   0.50000   0.00000  Uiso   1.00
Zn1008 Zn    0.83333   0.11563   0.50000   0.00000  Uiso   1.00
C1009  C     0.08716   0.50000   0.50521   0.00000  Uiso   1.00
C1010  C     0.02105   0.54097   0.51042   0.00000  Uiso   1.00
C1011  C     0.29044   0.50000   0.48775   0.00000  Uiso   1.00
C1012  C     0.04290   0.50000   0.51225   0.00000  Uiso   1.00
C1013  C     0.19175   0.35726   0.53590   0.00000  Uiso   1.00
C1014  C     0.14158   0.64274   0.46410   0.00000  Uiso   1.00
C1015  C     0.14158   0.35726   0.46410   0.00000  Uiso   1.00
C1016  C     0.19175   0.64274   0.53590   0.00000  Uiso   1.00
C1017  C     0.04025   0.42004   0.53975   0.00000  Uiso   1.00
C1018  C     0.29308   0.57996   0.46025   0.00000  Uiso   1.00
C1019  C     0.29308   0.42004   0.46025   0.00000  Uiso   1.00
C1020  C     0.24618   0.50000   0.49479   0.00000  Uiso   1.00
C1021  C     0.04025   0.57996   0.53975   0.00000  Uiso   1.00
C1022  C     0.21806   0.38126   0.57633   0.00000  Uiso   1.00
C1023  C     0.25898   0.39382   0.57115   0.00000  Uiso   1.00
C1024  C     0.28311   0.41777   0.60902   0.00000  Uiso   1.00
C1025  C     0.26739   0.42666   0.65359   0.00000  Uiso   1.00
C1026  C     0.22807   0.41052   0.66074   0.00000  Uiso   1.00
C1027  C     0.20361   0.38755   0.62229   0.00000  Uiso   1.00
C1028  C     0.11528   0.61874   0.42367   0.00000  Uiso   1.00
C1029  C     0.07436   0.60619   0.42885   0.00000  Uiso   1.00
C1030  C     0.05023   0.58223   0.39098   0.00000  Uiso   1.00
C1031  C     0.16628   0.50000   0.40616   0.00000  Uiso   1.00
C1032  C     0.06595   0.57334   0.34641   0.00000  Uiso   1.00
C1033  C     0.10527   0.58948   0.33926   0.00000  Uiso   1.00
C1034  C     0.12972   0.61245   0.37771   0.00000  Uiso   1.00
C1035  C     0.11528   0.38126   0.42367   0.00000  Uiso   1.00
C1036  C     0.07436   0.39382   0.42885   0.00000  Uiso   1.00
C1037  C     0.05023   0.41777   0.39098   0.00000  Uiso   1.00
C1038  C     0.06595   0.42666   0.34641   0.00000  Uiso   1.00
C1039  C     0.10527   0.41052   0.33926   0.00000  Uiso   1.00
C1040  C     0.12972   0.38755   0.37771   0.00000  Uiso   1.00
C1041  C     0.21806   0.61874   0.57633   0.00000  Uiso   1.00
C1042  C     0.16705   0.50000   0.59384   0.00000  Uiso   1.00
C1043  C     0.20361   0.61245   0.62229   0.00000  Uiso   1.00
C1044  C     0.22807   0.58948   0.66074   0.00000  Uiso   1.00
C1045  C     0.26739   0.57334   0.65359   0.00000  Uiso   1.00
C1046  C     0.28311   0.58223   0.60902   0.00000  Uiso   1.00
C1047  C     0.25898   0.60618   0.57115   0.00000  Uiso   1.00
C1048  C     0.16656   0.50000   0.35505   0.00000  Uiso   1.00
C1049  C     0.16678   0.50000   0.64495   0.00000  Uiso   1.00
C1050  C     0.02105   0.45903   0.51042   0.00000  Uiso   1.00
C1051  C     0.31228   0.54097   0.48958   0.00000  Uiso   1.00
C1052  C     0.31228   0.45903   0.48958   0.00000  Uiso   1.00
H1053  H     0.07127   0.42285   0.56029   0.00000  Uiso   1.00
H1054  H     0.06147   0.61522   0.46206   0.00000  Uiso   1.00
H1055  H     0.01943   0.57053   0.39593   0.00000  Uiso   1.00
H1056  H     0.04755   0.55442   0.65062   0.00000  Uiso   1.00
H1057  H     0.11687   0.58332   0.63761   0.00000  Uiso   1.00
H1058  H     0.16014   0.62505   0.37268   0.00000  Uiso   1.00
H1059  H     0.06147   0.38479   0.46206   0.00000  Uiso   1.00
H1060  H     0.01943   0.42947   0.39593   0.00000  Uiso   1.00
H1061  H     0.04755   0.44558   0.65062   0.00000  Uiso   1.00
H1062  H     0.11687   0.41668   0.63761   0.00000  Uiso   1.00
H1063  H     0.16014   0.37495   0.37268   0.00000  Uiso   1.00
H1064  H     0.26206   0.57715   0.43971   0.00000  Uiso   1.00
H1065  H     0.17319   0.62505   0.62732   0.00000  Uiso   1.00
H1066  H     0.21646   0.58332   0.36239   0.00000  Uiso   1.00
H1067  H     0.28578   0.55442   0.34938   0.00000  Uiso   1.00
H1068  H     0.31390   0.57053   0.60407   0.00000  Uiso   1.00
H1069  H     0.27186   0.61522   0.53794   0.00000  Uiso   1.00
H1070  H     0.26206   0.42285   0.43971   0.00000  Uiso   1.00
H1071  H     0.07127   0.57715   0.56029   0.00000  Uiso   1.00
H1072  H     0.27186   0.38478   0.53794   0.00000  Uiso   1.00
H1073  H     0.31390   0.42947   0.60407   0.00000  Uiso   1.00
H1074  H     0.28578   0.44558   0.34938   0.00000  Uiso   1.00
H1075  H     0.21646   0.41668   0.36239   0.00000  Uiso   1.00
H1076  H     0.17319   0.37495   0.62732   0.00000  Uiso   1.00
N1077  N     0.16667   0.61907   0.50000   0.00000  Uiso   1.00
N1078  N     0.16667   0.38093   0.50000   0.00000  Uiso   1.00
O1079  O     0.10559   0.53821   0.50000   0.00000  Uiso   1.00
O1080  O     0.31203   0.61487   0.45614   0.00000  Uiso   1.00
O1081  O     0.31203   0.38513   0.45614   0.00000  Uiso   1.00
O1082  O     0.02130   0.61487   0.54386   0.00000  Uiso   1.00
O1083  O     0.22774   0.46179   0.50000   0.00000  Uiso   1.00
O1084  O     0.22774   0.53821   0.50000   0.00000  Uiso   1.00
O1085  O     0.10559   0.46179   0.50000   0.00000  Uiso   1.00
O1086  O     0.16667   0.53821   0.42845   0.00000  Uiso   1.00
O1087  O     0.16666   0.46179   0.57155   0.00000  Uiso   1.00
O1088  O     0.16666   0.53821   0.57155   0.00000  Uiso   1.00
O1089  O     0.16667   0.46179   0.42845   0.00000  Uiso   1.00
O1090  O     0.02130   0.38513   0.54386   0.00000  Uiso   1.00
Zn1091 Zn    0.16667   0.55104   0.50000   0.00000  Uiso   1.00
Zn1092 Zn    0.16667   0.44896   0.50000   0.00000  Uiso   1.00
C1093  C     0.42049   0.50000   0.50521   0.00000  Uiso   1.00
C1094  C     0.35439   0.54097   0.51042   0.00000  Uiso   1.00
C1095  C     0.62377   0.50000   0.48775   0.00000  Uiso   1.00
C1096  C     0.37623   0.50000   0.51225   0.00000  Uiso   1.00
C1097  C     0.52508   0.35726   0.53590   0.00000  Uiso   1.00
C1098  C     0.47492   0.64274   0.46410   0.00000  Uiso   1.00
C1099  C     0.47492   0.35726   0.46410   0.00000  Uiso   1.00
C1100  C     0.52508   0.64274   0.53590   0.00000  Uiso   1.00
C1101  C     0.37358   0.42004   0.53975   0.00000  Uiso   1.00
C1102  C     0.62642   0.57996   0.46025   0.00000  Uiso   1.00
C1103  C     0.62642   0.42004   0.46025   0.00000  Uiso   1.00
C1104  C     0.57951   0.50000   0.49479   0.00000  Uiso   1.00
C1105  C     0.37358   0.57996   0.53975   0.00000  Uiso   1.00
C1106  C     0.55139   0.38126   0.57633   0.00000  Uiso   1.00
C1107  C     0.59231   0.39382   0.57115   0.00000  Uiso   1.00
C1108  C     0.61644   0.41777   0.60902   0.00000  Uiso   1.00
C1109  C     0.60072   0.42666   0.65359   0.00000  Uiso   1.00
C1110  C     0.56140   0.41052   0.66074   0.00000  Uiso   1.00
C1111  C     0.53695   0.38755   0.62229   0.00000  Uiso   1.00
C1112  C     0.44861   0.61874   0.42367   0.00000  Uiso   1.00
C1113  C     0.40769   0.60619   0.42885   0.00000  Uiso   1.00
C1114  C     0.38356   0.58223   0.39098   0.00000  Uiso   1.00
C1115  C     0.49962   0.50000   0.40616   0.00000  Uiso   1.00
C1116  C     0.39928   0.57334   0.34641   0.00000  Uiso   1.00
C1117  C     0.43860   0.58948   0.33926   0.00000  Uiso   1.00
C1118  C     0.46305   0.61245   0.37771   0.00000  Uiso   1.00
C1119  C     0.44861   0.38126   0.42367   0.00000  Uiso   1.00
C1120  C     0.40769   0.39382   0.42885   0.00000  Uiso   1.00
C1121  C     0.38356   0.41777   0.39098   0.00000  Uiso   1.00
C1122  C     0.39928   0.42666   0.34641   0.00000  Uiso   1.00
C1123  C     0.43860   0.41052   0.33926   0.00000  Uiso   1.00
C1124  C     0.46305   0.38755   0.37771   0.00000  Uiso   1.00
C1125  C     0.55139   0.61874   0.57633   0.00000  Uiso   1.00
C1126  C     0.50038   0.50000   0.59384   0.00000  Uiso   1.00
C1127  C     0.53695   0.61245   0.62229   0.00000  Uiso   1.00
C1128  C     0.56140   0.58948   0.66074   0.00000  Uiso   1.00
C1129  C     0.60072   0.57334   0.65359   0.00000  Uiso   1.00
C1130  C     0.61644   0.58223   0.60902   0.00000  Uiso   1.00
C1131  C     0.59231   0.60618   0.57115   0.00000  Uiso   1.00
C1132  C     0.49989   0.50000   0.35505   0.00000  Uiso   1.00
C1133  C     0.50011   0.50000   0.64495   0.00000  Uiso   1.00
C1134  C     0.35439   0.45903   0.51042   0.00000  Uiso   1.00
C1135  C     0.64561   0.54097   0.48958   0.00000  Uiso   1.00
C1136  C     0.64561   0.45903   0.48958   0.00000  Uiso   1.00
H1137  H     0.40460   0.42285   0.56029   0.00000  Uiso   1.00
H1138  H     0.39481   0.61522   0.46206   0.00000  Uiso   1.00
H1139  H     0.35276   0.57053   0.39593   0.00000  Uiso   1.00
H1140  H     0.38089   0.55442   0.65062   0.00000  Uiso   1.00
H1141  H     0.45021   0.58332   0.63761   0.00000  Uiso   1.00
H1142  H     0.49347   0.62505   0.37268   0.00000  Uiso   1.00
H1143  H     0.39481   0.38479   0.46206   0.00000  Uiso   1.00
H1144  H     0.35276   0.42947   0.39593   0.00000  Uiso   1.00
H1145  H     0.38089   0.44558   0.65062   0.00000  Uiso   1.00
H1146  H     0.45021   0.41668   0.63761   0.00000  Uiso   1.00
H1147  H     0.49347   0.37495   0.37268   0.00000  Uiso   1.00
H1148  H     0.59540   0.57715   0.43971   0.00000  Uiso   1.00
H1149  H     0.50653   0.62505   0.62732   0.00000  Uiso   1.00
H1150  H     0.54979   0.58332   0.36239   0.00000  Uiso   1.00
H1151  H     0.61911   0.55442   0.34938   0.00000  Uiso   1.00
H1152  H     0.64724   0.57053   0.60407   0.00000  Uiso   1.00
H1153  H     0.60519   0.61522   0.53794   0.00000  Uiso   1.00
H1154  H     0.59540   0.42285   0.43971   0.00000  Uiso   1.00
H1155  H     0.40460   0.57715   0.56029   0.00000  Uiso   1.00
H1156  H     0.60519   0.38478   0.53794   0.00000  Uiso   1.00
H1157  H     0.64724   0.42947   0.60407   0.00000  Uiso   1.00
H1158  H     0.61911   0.44558   0.34938   0.00000  Uiso   1.00
H1159  H     0.54979   0.41668   0.36239   0.00000  Uiso   1.00
H1160  H     0.50653   0.37495   0.62732   0.00000  Uiso   1.00
N1161  N     0.50000   0.61907   0.50000   0.00000  Uiso   1.00
N1162  N     0.50000   0.38093   0.50000   0.00000  Uiso   1.00
O1163  O     0.43892   0.53821   0.50000   0.00000  Uiso   1.00
O1164  O     0.64537   0.61487   0.45614   0.00000  Uiso   1.00
O1165  O     0.64537   0.38513   0.45614   0.00000  Uiso   1.00
O1166  O     0.35463   0.61487   0.54386   0.00000  Uiso   1.00
O1167  O     0.56108   0.46179   0.50000   0.00000  Uiso   1.00
O1168  O     0.56108   0.53821   0.50000   0.00000  Uiso   1.00
O1169  O     0.43892   0.46179   0.50000   0.00000  Uiso   1.00
O1170  O     0.50000   0.53821   0.42845   0.00000  Uiso   1.00
O1171  O     0.50000   0.46179   0.57155   0.00000  Uiso   1.00
O1172  O     0.50000   0.53821   0.57155   0.00000  Uiso   1.00
O1173  O     0.50000   0.46179   0.42845   0.00000  Uiso   1.00
O1174  O     0.35463   0.38513   0.54386   0.00000  Uiso   1.00
Zn1175 Zn    0.50000   0.55104   0.50000   0.00000  Uiso   1.00
Zn1176 Zn    0.50000   0.44896   0.50000   0.00000  Uiso   1.00
C1177  C     0.75382   0.50000   0.50521   0.00000  Uiso   1.00
C1178  C     0.68772   0.54097   0.51042   0.00000  Uiso   1.00
C1179  C     0.95710   0.50000   0.48775   0.00000  Uiso   1.00
C1180  C     0.70956   0.50000   0.51225   0.00000  Uiso   1.00
C1181  C     0.85842   0.35726   0.53590   0.00000  Uiso   1.00
C1182  C     0.80825   0.64274   0.46410   0.00000  Uiso   1.00
C1183  C     0.80825   0.35726   0.46410   0.00000  Uiso   1.00
C1184  C     0.85842   0.64274   0.53590   0.00000  Uiso   1.00
C1185  C     0.70692   0.42004   0.53975   0.00000  Uiso   1.00
C1186  C     0.95975   0.57996   0.46025   0.00000  Uiso   1.00
C1187  C     0.95975   0.42004   0.46025   0.00000  Uiso   1.00
C1188  C     0.91284   0.50000   0.49479   0.00000  Uiso   1.00
C1189  C     0.70692   0.57996   0.53975   0.00000  Uiso   1.00
C1190  C     0.88472   0.38126   0.57633   0.00000  Uiso   1.00
C1191  C     0.92564   0.39382   0.57115   0.00000  Uiso   1.00
C1192  C     0.94977   0.41777   0.60902   0.00000  Uiso   1.00
C1193  C     0.93405   0.42666   0.65359   0.00000  Uiso   1.00
C1194  C     0.89473   0.41052   0.66074   0.00000  Uiso   1.00
C1195  C     0.87028   0.38755   0.62229   0.00000  Uiso   1.00
C1196  C     0.78195   0.61874   0.42367   0.00000  Uiso   1.00
C1197  C     0.74102   0.60619   0.42885   0.00000  Uiso   1.00
C1198  C     0.71689   0.58223   0.39098   0.00000  Uiso   1.00
C1199  C     0.83295   0.50000   0.40616   0.00000  Uiso   1.00
C1200  C     0.73261   0.57334   0.34641   0.00000  Uiso   1.00
C1201  C     0.77193   0.58948   0.33926   0.00000  Uiso   1.00
C1202  C     0.79639   0.61245   0.37771   0.00000  Uiso   1.00
C1203  C     0.78195   0.38126   0.42367   0.00000  Uiso   1.00
C1204  C     0.74102   0.39382   0.42885   0.00000  Uiso   1.00
C1205  C     0.71689   0.41777   0.39098   0.00000  Uiso   1.00
C1206  C     0.73261   0.42666   0.34641   0.00000  Uiso   1.00
C1207  C     0.77193   0.41052   0.33926   0.00000  Uiso   1.00
C1208  C     0.79639   0.38755   0.37771   0.00000  Uiso   1.00
C1209  C     0.88472   0.61874   0.57633   0.00000  Uiso   1.00
C1210  C     0.83372   0.50000   0.59384   0.00000  Uiso   1.00
C1211  C     0.87028   0.61245   0.62229   0.00000  Uiso   1.00
C1212  C     0.89473   0.58948   0.66074   0.00000  Uiso   1.00
C1213  C     0.93405   0.57334   0.65359   0.00000  Uiso   1.00
C1214  C     0.94977   0.58223   0.60902   0.00000  Uiso   1.00
C1215  C     0.92564   0.60618   0.57115   0.00000  Uiso   1.00
C1216  C     0.83323   0.50000   0.35505   0.00000  Uiso   1.00
C1217  C     0.83344   0.50000   0.64495   0.00000  Uiso   1.00
C1218  C     0.68772   0.45903   0.51042   0.00000  Uiso   1.00
C1219  C     0.97895   0.54097   0.48958   0.00000  Uiso   1.00
C1220  C     0.97895   0.45903   0.48958   0.00000  Uiso   1.00
H1221  H     0.73794   0.42285   0.56029   0.00000  Uiso   1.00
H1222  H     0.72814   0.61522   0.46206   0.00000  Uiso   1.00
H1223  H     0.68610   0.57053   0.39593   0.00000  Uiso   1.00
H1224  H     0.71422   0.55442   0.65062   0.00000  Uiso   1.00
H1225  H     0.78354   0.58332   0.63761   0.00000  Uiso   1.00
H1226  H     0.82681   0.62505   0.37268   0.00000  Uiso   1.00
H1227  H     0.72814   0.38479   0.46206   0.00000  Uiso   1.00
H1228  H     0.68610   0.42947   0.39593   0.00000  Uiso   1.00
H1229  H     0.71422   0.44558   0.65062   0.00000  Uiso   1.00
H1230  H     0.78354   0.41668   0.63761   0.00000  Uiso   1.00
H1231  H     0.82681   0.37495   0.37268   0.00000  Uiso   1.00
H1232  H     0.92873   0.57715   0.43971   0.00000  Uiso   1.00
H1233  H     0.83986   0.62505   0.62732   0.00000  Uiso   1.00
H1234  H     0.88313   0.58332   0.36239   0.00000  Uiso   1.00
H1235  H     0.95245   0.55442   0.34938   0.00000  Uiso   1.00
H1236  H     0.98057   0.57053   0.60407   0.00000  Uiso   1.00
H1237  H     0.93853   0.61522   0.53794   0.00000  Uiso   1.00
H1238  H     0.92873   0.42285   0.43971   0.00000  Uiso   1.00
H1239  H     0.73794   0.57715   0.56029   0.00000  Uiso   1.00
H1240  H     0.93853   0.38478   0.53794   0.00000  Uiso   1.00
H1241  H     0.98057   0.42947   0.60407   0.00000  Uiso   1.00
H1242  H     0.95245   0.44558   0.34938   0.00000  Uiso   1.00
H1243  H     0.88313   0.41668   0.36239   0.00000  Uiso   1.00
H1244  H     0.83986   0.37495   0.62732   0.00000  Uiso   1.00
N1245  N     0.83333   0.61907   0.50000   0.00000  Uiso   1.00
N1246  N     0.83333   0.38093   0.50000   0.00000  Uiso   1.00
O1247  O     0.77226   0.53821   0.50000   0.00000  Uiso   1.00
O1248  O     0.97870   0.61487   0.45614   0.00000  Uiso   1.00
O1249  O     0.97870   0.38513   0.45614   0.00000  Uiso   1.00
O1250  O     0.68797   0.61487   0.54386   0.00000  Uiso   1.00
O1251  O     0.89441   0.46179   0.50000   0.00000  Uiso   1.00
O1252  O     0.89441   0.53821   0.50000   0.00000  Uiso   1.00
O1253  O     0.77226   0.46179   0.50000   0.00000  Uiso   1.00
O1254  O     0.83334   0.53821   0.42845   0.00000  Uiso   1.00
O1255  O     0.83333   0.46179   0.57155   0.00000  Uiso   1.00
O1256  O     0.83333   0.53821   0.57155   0.00000  Uiso   1.00
O1257  O     0.83334   0.46179   0.42845   0.00000  Uiso   1.00
O1258  O     0.68797   0.38513   0.54386   0.00000  Uiso   1.00
Zn1259 Zn    0.83333   0.55104   0.50000   0.00000  Uiso   1.00
Zn1260 Zn    0.83333   0.44896   0.50000   0.00000  Uiso   1.00
C1261  C     0.08716   0.83333   0.50521   0.00000  Uiso   1.00
C1262  C     0.02105   0.87430   0.51042   0.00000  Uiso   1.00
C1263  C     0.29044   0.83333   0.48775   0.00000  Uiso   1.00
C1264  C     0.04290   0.83333   0.51225   0.00000  Uiso   1.00
C1265  C     0.19175   0.69060   0.53590   0.00000  Uiso   1.00
C1266  C     0.14158   0.97607   0.46410   0.00000  Uiso   1.00
C1267  C     0.14158   0.69060   0.46410   0.00000  Uiso   1.00
C1268  C     0.19175   0.97607   0.53590   0.00000  Uiso   1.00
C1269  C     0.04025   0.75337   0.53975   0.00000  Uiso   1.00
C1270  C     0.29308   0.91330   0.46025   0.00000  Uiso   1.00
C1271  C     0.29308   0.75337   0.46025   0.00000  Uiso   1.00
C1272  C     0.24618   0.83333   0.49479   0.00000  Uiso   1.00
C1273  C     0.04025   0.91330   0.53975   0.00000  Uiso   1.00
C1274  C     0.21806   0.71459   0.57633   0.00000  Uiso   1.00
C1275  C     0.25898   0.72715   0.57115   0.00000  Uiso   1.00
C1276  C     0.28311   0.75110   0.60902   0.00000  Uiso   1.00
C1277  C     0.26739   0.76000   0.65359   0.00000  Uiso   1.00
C1278  C     0.22807   0.74385   0.66074   0.00000  Uiso   1.00
C1279  C     0.20361   0.72089   0.62229   0.00000  Uiso   1.00
C1280  C     0.11528   0.95207   0.42367   0.00000  Uiso   1.00
C1281  C     0.07436   0.93952   0.42885   0.00000  Uiso   1.00
C1282  C     0.05023   0.91556   0.39098   0.00000  Uiso   1.00
C1283  C     0.16628   0.83333   0.40616   0.00000  Uiso   1.00
C1284  C     0.06595   0.90667   0.34641   0.00000  Uiso   1.00
C1285  C     0.10527   0.92281   0.33926   0.00000  Uiso   1.00
C1286  C     0.12972   0.94578   0.37771   0.00000  Uiso   1.00
C1287  C     0.11528   0.71459   0.42367   0.00000  Uiso   1.00
C1288  C     0.07436   0.72715   0.42885   0.00000  Uiso   1.00
C1289  C     0.05023   0.75110   0.39098   0.00000  Uiso   1.00
C1290  C     0.06595   0.76000   0.34641   0.00000  Uiso   1.00
C1291  C     0.10527   0.74385   0.33926   0.00000  Uiso   1.00
C1292  C     0.12972   0.72089   0.37771   0.00000  Uiso   1.00
C1293  C     0.21806   0.95207   0.57633   0.00000  Uiso   1.00
C1294  C     0.16705   0.83333   0.59384   0.00000  Uiso   1.00
C1295  C     0.20361   0.94578   0.62229   0.00000  Uiso   1.00
C1296  C     0.22807   0.92281   0.66074   0.00000  Uiso   1.00
C1297  C     0.26739   0.90667   0.65359   0.00000  Uiso   1.00
C1298  C     0.28311   0.91556   0.60902   0.00000  Uiso   1.00
C1299  C     0.25898   0.93952   0.57115   0.00000  Uiso   1.00
C1300  C     0.16656   0.83333   0.35505   0.00000  Uiso   1.00
C1301  C     0.16678   0.83333   0.64495   0.00000  Uiso   1.00
C1302  C     0.02105   0.79236   0.51042   0.00000  Uiso   1.00
C1303  C     0.31228   0.87430   0.48958   0.00000  Uiso   1.00
C1304  C     0.31228   0.79236   0.48958   0.00000  Uiso   1.00
H1305  H     0.07127   0.75619   0.56029   0.00000  Uiso   1.00
H1306  H     0.06147   0.94855   0.46206   0.00000  Uiso   1.00
H1307  H     0.01943   0.90386   0.39593   0.00000  Uiso   1.00
H1308  H     0.04755   0.88776   0.65062   0.00000  Uiso   1.00
H1309  H     0.11687   0.91666   0.63761   0.00000  Uiso   1.00
H1310  H     0.16014   0.95838   0.37268   0.00000  Uiso   1.00
H1311  H     0.06147   0.71812   0.46206   0.00000  Uiso   1.00
H1312  H     0.01943   0.76281   0.39593   0.00000  Uiso   1.00
H1313  H     0.04755   0.77891   0.65062   0.00000  Uiso   1.00
H1314  H     0.11687   0.75001   0.63761   0.00000  Uiso   1.00
H1315  H     0.16014   0.70829   0.37268   0.00000  Uiso   1.00
H1316  H     0.26206   0.91048   0.43971   0.00000  Uiso   1.00
H1317  H     0.17319   0.95838   0.62732   0.00000  Uiso   1.00
H1318  H     0.21646   0.91666   0.36239   0.00000  Uiso   1.00
H1319  H     0.28578   0.88775   0.34938   0.00000  Uiso   1.00
H1320  H     0.31390   0.90386   0.60407   0.00000  Uiso   1.00
H1321  H     0.27186   0.94855   0.53794   0.00000  Uiso   1.00
H1322  H     0.26206   0.75619   0.43971   0.00000  Uiso   1.00
H1323  H     0.07127   0.91048   0.56029   0.00000  Uiso   1.00
H1324  H     0.27186   0.71812   0.53794   0.00000  Uiso   1.00
H1325  H     0.31390   0.76281   0.60407   0.00000  Uiso   1.00
H1326  H     0.28578   0.77891   0.34938   0.00000  Uiso   1.00
H1327  H     0.21646   0.75001   0.36239   0.00000  Uiso   1.00
H1328  H     0.17319   0.70829   0.62732   0.00000  Uiso   1.00
N1329  N     0.16667   0.95240   0.50000   0.00000  Uiso   1.00
N1330  N     0.16667   0.71427   0.50000   0.00000  Uiso   1.00
O1331  O     0.10559   0.87154   0.50000   0.00000  Uiso   1.00
O1332  O     0.31203   0.94820   0.45614   0.00000  Uiso   1.00
O1333  O     0.31203   0.71847   0.45614   0.00000  Uiso   1.00
O1334  O     0.02130   0.94820   0.54386   0.00000  Uiso   1.00
O1335  O     0.22774   0.79513   0.50000   0.00000  Uiso   1.00
O1336  O     0.22774   0.87154   0.50000   0.00000  Uiso   1.00
O1337  O     0.10559   0.79513   0.50000   0.00000  Uiso   1.00
O1338  O     0.16667   0.87155   0.42845   0.00000  Uiso   1.00
O1339  O     0.16666   0.79512   0.57155   0.00000  Uiso   1.00
O1340  O     0.16666   0.87155   0.57155   0.00000  Uiso   1.00
O1341  O     0.16667   0.79512   0.42845   0.00000  Uiso   1.00
O1342  O     0.02130   0.71847   0.54386   0.00000  Uiso   1.00
Zn1343 Zn    0.16667   0.88437   0.50000   0.00000  Uiso   1.00
Zn1344 Zn    0.16667   0.78229   0.50000   0.00000  Uiso   1.00
C1345  C     0.42049   0.83333   0.50521   0.00000  Uiso   1.00
C1346  C     0.35439   0.87430   0.51042   0.00000  Uiso   1.00
C1347  C     0.62377   0.83333   0.48775   0.00000  Uiso   1.00
C1348  C     0.37623   0.83333   0.51225   0.00000  Uiso   1.00
C1349  C     0.52508   0.69060   0.53590   0.00000  Uiso   1.00
C1350  C     0.47492   0.97607   0.46410   0.00000  Uiso   1.00
C1351  C     0.47492   0.69060   0.46410   0.00000  Uiso   1.00
C1352  C     0.52508   0.97607   0.53590   0.00000  Uiso   1.00
C1353  C     0.37358   0.75337   0.53975   0.00000  Uiso   1.00
C1354  C     0.62642   0.91330   0.46025   0.00000  Uiso   1.00
C1355  C     0.62642   0.75337   0.46025   0.00000  Uiso   1.00
C1356  C     0.57951   0.83333   0.49479   0.00000  Uiso   1.00
C1357  C     0.37358   0.91330   0.53975   0.00000  Uiso   1.00
C1358  C     0.55139   0.71459   0.57633   0.00000  Uiso   1.00
C1359  C     0.59231   0.72715   0.57115   0.00000  Uiso   1.00
C1360  C     0.61644   0.75110   0.60902   0.00000  Uiso   1.00
C1361  C     0.60072   0.76000   0.65359   0.00000  Uiso   1.00
C1362  C     0.56140   0.74385   0.66074   0.00000  Uiso   1.00
C1363  C     0.53695   0.72089   0.62229   0.00000  Uiso   1.00
C1364  C     0.44861   0.95207   0.42367   0.00000  Uiso   1.00
C1365  C     0.40769   0.93952   0.42885   0.00000  Uiso   1.00
C1366  C     0.38356   0.91556   0.39098   0.00000  Uiso   1.00
C1367  C     0.49962   0.83333   0.40616   0.00000  Uiso   1.00
C1368  C     0.39928   0.90667   0.34641   0.00000  Uiso   1.00
C1369  C     0.43860   0.92281   0.33926   0.00000  Uiso   1.00
C1370  C     0.46305   0.94578   0.37771   0.00000  Uiso   1.00
C1371  C     0.44861   0.71459   0.42367   0.00000  Uiso   1.00
C1372  C     0.40769   0.72715   0.42885   0.00000  Uiso   1.00
C1373  C     0.38356   0.75110   0.39098   0.00000  Uiso   1.00
C1374  C     0.39928   0.76000   0.34641   0.00000  Uiso   1.00
C1375  C     0.43860   0.74385   0.33926   0.00000  Uiso   1.00
C1376  C     0.46305   0.72089   0.37771   0.00000  Uiso   1.00
C1377  C     0.55139   0.95207   0.57633   0.00000  Uiso   1.00
C1378  C     0.50038   0.83333   0.59384   0.00000  Uiso   1.00
C1379  C     0.53695   0.94578   0.62229   0.00000  Uiso   1.00
C1380  C     0.56140   0.92281   0.66074   0.00000  Uiso   1.00
C1381  C     0.60072   0.90667   0.65359   0.00000  Uiso   1.00
C1382  C     0.61644   0.91556   0.60902   0.00000  Uiso   1.00
C1383  C     0.59231   0.93952   0.57115   0.00000  Uiso   1.00
C1384  C     0.49989   0.83333   0.35505   0.00000  Uiso   1.00
C1385  C     0.50011   0.83333   0.64495   0.00000  Uiso   1.00
C1386  C     0.35439   0.79236   0.51042   0.00000  Uiso   1.00
C1387  C     0.64561   0.87430   0.48958   0.00000  Uiso   1.00
C1388  C     0.64561   0.79236   0.48958   0.00000  Uiso   1.00
H1389  H     0.40460   0.75619   0.56029   0.00000  Uiso   1.00
H1390  H     0.39481   0.94855   0.46206   0.00000  Uiso   1.00
H1391  H     0.35276   0.90386   0.39593   0.00000  Uiso   1.00
H1392  H     0.38089   0.88776   0.65062   0.00000  Uiso   1.00
H1393  H     0.45021   0.91666   0.63761   0.00000  Uiso   1.00
H1394  H     0.49347   0.95838   0.37268   0.00000  Uiso   1.00
H1395  H     0.39481   0.71812   0.46206   0.00000  Uiso   1.00
H1396  H     0.35276   0.76281   0.39593   0.00000  Uiso   1.00
H1397  H     0.38089   0.77891   0.65062   0.00000  Uiso   1.00
H1398  H     0.45021   0.75001   0.63761   0.00000  Uiso   1.00
H1399  H     0.49347   0.70829   0.37268   0.00000  Uiso   1.00
H1400  H     0.59540   0.91048   0.43971   0.00000  Uiso   1.00
H1401  H     0.50653   0.95838   0.62732   0.00000  Uiso   1.00
H1402  H     0.54979   0.91666   0.36239   0.00000  Uiso   1.00
H1403  H     0.61911   0.88775   0.34938   0.00000  Uiso   1.00
H1404  H     0.64724   0.90386   0.60407   0.00000  Uiso   1.00
H1405  H     0.60519   0.94855   0.53794   0.00000  Uiso   1.00
H1406  H     0.59540   0.75619   0.43971   0.00000  Uiso   1.00
H1407  H     0.40460   0.91048   0.56029   0.00000  Uiso   1.00
H1408  H     0.60519   0.71812   0.53794   0.00000  Uiso   1.00
H1409  H     0.64724   0.76281   0.60407   0.00000  Uiso   1.00
H1410  H     0.61911   0.77891   0.34938   0.00000  Uiso   1.00
H1411  H     0.54979   0.75001   0.36239   0.00000  Uiso   1.00
H1412  H     0.50653   0.70829   0.62732   0.00000  Uiso   1.00
N1413  N     0.50000   0.95240   0.50000   0.00000  Uiso   1.00
N1414  N     0.50000   0.71427   0.50000   0.00000  Uiso   1.00
O1415  O     0.43892   0.87154   0.50000   0.00000  Uiso   1.00
O1416  O     0.64537   0.94820   0.45614   0.00000  Uiso   1.00
O1417  O     0.64537   0.71847   0.45614   0.00000  Uiso   1.00
O1418  O     0.35463   0.94820   0.54386   0.00000  Uiso   1.00
O1419  O     0.56108   0.79513   0.50000   0.00000  Uiso   1.00
O1420  O     0.56108   0.87154   0.50000   0.00000  Uiso   1.00
O1421  O     0.43892   0.79513   0.50000   0.00000  Uiso   1.00
O1422  O     0.50000   0.87155   0.42845   0.00000  Uiso   1.00
O1423  O     0.50000   0.79512   0.57155   0.00000  Uiso   1.00
O1424  O     0.50000   0.87155   0.57155   0.00000  Uiso   1.00
O1425  O     0.50000   0.79512   0.42845   0.00000  Uiso   1.00
O1426  O     0.35463   0.71847   0.54386   0.00000  Uiso   1.00
Zn1427 Zn    0.50000   0.88437   0.50000   0.00000  Uiso   1.00
Zn1428 Zn    0.50000   0.78229   0.50000   0.00000  Uiso   1.00
C1429  C     0.75382   0.83333   0.50521   0.00000  Uiso   1.00
C1430  C     0.68772   0.87430   0.51042   0.00000  Uiso   1.00
C1431  C     0.95710   0.83333   0.48775   0.00000  Uiso   1.00
C1432  C     0.70956   0.83333   0.51225   0.00000  Uiso   1.00
C1433  C     0.85842   0.69060   0.53590   0.00000  Uiso   1.00
C1434  C     0.80825   0.97607   0.46410   0.00000  Uiso   1.00
C1435  C     0.80825   0.69060   0.46410   0.00000  Uiso   1.00
C1436  C     0.85842   0.97607   0.53590   0.00000  Uiso   1.00
C1437  C     0.70692   0.75337   0.53975   0.00000  Uiso   1.00
C1438  C     0.95975   0.91330   0.46025   0.00000  Uiso   1.00
C1439  C     0.95975   0.75337   0.46025   0.00000  Uiso   1.00
C1440  C     0.91284   0.83333   0.49479   0.00000  Uiso   1.00
C1441  C     0.70692   0.91330   0.53975   0.00000  Uiso   1.00
C1442  C     0.88472   0.71459   0.57633   0.00000  Uiso   1.00
C1443  C     0.92564   0.72715   0.57115   0.00000  Uiso   1.00
C1444  C     0.94977   0.75110   0.60902   0.00000  Uiso   1.00
C1445  C     0.93405   0.76000   0.65359   0.00000  Uiso   1.00
C1446  C     0.89473   0.74385   0.66074   0.00000  Uiso   1.00
C1447  C     0.87028   0.72089   0.62229   0.00000  Uiso   1.00
C1448  C     0.78195   0.95207   0.42367   0.00000  Uiso   1.00
C1449  C     0.74102   0.93952   0.42885   0.00000  Uiso   1.00
C1450  C     0.71689   0.91556   0.39098   0.00000  Uiso   1.00
C1451  C     0.83295   0.83333   0.40616   0.00000  Uiso   1.00
C1452  C     0.73261   0.90667   0.34641   0.00000  Uiso   1.00
C1453  C     0.77193   0.92281   0.33926   0.00000  Uiso   1.00
C1454  C     0.79639   0.94578   0.37771   0.00000  Uiso   1.00
C1455  C     0.78195   0.71459   0.42367   0.00000  Uiso   1.00
C1456  C     0.74102   0.72715   0.42885   0.00000  Uiso   1.00
C1457  C     0.71689   0.75110   0.39098   0.00000  Uiso   1.00
C1458  C     0.73261   0.76000   0.34641   0.00000  Uiso   1.00
C1459  C     0.77193   0.74385   0.33926   0.00000  Uiso   1.00
C1460  C     0.79639   0.72089   0.37771   0.00000  Uiso   1.00
C1461  C     0.88472   0.95207   0.57633   0.00000  Uiso   1.00
C1462  C     0.83372   0.83333   0.59384   0.00000  Uiso   1.00
C1463  C     0.87028   0.94578   0.62229   0.00000  Uiso   1.00
C1464  C     0.89473   0.92281   0.66074   0.00000  Uiso   1.00
C1465  C     0.93405   0.90667   0.65359   0.00000  Uiso   1.00
C1466  C     0.94977   0.91556   0.60902   0.00000  Uiso   1.00
C1467  C     0.92564   0.93952   0.57115   0.00000  Uiso   1.00
C1468  C     0.83323   0.83333   0.35505   0.00000  Uiso   1.00
C1469  C     0.83344   0.83333   0.64495   0.00000  Uiso   1.00
C1470  C     0.68772   0.79236   0.51042   0.00000  Uiso   1.00
C1471  C     0.97895   0.87430   0.48958   0.00000  Uiso   1.00
C1472  C     0.97895   0.79236   0.48958   0.00000  Uiso   1.00
H1473  H     0.73794   0.75619   0.56029   0.00000  Uiso   1.00
H1474  H     0.72814   0.94855   0.46206   0.00000  Uiso   1.00
H1475  H     0.68610   0.90386   0.39593   0.00000  Uiso   1.00
H1476  H     0.71422   0.88776   0.65062   0.00000  Uiso   1.00
H1477  H     0.78354   0.91666   0.63761   0.00000  Uiso   1.00
H1478  H     0.82681   0.95838   0.37268   0.00000  Uiso   1.00
H1479  H     0.72814   0.71812   0.46206   0.00000  Uiso   1.00
H1480  H     0.68610   0.76281   0.39593   0.00000  Uiso   1.00
H1481  H     0.71422   0.77891   0.65062   0.00000  Uiso   1.00
H1482  H     0.78354   0.75001   0.63761   0.00000  Uiso   1.00
H1483  H     0.82681   0.70829   0.37268   0.00000  Uiso   1.00
H1484  H     0.92873   0.91048   0.43971   0.00000  Uiso   1.00
H1485  H     0.83986   0.95838   0.62732   0.00000  Uiso   1.00
H1486  H     0.88313   0.91666   0.36239   0.00000  Uiso   1.00
H1487  H     0.95245   0.88775   0.34938   0.00000  Uiso   1.00
H1488  H     0.98057   0.90386   0.60407   0.00000  Uiso   1.00
H1489  H     0.93853   0.94855   0.53794   0.00000  Uiso   1.00
H1490  H     0.92873   0.75619   0.43971   0.00000  Uiso   1.00
H1491  H     0.73794   0.91048   0.56029   0.00000  Uiso   1.00
H1492  H     0.93853   0.71812   0.53794   0.00000  Uiso   1.00
H1493  H     0.98057   0.76281   0.60407   0.00000  Uiso   1.00
H1494  H     0.95245   0.77891   0.34938   0.00000  Uiso   1.00
H1495  H     0.88313   0.75001   0.36239   0.00000  Uiso   1.00
H1496  H     0.83986   0.70829   0.62732   0.00000  Uiso   1.00
N1497  N     0.83333   0.95240   0.50000   0.00000  Uiso   1.00
N1498  N     0.83333   0.71427   0.50000   0.00000  Uiso   1.00
O1499  O     0.77226   0.87154   0.50000   0.00000  Uiso   1.00
O1500  O     0.97870   0.94820   0.45614   0.00000  Uiso   1.00
O1501  O     0.97870   0.71847   0.45614   0.00000  Uiso   1.00
O1502  O     0.68797   0.94820   0.54386   0.00000  Uiso   1.00
O1503  O     0.89441   0.79513   0.50000   0.00000  Uiso   1.00
O1504  O     0.89441   0.87154   0.50000   0.00000  Uiso   1.00
O1505  O     0.77226   0.79513   0.50000   0.00000  Uiso   1.00
O1506  O     0.83334   0.87155   0.42845   0.00000  Uiso   1.00
O1507  O     0.83333   0.79512   0.57155   0.00000  Uiso   1.00
O1508  O     0.83333   0.87155   0.57155   0.00000  Uiso   1.00
O1509  O     0.83334   0.79512   0.42845   0.00000  Uiso   1.00
O1510  O     0.68797   0.71847   0.54386   0.00000  Uiso   1.00
Zn1511 Zn    0.83333   0.88437   0.50000   0.00000  Uiso   1.00
Zn1512 Zn    0.83333   0.78229   0.50000   0.00000  Uiso   1.00
C1513  C     0.08716   0.16667   0.83854   0.00000  Uiso   1.00
C1514  C     0.02105   0.20764   0.84375   0.00000  Uiso   1.00
C1515  C     0.29044   0.16667   0.82108   0.00000  Uiso   1.00
C1516  C     0.04290   0.16667   0.84558   0.00000  Uiso   1.00
C1517  C     0.19175   0.02393   0.86923   0.00000  Uiso   1.00
C1518  C     0.14158   0.30940   0.79743   0.00000  Uiso   1.00
C1519  C     0.14158   0.02393   0.79743   0.00000  Uiso   1.00
C1520  C     0.19175   0.30940   0.86923   0.00000  Uiso   1.00
C1521  C     0.04025   0.08670   0.87309   0.00000  Uiso   1.00
C1522  C     0.29308   0.24663   0.79358   0.00000  Uiso   1.00
C1523  C     0.29308   0.08670   0.79358   0.00000  Uiso   1.00
C1524  C     0.24618   0.16667   0.82813   0.00000  Uiso   1.00
C1525  C     0.04025   0.24663   0.87309   0.00000  Uiso   1.00
C1526  C     0.21806   0.04793   0.90966   0.00000  Uiso   1.00
C1527  C     0.25898   0.06048   0.90449   0.00000  Uiso   1.00
C1528  C     0.28311   0.08444   0.94236   0.00000  Uiso   1.00
C1529  C     0.26739   0.09333   0.98692   0.00000  Uiso   1.00
C1530  C     0.22807   0.07719   0.99408   0.00000  Uiso   1.00
C1531  C     0.20361   0.05422   0.95562   0.00000  Uiso   1.00
C1532  C     0.11528   0.28541   0.75700   0.00000  Uiso   1.00
C1533  C     0.07436   0.27285   0.76218   0.00000  Uiso   1.00
C1534  C     0.05023   0.24890   0.72431   0.00000  Uiso   1.00
C1535  C     0.16628   0.16667   0.73950   0.00000  Uiso   1.00
C1536  C     0.06595   0.24001   0.67974   0.00000  Uiso   1.00
C1537  C     0.10527   0.25615   0.67259   0.00000  Uiso   1.00
C1538  C     0.12972   0.27911   0.71104   0.00000  Uiso   1.00
C1539  C     0.11528   0.04793   0.75700   0.00000  Uiso   1.00
C1540  C     0.07436   0.06048   0.76218   0.00000  Uiso   1.00
C1541  C     0.05023   0.08444   0.72431   0.00000  Uiso   1.00
C1542  C     0.06595   0.09333   0.67974   0.00000  Uiso   1.00
C1543  C     0.10527   0.07719   0.67259   0.00000  Uiso   1.00
C1544  C     0.12972   0.05422   0.71104   0.00000  Uiso   1.00
C1545  C     0.21806   0.28541   0.90966   0.00000  Uiso   1.00
C1546  C     0.16705   0.16667   0.92717   0.00000  Uiso   1.00
C1547  C     0.20361   0.27911   0.95562   0.00000  Uiso   1.00
C1548  C     0.22807   0.25615   0.99408   0.00000  Uiso   1.00
C1549  C     0.26739   0.24001   0.98692   0.00000  Uiso   1.00
C1550  C     0.28311   0.24890   0.94236   0.00000  Uiso   1.00
C1551  C     0.25898   0.27285   0.90448   0.00000  Uiso   1.00
C1552  C     0.16656   0.16667   0.68838   0.00000  Uiso   1.00
C1553  C     0.16678   0.16667   0.97828   0.00000  Uiso   1.00
C1554  C     0.02105   0.12570   0.84375   0.00000  Uiso   1.00
C1555  C     0.31228   0.20764   0.82291   0.00000  Uiso   1.00
C1556  C     0.31228   0.12570   0.82291   0.00000  Uiso   1.00
H1557  H     0.07127   0.08952   0.89362   0.00000  Uiso   1.00
H1558  H     0.06147   0.28188   0.79540   0.00000  Uiso   1.00
H1559  H     0.01943   0.23719   0.72927   0.00000  Uiso   1.00
H1560  H     0.04755   0.22109   0.98395   0.00000  Uiso   1.00
H1561  H     0.11687   0.24999   0.97094   0.00000  Uiso   1.00
H1562  H     0.16014   0.29172   0.70602   0.00000  Uiso   1.00
H1563  H     0.06147   0.05145   0.79540   0.00000  Uiso   1.00
H1564  H     0.01943   0.09614   0.72927   0.00000  Uiso   1.00
H1565  H     0.04755   0.11225   0.98395   0.00000  Uiso   1.00
H1566  H     0.11687   0.08334   0.97094   0.00000  Uiso   1.00
H1567  H     0.16014   0.04162   0.70602   0.00000  Uiso   1.00
H1568  H     0.26206   0.24381   0.77305   0.00000  Uiso   1.00
H1569  H     0.17319   0.29172   0.96065   0.00000  Uiso   1.00
H1570  H     0.21646   0.24999   0.69573   0.00000  Uiso   1.00
H1571  H     0.28578   0.22109   0.68271   0.00000  Uiso   1.00
H1572  H     0.31390   0.23719   0.93740   0.00000  Uiso   1.00
H1573  H     0.27186   0.28188   0.87127   0.00000  Uiso   1.00
H1574  H     0.26206   0.08952   0.77305   0.00000  Uiso   1.00
H1575  H     0.07127   0.24381   0.89362   0.00000  Uiso   1.00
H1576  H     0.27186   0.05145   0.87127   0.00000  Uiso   1.00
H1577  H     0.31390   0.09614   0.93740   0.00000  Uiso   1.00
H1578  H     0.28578   0.11225   0.68271   0.00000  Uiso   1.00
H1579  H     0.21646   0.08334   0.69573   0.00000  Uiso   1.00
H1580  H     0.17319   0.04162   0.96065   0.00000  Uiso   1.00
N1581  N     0.16667   0.28573   0.83333   0.00000  Uiso   1.00
N1582  N     0.16667   0.04760   0.83333   0.00000  Uiso   1.00
O1583  O     0.10559   0.20487   0.83333   0.00000  Uiso   1.00
O1584  O     0.31203   0.28153   0.78947   0.00000  Uiso   1.00
O1585  O     0.31203   0.05180   0.78947   0.00000  Uiso   1.00
O1586  O     0.02130   0.28153   0.87720   0.00000  Uiso   1.00
O1587  O     0.22774   0.12846   0.83334   0.00000  Uiso   1.00
O1588  O     0.22774   0.20487   0.83334   0.00000  Uiso   1.00
O1589  O     0.10559   0.12846   0.83333   0.00000  Uiso   1.00
O1590  O     0.16667   0.20488   0.76178   0.00000  Uiso   1.00
O1591  O     0.16666   0.12845   0.90489   0.00000  Uiso   1.00
O1592  O     0.16666   0.20488   0.90489   0.00000  Uiso   1.00
O1593  O     0.16667   0.12845   0.76178   0.00000  Uiso   1.00
O1594  O     0.02130   0.05180   0.87720   0.00000  Uiso   1.00
Zn1595 Zn    0.16667   0.21771   0.83333   0.00000  Uiso   1.00
Zn1596 Zn    0.16667   0.11563   0.83333   0.00000  Uiso   1.00
C1597  C     0.42049   0.16667   0.83854   0.00000  Uiso   1.00
C1598  C     0.35439   0.20764   0.84375   0.00000  Uiso   1.00
C1599  C     0.62377   0.16667   0.82108   0.00000  Uiso   1.00
C1600  C     0.37623   0.16667   0.84558   0.00000  Uiso   1.00
C1601  C     0.52508   0.02393   0.86923   0.00000  Uiso   1.00
C1602  C     0.47492   0.30940   0.79743   0.00000  Uiso   1.00
C1603  C     0.47492   0.02393   0.79743   0.00000  Uiso   1.00
C1604  C     0.52508   0.30940   0.86923   0.00000  Uiso   1.00
C1605  C     0.37358   0.08670   0.87309   0.00000  Uiso   1.00
C1606  C     0.62642   0.24663   0.79358   0.00000  Uiso   1.00
C1607  C     0.62642   0.08670   0.79358   0.00000  Uiso   1.00
C1608  C     0.57951   0.16667   0.82813   0.00000  Uiso   1.00
C1609  C     0.37358   0.24663   0.87309   0.00000  Uiso   1.00
C1610  C     0.55139   0.04793   0.90966   0.00000  Uiso   1.00
C1611  C     0.59231   0.06048   0.90449   0.00000  Uiso   1.00
C1612  C     0.61644   0.08444   0.94236   0.00000  Uiso   1.00
C1613  C     0.60072   0.09333   0.98692   0.00000  Uiso   1.00
C1614  C     0.56140   0.07719   0.99408   0.00000  Uiso   1.00
C1615  C     0.53695   0.05422   0.95562   0.00000  Uiso   1.00
C1616  C     0.44861   0.28541   0.75700   0.00000  Uiso   1.00
C1617  C     0.40769   0.27285   0.76218   0.00000  Uiso   1.00
C1618  C     0.38356   0.24890   0.72431   0.00000  Uiso   1.00
C1619  C     0.49962   0.16667   0.73950   0.00000  Uiso   1.00
C1620  C     0.39928   0.24001   0.67974   0.00000  Uiso   1.00
C1621  C     0.43860   0.25615   0.67259   0.00000  Uiso   1.00
C1622  C     0.46305   0.27911   0.71104   0.00000  Uiso   1.00
C1623  C     0.44861   0.04793   0.75700   0.00000  Uiso   1.00
C1624  C     0.40769   0.06048   0.76218   0.00000  Uiso   1.00
C1625  C     0.38356   0.08444   0.72431   0.00000  Uiso   1.00
C1626  C     0.39928   0.09333   0.67974   0.00000  Uiso   1.00
C1627  C     0.43860   0.07719   0.67259   0.00000  Uiso   1.00
C1628  C     0.46305   0.05422   0.71104   0.00000  Uiso   1.00
C1629  C     0.55139   0.28541   0.90966   0.00000  Uiso   1.00
C1630  C     0.50038   0.16667   0.92717   0.00000  Uiso   1.00
C1631  C     0.53695   0.27911   0.95562   0.00000  Uiso   1.00
C1632  C     0.56140   0.25615   0.99408   0.00000  Uiso   1.00
C1633  C     0.60072   0.24001   0.98692   0.00000  Uiso   1.00
C1634  C     0.61644   0.24890   0.94236   0.00000  Uiso   1.00
C1635  C     0.59231   0.27285   0.90448   0.00000  Uiso   1.00
C1636  C     0.49989   0.16667   0.68838   0.00000  Uiso   1.00
C1637  C     0.50011   0.16667   0.97828   0.00000  Uiso   1.00
C1638  C     0.35439   0.12570   0.84375   0.00000  Uiso   1.00
C1639  C     0.64561   0.20764   0.82291   0.00000  Uiso   1.00
C1640  C     0.64561   0.12570   0.82291   0.00000  Uiso   1.00
H1641  H     0.40460   0.08952   0.89362   0.00000  Uiso   1.00
H1642  H     0.39481   0.28188   0.79540   0.00000  Uiso   1.00
H1643  H     0.35276   0.23719   0.72927   0.00000  Uiso   1.00
H1644  H     0.38089   0.22109   0.98395   0.00000  Uiso   1.00
H1645  H     0.45021   0.24999   0.97094   0.00000  Uiso   1.00
H1646  H     0.49347   0.29172   0.70602   0.00000  Uiso   1.00
H1647  H     0.39481   0.05145   0.79540   0.00000  Uiso   1.00
H1648  H     0.35276   0.09614   0.72927   0.00000  Uiso   1.00
H1649  H     0.38089   0.11225   0.98395   0.00000  Uiso   1.00
H1650  H     0.45021   0.08334   0.97094   0.00000  Uiso   1.00
H1651  H     0.49347   0.04162   0.70602   0.00000  Uiso   1.00
H1652  H     0.59540   0.24381   0.77305   0.00000  Uiso   1.00
H1653  H     0.50653   0.29172   0.96065   0.00000  Uiso   1.00
H1654  H     0.54979   0.24999   0.69573   0.00000  Uiso   1.00
H1655  H     0.61911   0.22109   0.68271   0.00000  Uiso   1.00
H1656  H     0.64724   0.23719   0.93740   0.00000  Uiso   1.00
H1657  H     0.60519   0.28188   0.87127   0.00000  Uiso   1.00
H1658  H     0.59540   0.08952   0.77305   0.00000  Uiso   1.00
H1659  H     0.40460   0.24381   0.89362   0.00000  Uiso   1.00
H1660  H     0.60519   0.05145   0.87127   0.00000  Uiso   1.00
H1661  H     0.64724   0.09614   0.93740   0.00000  Uiso   1.00
H1662  H     0.61911   0.11225   0.68271   0.00000  Uiso   1.00
H1663  H     0.54979   0.08334   0.69573   0.00000  Uiso   1.00
H1664  H     0.50653   0.04162   0.96065   0.00000  Uiso   1.00
N1665  N     0.50000   0.28573   0.83333   0.00000  Uiso   1.00
N1666  N     0.50000   0.04760   0.83333   0.00000  Uiso   1.00
O1667  O     0.43892   0.20487   0.83333   0.00000  Uiso   1.00
O1668  O     0.64537   0.28153   0.78947   0.00000  Uiso   1.00
O1669  O     0.64537   0.05180   0.78947   0.00000  Uiso   1.00
O1670  O     0.35463   0.28153   0.87720   0.00000  Uiso   1.00
O1671  O     0.56108   0.12846   0.83334   0.00000  Uiso   1.00
O1672  O     0.56108   0.20487   0.83334   0.00000  Uiso   1.00
O1673  O     0.43892   0.12846   0.83333   0.00000  Uiso   1.00
O1674  O     0.50000   0.20488   0.76178   0.00000  Uiso   1.00
O1675  O     0.50000   0.12845   0.90489   0.00000  Uiso   1.00
O1676  O     0.50000   0.20488   0.90489   0.00000  Uiso   1.00
O1677  O     0.50000   0.12845   0.76178   0.00000  Uiso   1.00
O1678  O     0.35463   0.05180   0.87720   0.00000  Uiso   1.00
Zn1679 Zn    0.50000   0.21771   0.83333   0.00000  Uiso   1.00
Zn1680 Zn    0.50000   0.11563   0.83333   0.00000  Uiso   1.00
C1681  C     0.75382   0.16667   0.83854   0.00000  Uiso   1.00
C1682  C     0.68772   0.20764   0.84375   0.00000  Uiso   1.00
C1683  C     0.95710   0.16667   0.82108   0.00000  Uiso   1.00
C1684  C     0.70956   0.16667   0.84558   0.00000  Uiso   1.00
C1685  C     0.85842   0.02393   0.86923   0.00000  Uiso   1.00
C1686  C     0.80825   0.30940   0.79743   0.00000  Uiso   1.00
C1687  C     0.80825   0.02393   0.79743   0.00000  Uiso   1.00
C1688  C     0.85842   0.30940   0.86923   0.00000  Uiso   1.00
C1689  C     0.70692   0.08670   0.87309   0.00000  Uiso   1.00
C1690  C     0.95975   0.24663   0.79358   0.00000  Uiso   1.00
C1691  C     0.95975   0.08670   0.79358   0.00000  Uiso   1.00
C1692  C     0.91284   0.16667   0.82813   0.00000  Uiso   1.00
C1693  C     0.70692   0.24663   0.87309   0.00000  Uiso   1.00
C1694  C     0.88472   0.04793   0.90966   0.00000  Uiso   1.00
C1695  C     0.92564   0.06048   0.90449   0.00000  Uiso   1.00
C1696  C     0.94977   0.08444   0.94236   0.00000  Uiso   1.00
C1697  C     0.93405   0.09333   0.98692   0.00000  Uiso   1.00
C1698  C     0.89473   0.07719   0.99408   0.00000  Uiso   1.00
C1699  C     0.87028   0.05422   0.95562   0.00000  Uiso   1.00
C1700  C     0.78195   0.28541   0.75700   0.00000  Uiso   1.00
C1701  C     0.74102   0.27285   0.76218   0.00000  Uiso   1.00
C1702  C     0.71689   0.24890   0.72431   0.00000  Uiso   1.00
C1703  C     0.83295   0.16667   0.73950   0.00000  Uiso   1.00
C1704  C     0.73261   0.24001   0.67974   0.00000  Uiso   1.00
C1705  C     0.77193   0.25615   0.67259   0.00000  Uiso   1.00
C1706  C     0.79639   0.27911   0.71104   0.00000  Uiso   1.00
C1707  C     0.78195   0.04793   0.75700   0.00000  Uiso   1.00
C1708  C     0.74102   0.06048   0.76218   0.00000  Uiso   1.00
C1709  C     0.71689   0.08444   0.72431   0.00000  Uiso   1.00
C1710  C     0.73261   0.09333   0.67974   0.00000  Uiso   1.00
C1711  C     0.77193   0.07719   0.67259   0.00000  Uiso   1.00
C1712  C     0.79639   0.05422   0.71104   0.00000  Uiso   1.00
C1713  C     0.88472   0.28541   0.90966   0.00000  Uiso   1.00
C1714  C     0.83372   0.16667   0.92717   0.00000  Uiso   1.00
C1715  C     0.87028   0.27911   0.95562   0.00000  Uiso   1.00
C1716  C     0.89473   0.25615   0.99408   0.00000  Uiso   1.00
C1717  C     0.93405   0.24001   0.98692   0.00000  Uiso   1.00
C1718  C     0.94977   0.24890   0.94236   0.00000  Uiso   1.00
C1719  C     0.92564   0.27285   0.90448   0.00000  Uiso   1.00
C1720  C     0.83323   0.16667   0.68838   0.00000  Uiso   1.00
C1721  C     0.83344   0.16667   0.97828   0.00000  Uiso   1.00
C1722  C     0.68772   0.12570   0.84375   0.00000  Uiso   1.00
C1723  C     0.97895   0.20764   0.82291   0.00000  Uiso   1.00
C1724  C     0.97895   0.12570   0.82291   0.00000  Uiso   1.00
H1725  H     0.73794   0.08952   0.89362   0.00000  Uiso   1.00
H1726  H     0.72814   0.28188   0.79540   0.00000  Uiso   1.00
H1727  H     0.68610   0.23719   0.72927   0.00000  Uiso   1.00
H1728  H     0.71422   0.22109   0.98395   0.00000  Uiso   1.00
H1729  H     0.78354   0.24999   0.97094   0.00000  Uiso   1.00
H1730  H     0.82681   0.29172   0.70602   0.00000  Uiso   1.00
H1731  H     0.72814   0.05145   0.79540   0.00000  Uiso   1.00
H1732  H     0.68610   0.09614   0.72927   0.00000  Uiso   1.00
H1733  H     0.71422   0.11225   0.98395   0.00000  Uiso   1.00
H1734  H     0.78354   0.08334   0.97094   0.00000  Uiso   1.00
H1735  H     0.82681   0.04162   0.70602   0.00000  Uiso   1.00
H1736  H     0.92873   0.24381   0.77305   0.00000  Uiso   1.00
H1737  H     0.83986   0.29172   0.96065   0.00000  Uiso   1.00
H1738  H     0.88313   0.24999   0.69573   0.00000  Uiso   1.00
H1739  H     0.95245   0.22109   0.68271   0.00000  Uiso   1.00
H1740  H     0.98057   0.23719   0.93740   0.00000  Uiso   1.00
H1741  H     0.93853   0.28188   0.87127   0.00000  Uiso   1.00
H1742  H     0.92873   0.08952   0.77305   0.00000  Uiso   1.00
H1743  H     0.73794   0.24381   0.89362   0.00000  Uiso   1.00
H1744  H     0.93853   0.05145   0.87127   0.00000  Uiso   1.00
H1745  H     0.98057   0.09614   0.93740   0.00000  Uiso   1.00
H1746  H     0.95245   0.11225   0.68271   0.00000  Uiso   1.00
H1747  H     0.88313   0.08334   0.69573   0.00000  Uiso   1.00
H1748  H     0.83986   0.04162   0.96065   0.00000  Uiso   1.00
N1749  N     0.83333   0.28573   0.83333   0.00000  Uiso   1.00
N1750  N     0.83333   0.04760   0.83333   0.00000  Uiso   1.00
O1751  O     0.77226   0.20487   0.83333   0.00000  Uiso   1.00
O1752  O     0.97870   0.28153   0.78947   0.00000  Uiso   1.00
O1753  O     0.97870   0.05180   0.78947   0.00000  Uiso   1.00
O1754  O     0.68797   0.28153   0.87720   0.00000  Uiso   1.00
O1755  O     0.89441   0.12846   0.83334   0.00000  Uiso   1.00
O1756  O     0.89441   0.20487   0.83334   0.00000  Uiso   1.00
O1757  O     0.77226   0.12846   0.83333   0.00000  Uiso   1.00
O1758  O     0.83334   0.20488   0.76178   0.00000  Uiso   1.00
O1759  O     0.83333   0.12845   0.90489   0.00000  Uiso   1.00
O1760  O     0.83333   0.20488   0.90489   0.00000  Uiso   1.00
O1761  O     0.83334   0.12845   0.76178   0.00000  Uiso   1.00
O1762  O     0.68797   0.05180   0.87720   0.00000  Uiso   1.00
Zn1763 Zn    0.83333   0.21771   0.83333   0.00000  Uiso   1.00
Zn1764 Zn    0.83333   0.11563   0.83333   0.00000  Uiso   1.00
C1765  C     0.08716   0.50000   0.83854   0.00000  Uiso   1.00
C1766  C     0.02105   0.54097   0.84375   0.00000  Uiso   1.00
C1767  C     0.29044   0.50000   0.82108   0.00000  Uiso   1.00
C1768  C     0.04290   0.50000   0.84558   0.00000  Uiso   1.00
C1769  C     0.19175   0.35726   0.86923   0.00000  Uiso   1.00
C1770  C     0.14158   0.64274   0.79743   0.00000  Uiso   1.00
C1771  C     0.14158   0.35726   0.79743   0.00000  Uiso   1.00
C1772  C     0.19175   0.64274   0.86923   0.00000  Uiso   1.00
C1773  C     0.04025   0.42004   0.87309   0.00000  Uiso   1.00
C1774  C     0.29308   0.57996   0.79358   0.00000  Uiso   1.00
C1775  C     0.29308   0.42004   0.79358   0.00000  Uiso   1.00
C1776  C     0.24618   0.50000   0.82813   0.00000  Uiso   1.00
C1777  C     0.04025   0.57996   0.87309   0.00000  Uiso   1.00
C1778  C     0.21806   0.38126   0.90966   0.00000  Uiso   1.00
C1779  C     0.25898   0.39382   0.90449   0.00000  Uiso   1.00
C1780  C     0.28311   0.41777   0.94236   0.00000  Uiso   1.00
C1781  C     0.26739   0.42666   0.98692   0.00000  Uiso   1.00
C1782  C     0.22807   0.41052   0.99408   0.00000  Uiso   1.00
C1783  C     0.20361   0.38755   0.95562   0.00000  Uiso   1.00
C1784  C     0.11528   0.61874   0.75700   0.00000  Uiso   1.00
C1785  C     0.07436   0.60619   0.76218   0.00000  Uiso   1.00
C1786  C     0.05023   0.58223   0.72431   0.00000  Uiso   1.00
C1787  C     0.16628   0.50000   0.73950   0.00000  Uiso   1.00
C1788  C     0.06595   0.57334   0.67974   0.00000  Uiso   1.00
C1789  C     0.10527   0.58948   0.67259   0.00000  Uiso   1.00
C1790  C     0.12972   0.61245   0.71104   0.00000  Uiso   1.00
C1791  C     0.11528   0.38126   0.75700   0.00000  Uiso   1.00
C1792  C     0.07436   0.39382   0.76218   0.00000  Uiso   1.00
C1793  C     0.05023   0.41777   0.72431   0.00000  Uiso   1.00
C1794  C     0.06595   0.42666   0.67974   0.00000  Uiso   1.00
C1795  C     0.10527   0.41052   0.67259   0.00000  Uiso   1.00
C1796  C     0.12972   0.38755   0.71104   0.00000  Uiso   1.00
C1797  C     0.21806   0.61874   0.90966   0.00000  Uiso   1.00
C1798  C     0.16705   0.50000   0.92717   0.00000  Uiso   1.00
C1799  C     0.20361   0.61245   0.95562   0.00000  Uiso   1.00
C1800  C     0.22807   0.58948   0.99408   0.00000  Uiso   1.00
C1801  C     0.26739   0.57334   0.98692   0.00000  Uiso   1.00
C1802  C     0.28311   0.58223   0.94236   0.00000  Uiso   1.00
C1803  C     0.25898   0.60618   0.90448   0.00000  Uiso   1.00
C1804  C     0.16656   0.50000   0.68838   0.00000  Uiso   1.00
C1805  C     0.16678   0.50000   0.97828   0.00000  Uiso   1.00
C1806  C     0.02105   0.45903   0.84375   0.00000  Uiso   1.00
C1807  C     0.31228   0.54097   0.82291   0.00000  Uiso   1.00
C1808  C     0.31228   0.45903   0.82291   0.00000  Uiso   1.00
H1809  H     0.07127   0.42285   0.89362   0.00000  Uiso   1.00
H1810  H     0.06147   0.61522   0.79540   0.00000  Uiso   1.00
H1811  H     0.01943   0.57053   0.72927   0.00000  Uiso   1.00
H1812  H     0.04755   0.55442   0.98395   0.00000  Uiso   1.00
H1813  H     0.11687   0.58332   0.97094   0.00000  Uiso   1.00
H1814  H     0.16014   0.62505   0.70602   0.00000  Uiso   1.00
H1815  H     0.06147   0.38479   0.79540   0.00000  Uiso   1.00
H1816  H     0.01943   0.42947   0.72927   0.00000  Uiso   1.00
H1817  H     0.04755   0.44558   0.98395   0.00000  Uiso   1.00
H1818  H     0.11687   0.41668   0.97094   0.00000  Uiso   1.00
H1819  H     0.16014   0.37495   0.70602   0.00000  Uiso   1.00
H1820  H     0.26206   0.57715   0.77305   0.00000  Uiso   1.00
H1821  H     0.17319   0.62505   0.96065   0.00000  Uiso   1.00
H1822  H     0.21646   0.58332   0.69573   0.00000  Uiso   1.00
H1823  H     0.28578   0.55442   0.68271   0.00000  Uiso   1.00
H1824  H     0.31390   0.57053   0.93740   0.00000  Uiso   1.00
H1825  H     0.27186   0.61522   0.87127   0.00000  Uiso   1.00
H1826  H     0.26206   0.42285   0.77305   0.00000  Uiso   1.00
H1827  H     0.07127   0.57715   0.89362   0.00000  Uiso   1.00
H1828  H     0.27186   0.38478   0.87127   0.00000  Uiso   1.00
H1829  H     0.31390   0.42947   0.93740   0.00000  Uiso   1.00
H1830  H     0.28578   0.44558   0.68271   0.00000  Uiso   1.00
H1831  H     0.21646   0.41668   0.69573   0.00000  Uiso   1.00
H1832  H     0.17319   0.37495   0.96065   0.00000  Uiso   1.00
N1833  N     0.16667   0.61907   0.83333   0.00000  Uiso   1.00
N1834  N     0.16667   0.38093   0.83333   0.00000  Uiso   1.00
O1835  O     0.10559   0.53821   0.83333   0.00000  Uiso   1.00
O1836  O     0.31203   0.61487   0.78947   0.00000  Uiso   1.00
O1837  O     0.31203   0.38513   0.78947   0.00000  Uiso   1.00
O1838  O     0.02130   0.61487   0.87720   0.00000  Uiso   1.00
O1839  O     0.22774   0.46179   0.83334   0.00000  Uiso   1.00
O1840  O     0.22774   0.53821   0.83334   0.00000  Uiso   1.00
O1841  O     0.10559   0.46179   0.83333   0.00000  Uiso   1.00
O1842  O     0.16667   0.53821   0.76178   0.00000  Uiso   1.00
O1843  O     0.16666   0.46179   0.90489   0.00000  Uiso   1.00
O1844  O     0.16666   0.53821   0.90489   0.00000  Uiso   1.00
O1845  O     0.16667   0.46179   0.76178   0.00000  Uiso   1.00
O1846  O     0.02130   0.38513   0.87720   0.00000  Uiso   1.00
Zn1847 Zn    0.16667   0.55104   0.83333   0.00000  Uiso   1.00
Zn1848 Zn    0.16667   0.44896   0.83333   0.00000  Uiso   1.00
C1849  C     0.42049   0.50000   0.83854   0.00000  Uiso   1.00
C1850  C     0.35439   0.54097   0.84375   0.00000  Uiso   1.00
C1851  C     0.62377   0.50000   0.82108   0.00000  Uiso   1.00
C1852  C     0.37623   0.50000   0.84558   0.00000  Uiso   1.00
C1853  C     0.52508   0.35726   0.86923   0.00000  Uiso   1.00
C1854  C     0.47492   0.64274   0.79743   0.00000  Uiso   1.00
C1855  C     0.47492   0.35726   0.79743   0.00000  Uiso   1.00
C1856  C     0.52508   0.64274   0.86923   0.00000  Uiso   1.00
C1857  C     0.37358   0.42004   0.87309   0.00000  Uiso   1.00
C1858  C     0.62642   0.57996   0.79358   0.00000  Uiso   1.00
C1859  C     0.62642   0.42004   0.79358   0.00000  Uiso   1.00
C1860  C     0.57951   0.50000   0.82813   0.00000  Uiso   1.00
C1861  C     0.37358   0.57996   0.87309   0.00000  Uiso   1.00
C1862  C     0.55139   0.38126   0.90966   0.00000  Uiso   1.00
C1863  C     0.59231   0.39382   0.90449   0.00000  Uiso   1.00
C1864  C     0.61644   0.41777   0.94236   0.00000  Uiso   1.00
C1865  C     0.60072   0.42666   0.98692   0.00000  Uiso   1.00
C1866  C     0.56140   0.41052   0.99408   0.00000  Uiso   1.00
C1867  C     0.53695   0.38755   0.95562   0.00000  Uiso   1.00
C1868  C     0.44861   0.61874   0.75700   0.00000  Uiso   1.00
C1869  C     0.40769   0.60619   0.76218   0.00000  Uiso   1.00
C1870  C     0.38356   0.58223   0.72431   0.00000  Uiso   1.00
C1871  C     0.49962   0.50000   0.73950   0.00000  Uiso   1.00
C1872  C     0.39928   0.57334   0.67974   0.00000  Uiso   1.00
C1873  C     0.43860   0.58948   0.67259   0.00000  Uiso   1.00
C1874  C     0.46305   0.61245   0.71104   0.00000  Uiso   1.00
C1875  C     0.44861   0.38126   0.75700   0.00000  Uiso   1.00
C1876  C     0.40769   0.39382   0.76218   0.00000  Uiso   1.00
C1877  C     0.38356   0.41777   0.72431   0.00000  Uiso   1.00
C1878  C     0.39928   0.42666   0.67974   0.00000  Uiso   1.00
C1879  C     0.43860   0.41052   0.67259   0.00000  Uiso   1.00
C1880  C     0.46305   0.38755   0.71104   0.00000  Uiso   1.00
C1881  C     0.55139   0.61874   0.90966   0.00000  Uiso   1.00
C1882  C     0.50038   0.50000   0.92717   0.00000  Uiso   1.00
C1883  C     0.53695   0.61245   0.95562   0.00000  Uiso   1.00
C1884  C     0.56140   0.58948   0.99408   0.00000  Uiso   1.00
C1885  C     0.60072   0.57334   0.98692   0.00000  Uiso   1.00
C1886  C     0.61644   0.58223   0.94236   0.00000  Uiso   1.00
C1887  C     0.59231   0.60618   0.90448   0.00000  Uiso   1.00
C1888  C     0.49989   0.50000   0.68838   0.00000  Uiso   1.00
C1889  C     0.50011   0.50000   0.97828   0.00000  Uiso   1.00
C1890  C     0.35439   0.45903   0.84375   0.00000  Uiso   1.00
C1891  C     0.64561   0.54097   0.82291   0.00000  Uiso   1.00
C1892  C     0.64561   0.45903   0.82291   0.00000  Uiso   1.00
H1893  H     0.40460   0.42285   0.89362   0.00000  Uiso   1.00
H1894  H     0.39481   0.61522   0.79540   0.00000  Uiso   1.00
H1895  H     0.35276   0.57053   0.72927   0.00000  Uiso   1.00
H1896  H     0.38089   0.55442   0.98395   0.00000  Uiso   1.00
H1897  H     0.45021   0.58332   0.97094   0.00000  Uiso   1.00
H1898  H     0.49347   0.62505   0.70602   0.00000  Uiso   1.00
H1899  H     0.39481   0.38479   0.79540   0.00000  Uiso   1.00
H1900  H     0.35276   0.42947   0.72927   0.00000  Uiso   1.00
H1901  H     0.38089   0.44558   0.98395   0.00000  Uiso   1.00
H1902  H     0.45021   0.41668   0.97094   0.00000  Uiso   1.00
H1903  H     0.49347   0.37495   0.70602   0.00000  Uiso   1.00
H1904  H     0.59540   0.57715   0.77305   0.00000  Uiso   1.00
H1905  H     0.50653   0.62505   0.96065   0.00000  Uiso   1.00
H1906  H     0.54979   0.58332   0.69573   0.00000  Uiso   1.00
H1907  H     0.61911   0.55442   0.68271   0.00000  Uiso   1.00
H1908  H     0.64724   0.57053   0.93740   0.00000  Uiso   1.00
H1909  H     0.60519   0.61522   0.87127   0.00000  Uiso   1.00
H1910  H     0.59540   0.42285   0.77305   0.00000  Uiso   1.00
H1911  H     0.40460   0.57715   0.89362   0.00000  Uiso   1.00
H1912  H     0.60519   0.38478   0.87127   0.00000  Uiso   1.00
H1913  H     0.64724   0.42947   0.93740   0.00000  Uiso   1.00
H1914  H     0.61911   0.44558   0.68271   0.00000  Uiso   1.00
H1915  H     0.54979   0.41668   0.69573   0.00000  Uiso   1.00
H1916  H     0.50653   0.37495   0.96065   0.00000  Uiso   1.00
N1917  N     0.50000   0.61907   0.83333   0.00000  Uiso   1.00
N1918  N     0.50000   0.38093   0.83333   0.00000  Uiso   1.00
O1919  O     0.43892   0.53821   0.83333   0.00000  Uiso   1.00
O1920  O     0.64537   0.61487   0.78947   0.00000  Uiso   1.00
O1921  O     0.64537   0.38513   0.78947   0.00000  Uiso   1.00
O1922  O     0.35463   0.61487   0.87720   0.00000  Uiso   1.00
O1923  O     0.56108   0.46179   0.83334   0.00000  Uiso   1.00
O1924  O     0.56108   0.53821   0.83334   0.00000  Uiso   1.00
O1925  O     0.43892   0.46179   0.83333   0.00000  Uiso   1.00
O1926  O     0.50000   0.53821   0.76178   0.00000  Uiso   1.00
O1927  O     0.50000   0.46179   0.90489   0.00000  Uiso   1.00
O1928  O     0.50000   0.53821   0.90489   0.00000  Uiso   1.00
O1929  O     0.50000   0.46179   0.76178   0.00000  Uiso   1.00
O1930  O     0.35463   0.38513   0.87720   0.00000  Uiso   1.00
Zn1931 Zn    0.50000   0.55104   0.83333   0.00000  Uiso   1.00
Zn1932 Zn    0.50000   0.44896   0.83333   0.00000  Uiso   1.00
C1933  C     0.75382   0.50000   0.83854   0.00000  Uiso   1.00
C1934  C     0.68772   0.54097   0.84375   0.00000  Uiso   1.00
C1935  C     0.95710   0.50000   0.82108   0.00000  Uiso   1.00
C1936  C     0.70956   0.50000   0.84558   0.00000  Uiso   1.00
C1937  C     0.85842   0.35726   0.86923   0.00000  Uiso   1.00
C1938  C     0.80825   0.64274   0.79743   0.00000  Uiso   1.00
C1939  C     0.80825   0.35726   0.79743   0.00000  Uiso   1.00
C1940  C     0.85842   0.64274   0.86923   0.00000  Uiso   1.00
C1941  C     0.70692   0.42004   0.87309   0.00000  Uiso   1.00
C1942  C     0.95975   0.57996   0.79358   0.00000  Uiso   1.00
C1943  C     0.95975   0.42004   0.79358   0.00000  Uiso   1.00
C1944  C     0.91284   0.50000   0.82813   0.00000  Uiso   1.00
C1945  C     0.70692   0.57996   0.87309   0.00000  Uiso   1.00
C1946  C     0.88472   0.38126   0.90966   0.00000  Uiso   1.00
C1947  C     0.92564   0.39382   0.90449   0.00000  Uiso   1.00
C1948  C     0.94977   0.41777   0.94236   0.00000  Uiso   1.00
C1949  C     0.93405   0.42666   0.98692   0.00000  Uiso   1.00
C1950  C     0.89473   0.41052   0.99408   0.00000  Uiso   1.00
C1951  C     0.87028   0.38755   0.95562   0.00000  Uiso   1.00
C1952  C     0.78195   0.61874   0.75700   0.00000  Uiso   1.00
C1953  C     0.74102   0.60619   0.76218   0.00000  Uiso   1.00
C1954  C     0.71689   0.58223   0.72431   0.00000  Uiso   1.00
C1955  C     0.83295   0.50000   0.73950   0.00000  Uiso   1.00
C1956  C     0.73261   0.57334   0.67974   0.00000  Uiso   1.00
C1957  C     0.77193   0.58948   0.67259   0.00000  Uiso   1.00
C1958  C     0.79639   0.61245   0.71104   0.00000  Uiso   1.00
C1959  C     0.78195   0.38126   0.75700   0.00000  Uiso   1.00
C1960  C     0.74102   0.39382   0.76218   0.00000  Uiso   1.00
C1961  C     0.71689   0.41777   0.72431   0.00000  Uiso   1.00
C1962  C     0.73261   0.42666   0.67974   0.00000  Uiso   1.00
C1963  C     0.77193   0.41052   0.67259   0.00000  Uiso   1.00
C1964  C     0.79639   0.38755   0.71104   0.00000  Uiso   1.00
C1965  C     0.88472   0.61874   0.90966   0.00000  Uiso   1.00
C1966  C     0.83372   0.50000   0.92717   0.00000  Uiso   1.00
C1967  C     0.87028   0.61245   0.95562   0.00000  Uiso   1.00
C1968  C     0.89473   0.58948   0.99408   0.00000  Uiso   1.00
C1969  C     0.93405   0.57334   0.98692   0.00000  Uiso   1.00
C1970  C     0.94977   0.58223   0.94236   0.00000  Uiso   1.00
C1971  C     0.92564   0.60618   0.90448   0.00000  Uiso   1.00
C1972  C     0.83323   0.50000   0.68838   0.00000  Uiso   1.00
C1973  C     0.83344   0.50000   0.97828   0.00000  Uiso   1.00
C1974  C     0.68772   0.45903   0.84375   0.00000  Uiso   1.00
C1975  C     0.97895   0.54097   0.82291   0.00000  Uiso   1.00
C1976  C     0.97895   0.45903   0.82291   0.00000  Uiso   1.00
H1977  H     0.73794   0.42285   0.89362   0.00000  Uiso   1.00
H1978  H     0.72814   0.61522   0.79540   0.00000  Uiso   1.00
H1979  H     0.68610   0.57053   0.72927   0.00000  Uiso   1.00
H1980  H     0.71422   0.55442   0.98395   0.00000  Uiso   1.00
H1981  H     0.78354   0.58332   0.97094   0.00000  Uiso   1.00
H1982  H     0.82681   0.62505   0.70602   0.00000  Uiso   1.00
H1983  H     0.72814   0.38479   0.79540   0.00000  Uiso   1.00
H1984  H     0.68610   0.42947   0.72927   0.00000  Uiso   1.00
H1985  H     0.71422   0.44558   0.98395   0.00000  Uiso   1.00
H1986  H     0.78354   0.41668   0.97094   0.00000  Uiso   1.00
H1987  H     0.82681   0.37495   0.70602   0.00000  Uiso   1.00
H1988  H     0.92873   0.57715   0.77305   0.00000  Uiso   1.00
H1989  H     0.83986   0.62505   0.96065   0.00000  Uiso   1.00
H1990  H     0.88313   0.58332   0.69573   0.00000  Uiso   1.00
H1991  H     0.95245   0.55442   0.68271   0.00000  Uiso   1.00
H1992  H     0.98057   0.57053   0.93740   0.00000  Uiso   1.00
H1993  H     0.93853   0.61522   0.87127   0.00000  Uiso   1.00
H1994  H     0.92873   0.42285   0.77305   0.00000  Uiso   1.00
H1995  H     0.73794   0.57715   0.89362   0.00000  Uiso   1.00
H1996  H     0.93853   0.38478   0.87127   0.00000  Uiso   1.00
H1997  H     0.98057   0.42947   0.93740   0.00000  Uiso   1.00
H1998  H     0.95245   0.44558   0.68271   0.00000  Uiso   1.00
H1999  H     0.88313   0.41668   0.69573   0.00000  Uiso   1.00
H2000  H     0.83986   0.37495   0.96065   0.00000  Uiso   1.00
N2001  N     0.83333   0.61907   0.83333   0.00000  Uiso   1.00
N2002  N     0.83333   0.38093   0.83333   0.00000  Uiso   1.00
O2003  O     0.77226   0.53821   0.83333   0.00000  Uiso   1.00
O2004  O     0.97870   0.61487   0.78947   0.00000  Uiso   1.00
O2005  O     0.97870   0.38513   0.78947   0.00000  Uiso   1.00
O2006  O     0.68797   0.61487   0.87720   0.00000  Uiso   1.00
O2007  O     0.89441   0.46179   0.83334   0.00000  Uiso   1.00
O2008  O     0.89441   0.53821   0.83334   0.00000  Uiso   1.00
O2009  O     0.77226   0.46179   0.83333   0.00000  Uiso   1.00
O2010  O     0.83334   0.53821   0.76178   0.00000  Uiso   1.00
O2011  O     0.83333   0.46179   0.90489   0.00000  Uiso   1.00
O2012  O     0.83333   0.53821   0.90489   0.00000  Uiso   1.00
O2013  O     0.83334   0.46179   0.76178   0.00000  Uiso   1.00
O2014  O     0.68797   0.38513   0.87720   0.00000  Uiso   1.00
Zn2015 Zn    0.83333   0.55104   0.83333   0.00000  Uiso   1.00
Zn2016 Zn    0.83333   0.44896   0.83333   0.00000  Uiso   1.00
C2017  C     0.08716   0.83333   0.83854   0.00000  Uiso   1.00
C2018  C     0.02105   0.87430   0.84375   0.00000  Uiso   1.00
C2019  C     0.29044   0.83333   0.82108   0.00000  Uiso   1.00
C2020  C     0.04290   0.83333   0.84558   0.00000  Uiso   1.00
C2021  C     0.19175   0.69060   0.86923   0.00000  Uiso   1.00
C2022  C     0.14158   0.97607   0.79743   0.00000  Uiso   1.00
C2023  C     0.14158   0.69060   0.79743   0.00000  Uiso   1.00
C2024  C     0.19175   0.97607   0.86923   0.00000  Uiso   1.00
C2025  C     0.04025   0.75337   0.87309   0.00000  Uiso   1.00
C2026  C     0.29308   0.91330   0.79358   0.00000  Uiso   1.00
C2027  C     0.29308   0.75337   0.79358   0.00000  Uiso   1.00
C2028  C     0.24618   0.83333   0.82813   0.00000  Uiso   1.00
C2029  C     0.04025   0.91330   0.87309   0.00000  Uiso   1.00
C2030  C     0.21806   0.71459   0.90966   0.00000  Uiso   1.00
C2031  C     0.25898   0.72715   0.90449   0.00000  Uiso   1.00
C2032  C     0.28311   0.75110   0.94236   0.00000  Uiso   1.00
C2033  C     0.26739   0.76000   0.98692   0.00000  Uiso   1.00
C2034  C     0.22807   0.74385   0.99408   0.00000  Uiso   1.00
C2035  C     0.20361   0.72089   0.95562   0.00000  Uiso   1.00
C2036  C     0.11528   0.95207   0.75700   0.00000  Uiso   1.00
C2037  C     0.07436   0.93952   0.76218   0.00000  Uiso   1.00
C2038  C     0.05023   0.91556   0.72431   0.00000  Uiso   1.00
C2039  C     0.16628   0.83333   0.73950   0.00000  Uiso   1.00
C2040  C     0.06595   0.90667   0.67974   0.00000  Uiso   1.00
C2041  C     0.10527   0.92281   0.67259   0.00000  Uiso   1.00
C2042  C     0.12972   0.94578   0.71104   0.00000  Uiso   1.00
C2043  C     0.11528   0.71459   0.75700   0.00000  Uiso   1.00
C2044  C     0.07436   0.72715   0.76218   0.00000  Uiso   1.00
C2045  C     0.05023   0.75110   0.72431   0.00000  Uiso   1.00
C2046  C     0.06595   0.76000   0.67974   0.00000  Uiso   1.00
C2047  C     0.10527   0.74385   0.67259   0.00000  Uiso   1.00
C2048  C     0.12972   0.72089   0.71104   0.00000  Uiso   1.00
C2049  C     0.21806   0.95207   0.90966   0.00000  Uiso   1.00
C2050  C     0.16705   0.83333   0.92717   0.00000  Uiso   1.00
C2051  C     0.20361   0.94578   0.95562   0.00000  Uiso   1.00
C2052  C     0.22807   0.92281   0.99408   0.00000  Uiso   1.00
C2053  C     0.26739   0.90667   0.98692   0.00000  Uiso   1.00
C2054  C     0.28311   0.91556   0.94236   0.00000  Uiso   1.00
C2055  C     0.25898   0.93952   0.90448   0.00000  Uiso   1.00
C2056  C     0.16656   0.83333   0.68838   0.00000  Uiso   1.00
C2057  C     0.16678   0.83333   0.97828   0.00000  Uiso   1.00
C2058  C     0.02105   0.79236   0.84375   0.00000  Uiso   1.00
C2059  C     0.31228   0.87430   0.82291   0.00000  Uiso   1.00
C2060  C     0.31228   0.79236   0.82291   0.00000  Uiso   1.00
H2061  H     0.07127   0.75619   0.89362   0.00000  Uiso   1.00
H2062  H     0.06147   0.94855   0.79540   0.00000  Uiso   1.00
H2063  H     0.01943   0.90386   0.72927   0.00000  Uiso   1.00
H2064  H     0.04755   0.88776   0.98395   0.00000  Uiso   1.00
H2065  H     0.11687   0.91666   0.97094   0.00000  Uiso   1.00
H2066  H     0.16014   0.95838   0.70602   0.00000  Uiso   1.00
H2067  H     0.06147   0.71812   0.79540   0.00000  Uiso   1.00
H2068  H     0.01943   0.76281   0.72927   0.00000  Uiso   1.00
H2069  H     0.04755   0.77891   0.98395   0.00000  Uiso   1.00
H2070  H     0.11687   0.75001   0.97094   0.00000  Uiso   1.00
H2071  H     0.16014   0.70829   0.70602   0.00000  Uiso   1.00
H2072  H     0.26206   0.91048   0.77305   0.00000  Uiso   1.00
H2073  H     0.17319   0.95838   0.96065   0.00000  Uiso   1.00
H2074  H     0.21646   0.91666   0.69573   0.00000  Uiso   1.00
H2075  H     0.28578   0.88775   0.68271   0.00000  Uiso   1.00
H2076  H     0.31390   0.90386   0.93740   0.00000  Uiso   1.00
H2077  H     0.27186   0.94855   0.87127   0.00000  Uiso   1.00
H2078  H     0.26206   0.75619   0.77305   0.00000  Uiso   1.00
H2079  H     0.07127   0.91048   0.89362   0.00000  Uiso   1.00
H2080  H     0.27186   0.71812   0.87127   0.00000  Uiso   1.00
H2081  H     0.31390   0.76281   0.93740   0.00000  Uiso   1.00
H2082  H     0.28578   0.77891   0.68271   0.00000  Uiso   1.00
H2083  H     0.21646   0.75001   0.69573   0.00000  Uiso   1.00
H2084  H     0.17319   0.70829   0.96065   0.00000  Uiso   1.00
N2085  N     0.16667   0.95240   0.83333   0.00000  Uiso   1.00
N2086  N     0.16667   0.71427   0.83333   0.00000  Uiso   1.00
O2087  O     0.10559   0.87154   0.83333   0.00000  Uiso   1.00
O2088  O     0.31203   0.94820   0.78947   0.00000  Uiso   1.00
O2089  O     0.31203   0.71847   0.78947   0.00000  Uiso   1.00
O2090  O     0.02130   0.94820   0.87720   0.00000  Uiso   1.00
O2091  O     0.22774   0.79513   0.83334   0.00000  Uiso   1.00
O2092  O     0.22774   0.87154   0.83334   0.00000  Uiso   1.00
O2093  O     0.10559   0.79513   0.83333   0.00000  Uiso   1.00
O2094  O     0.16667   0.87155   0.76178   0.00000  Uiso   1.00
O2095  O     0.16666   0.79512   0.90489   0.00000  Uiso   1.00
O2096  O     0.16666   0.87155   0.90489   0.00000  Uiso   1.00
O2097  O     0.16667   0.79512   0.76178   0.00000  Uiso   1.00
O2098  O     0.02130   0.71847   0.87720   0.00000  Uiso   1.00
Zn2099 Zn    0.16667   0.88437   0.83333   0.00000  Uiso   1.00
Zn2100 Zn    0.16667   0.78229   0.83333   0.00000  Uiso   1.00
C2101  C     0.42049   0.83333   0.83854   0.00000  Uiso   1.00
C2102  C     0.35439   0.87430   0.84375   0.00000  Uiso   1.00
C2103  C     0.62377   0.83333   0.82108   0.00000  Uiso   1.00
C2104  C     0.37623   0.83333   0.84558   0.00000  Uiso   1.00
C2105  C     0.52508   0.69060   0.86923   0.00000  Uiso   1.00
C2106  C     0.47492   0.97607   0.79743   0.00000  Uiso   1.00
C2107  C     0.47492   0.69060   0.79743   0.00000  Uiso   1.00
C2108  C     0.52508   0.97607   0.86923   0.00000  Uiso   1.00
C2109  C     0.37358   0.75337   0.87309   0.00000  Uiso   1.00
C2110  C     0.62642   0.91330   0.79358   0.00000  Uiso   1.00
C2111  C     0.62642   0.75337   0.79358   0.00000  Uiso   1.00
C2112  C     0.57951   0.83333   0.82813   0.00000  Uiso   1.00
C2113  C     0.37358   0.91330   0.87309   0.00000  Uiso   1.00
C2114  C     0.55139   0.71459   0.90966   0.00000  Uiso   1.00
C2115  C     0.59231   0.72715   0.90449   0.00000  Uiso   1.00
C2116  C     0.61644   0.75110   0.94236   0.00000  Uiso   1.00
C2117  C     0.60072   0.76000   0.98692   0.00000  Uiso   1.00
C2118  C     0.56140   0.74385   0.99408   0.00000  Uiso   1.00
C2119  C     0.53695   0.72089   0.95562   0.00000  Uiso   1.00
C2120  C     0.44861   0.95207   0.75700   0.00000  Uiso   1.00
C2121  C     0.40769   0.93952   0.76218   0.00000  Uiso   1.00
C2122  C     0.38356   0.91556   0.72431   0.00000  Uiso   1.00
C2123  C     0.49962   0.83333   0.73950   0.00000  Uiso   1.00
C2124  C     0.39928   0.90667   0.67974   0.00000  Uiso   1.00
C2125  C     0.43860   0.92281   0.67259   0.00000  Uiso   1.00
C2126  C     0.46305   0.94578   0.71104   0.00000  Uiso   1.00
C2127  C     0.44861   0.71459   0.75700   0.00000  Uiso   1.00
C2128  C     0.40769   0.72715   0.76218   0.00000  Uiso   1.00
C2129  C     0.38356   0.75110   0.72431   0.00000  Uiso   1.00
C2130  C     0.39928   0.76000   0.67974   0.00000  Uiso   1.00
C2131  C     0.43860   0.74385   0.67259   0.00000  Uiso   1.00
C2132  C     0.46305   0.72089   0.71104   0.00000  Uiso   1.00
C2133  C     0.55139   0.95207   0.90966   0.00000  Uiso   1.00
C2134  C     0.50038   0.83333   0.92717   0.00000  Uiso   1.00
C2135  C     0.53695   0.94578   0.95562   0.00000  Uiso   1.00
C2136  C     0.56140   0.92281   0.99408   0.00000  Uiso   1.00
C2137  C     0.60072   0.90667   0.98692   0.00000  Uiso   1.00
C2138  C     0.61644   0.91556   0.94236   0.00000  Uiso   1.00
C2139  C     0.59231   0.93952   0.90448   0.00000  Uiso   1.00
C2140  C     0.49989   0.83333   0.68838   0.00000  Uiso   1.00
C2141  C     0.50011   0.83333   0.97828   0.00000  Uiso   1.00
C2142  C     0.35439   0.79236   0.84375   0.00000  Uiso   1.00
C2143  C     0.64561   0.87430   0.82291   0.00000  Uiso   1.00
C2144  C     0.64561   0.79236   0.82291   0.00000  Uiso   1.00
H2145  H     0.40460   0.75619   0.89362   0.00000  Uiso   1.00
H2146  H     0.39481   0.94855   0.79540   0.00000  Uiso   1.00
H2147  H     0.35276   0.90386   0.72927   0.00000  Uiso   1.00
H2148  H     0.38089   0.88776   0.98395   0.00000  Uiso   1.00
H2149  H     0.45021   0.91666   0.97094   0.00000  Uiso   1.00
H2150  H     0.49347   0.95838   0.70602   0.00000  Uiso   1.00
H2151  H     0.39481   0.71812   0.79540   0.00000  Uiso   1.00
H2152  H     0.35276   0.76281   0.72927   0.00000  Uiso   1.00
H2153  H     0.38089   0.77891   0.98395   0.00000  Uiso   1.00
H2154  H     0.45021   0.75001   0.97094   0.00000  Uiso   1.00
H2155  H     0.49347   0.70829   0.70602   0.00000  Uiso   1.00
H2156  H     0.59540   0.91048   0.77305   0.00000  Uiso   1.00
H2157  H     0.50653   0.95838   0.96065   0.00000  Uiso   1.00
H2158  H     0.54979   0.91666   0.69573   0.00000  Uiso   1.00
H2159  H     0.61911   0.88775   0.68271   0.00000  Uiso   1.00
H2160  H     0.64724   0.90386   0.93740   0.00000  Uiso   1.00
H2161  H     0.60519   0.94855   0.87127   0.00000  Uiso   1.00
H2162  H     0.59540   0.75619   0.77305   0.00000  Uiso   1.00
H2163  H     0.40460   0.91048   0.89362   0.00000  Uiso   1.00
H2164  H     0.60519   0.71812   0.87127   0.00000  Uiso   1.00
H2165  H     0.64724   0.76281   0.93740   0.00000  Uiso   1.00
H2166  H     0.61911   0.77891   0.68271   0.00000  Uiso   1.00
H2167  H     0.54979   0.75001   0.69573   0.00000  Uiso   1.00
H2168  H     0.50653   0.70829   0.96065   0.00000  Uiso   1.00
N2169  N     0.50000   0.95240   0.83333   0.00000  Uiso   1.00
N2170  N     0.50000   0.71427   0.83333   0.00000  Uiso   1.00
O2171  O     0.43892   0.87154   0.83333   0.00000  Uiso   1.00
O2172  O     0.64537   0.94820   0.78947   0.00000  Uiso   1.00
O2173  O     0.64537   0.71847   0.78947   0.00000  Uiso   1.00
O2174  O     0.35463   0.94820   0.87720   0.00000  Uiso   1.00
O2175  O     0.56108   0.79513   0.83334   0.00000  Uiso   1.00
O2176  O     0.56108   0.87154   0.83334   0.00000  Uiso   1.00
O2177  O     0.43892   0.79513   0.83333   0.00000  Uiso   1.00
O2178  O     0.50000   0.87155   0.76178   0.00000  Uiso   1.00
O2179  O     0.50000   0.79512   0.90489   0.00000  Uiso   1.00
O2180  O     0.50000   0.87155   0.90489   0.00000  Uiso   1.00
O2181  O     0.50000   0.79512   0.76178   0.00000  Uiso   1.00
O2182  O     0.35463   0.71847   0.87720   0.00000  Uiso   1.00
Zn2183 Zn    0.50000   0.88437   0.83333   0.00000  Uiso   1.00
Zn2184 Zn    0.50000   0.78229   0.83333   0.00000  Uiso   1.00
C2185  C     0.75382   0.83333   0.83854   0.00000  Uiso   1.00
C2186  C     0.68772   0.87430   0.84375   0.00000  Uiso   1.00
C2187  C     0.95710   0.83333   0.82108   0.00000  Uiso   1.00
C2188  C     0.70956   0.83333   0.84558   0.00000  Uiso   1.00
C2189  C     0.85842   0.69060   0.86923   0.00000  Uiso   1.00
C2190  C     0.80825   0.97607   0.79743   0.00000  Uiso   1.00
C2191  C     0.80825   0.69060   0.79743   0.00000  Uiso   1.00
C2192  C     0.85842   0.97607   0.86923   0.00000  Uiso   1.00
C2193  C     0.70692   0.75337   0.87309   0.00000  Uiso   1.00
C2194  C     0.95975   0.91330   0.79358   0.00000  Uiso   1.00
C2195  C     0.95975   0.75337   0.79358   0.00000  Uiso   1.00
C2196  C     0.91284   0.83333   0.82813   0.00000  Uiso   1.00
C2197  C     0.70692   0.91330   0.87309   0.00000  Uiso   1.00
C2198  C     0.88472   0.71459   0.90966   0.00000  Uiso   1.00
C2199  C     0.92564   0.72715   0.90449   0.00000  Uiso   1.00
C2200  C     0.94977   0.75110   0.94236   0.00000  Uiso   1.00
C2201  C     0.93405   0.76000   0.98692   0.00000  Uiso   1.00
C2202  C     0.89473   0.74385   0.99408   0.00000  Uiso   1.00
C2203  C     0.87028   0.72089   0.95562   0.00000  Uiso   1.00
C2204  C     0.78195   0.95207   0.75700   0.00000  Uiso   1.00
C2205  C     0.74102   0.93952   0.76218   0.00000  Uiso   1.00
C2206  C     0.71689   0.91556   0.72431   0.00000  Uiso   1.00
C2207  C     0.83295   0.83333   0.73950   0.00000  Uiso   1.00
C2208  C     0.73261   0.90667   0.67974   0.00000  Uiso   1.00
C2209  C     0.77193   0.92281   0.67259   0.00000  Uiso   1.00
C2210  C     0.79639   0.94578   0.71104   0.00000  Uiso   1.00
C2211  C     0.78195   0.71459   0.75700   0.00000  Uiso   1.00
C2212  C     0.74102   0.72715   0.76218   0.00000  Uiso   1.00
C2213  C     0.71689   0.75110   0.72431   0.00000  Uiso   1.00
C2214  C     0.73261   0.76000   0.67974   0.00000  Uiso   1.00
C2215  C     0.77193   0.74385   0.67259   0.00000  Uiso   1.00
C2216  C     0.79639   0.72089   0.71104   0.00000  Uiso   1.00
C2217  C     0.88472   0.95207   0.90966   0.00000  Uiso   1.00
C2218  C     0.83372   0.83333   0.92717   0.00000  Uiso   1.00
C2219  C     0.87028   0.94578   0.95562   0.00000  Uiso   1.00
C2220  C     0.89473   0.92281   0.99408   0.00000  Uiso   1.00
C2221  C     0.93405   0.90667   0.98692   0.00000  Uiso   1.00
C2222  C     0.94977   0.91556   0.94236   0.00000  Uiso   1.00
C2223  C     0.92564   0.93952   0.90448   0.00000  Uiso   1.00
C2224  C     0.83323   0.83333   0.68838   0.00000  Uiso   1.00
C2225  C     0.83344   0.83333   0.97828   0.00000  Uiso   1.00
C2226  C     0.68772   0.79236   0.84375   0.00000  Uiso   1.00
C2227  C     0.97895   0.87430   0.82291   0.00000  Uiso   1.00
C2228  C     0.97895   0.79236   0.82291   0.00000  Uiso   1.00
H2229  H     0.73794   0.75619   0.89362   0.00000  Uiso   1.00
H2230  H     0.72814   0.94855   0.79540   0.00000  Uiso   1.00
H2231  H     0.68610   0.90386   0.72927   0.00000  Uiso   1.00
H2232  H     0.71422   0.88776   0.98395   0.00000  Uiso   1.00
H2233  H     0.78354   0.91666   0.97094   0.00000  Uiso   1.00
H2234  H     0.82681   0.95838   0.70602   0.00000  Uiso   1.00
H2235  H     0.72814   0.71812   0.79540   0.00000  Uiso   1.00
H2236  H     0.68610   0.76281   0.72927   0.00000  Uiso   1.00
H2237  H     0.71422   0.77891   0.98395   0.00000  Uiso   1.00
H2238  H     0.78354   0.75001   0.97094   0.00000  Uiso   1.00
H2239  H     0.82681   0.70829   0.70602   0.00000  Uiso   1.00
H2240  H     0.92873   0.91048   0.77305   0.00000  Uiso   1.00
H2241  H     0.83986   0.95838   0.96065   0.00000  Uiso   1.00
H2242  H     0.88313   0.91666   0.69573   0.00000  Uiso   1.00
H2243  H     0.95245   0.88775   0.68271   0.00000  Uiso   1.00
H2244  H     0.98057   0.90386   0.93740   0.00000  Uiso   1.00
H2245  H     0.93853   0.94855   0.87127   0.00000  Uiso   1.00
H2246  H     0.92873   0.75619   0.77305   0.00000  Uiso   1.00
H2247  H     0.73794   0.91048   0.89362   0.00000  Uiso   1.00
H2248  H     0.93853   0.71812   0.87127   0.00000  Uiso   1.00
H2249  H     0.98057   0.76281   0.93740   0.00000  Uiso   1.00
H2250  H     0.95245   0.77891   0.68271   0.00000  Uiso   1.00
H2251  H     0.88313   0.75001   0.69573   0.00000  Uiso   1.00
H2252  H     0.83986   0.70829   0.96065   0.00000  Uiso   1.00
N2253  N     0.83333   0.95240   0.83333   0.00000  Uiso   1.00
N2254  N     0.83333   0.71427   0.83333   0.00000  Uiso   1.00
O2255  O     0.77226   0.87154   0.83333   0.00000  Uiso   1.00
O2256  O     0.97870   0.94820   0.78947   0.00000  Uiso   1.00
O2257  O     0.97870   0.71847   0.78947   0.00000  Uiso   1.00
O2258  O     0.68797   0.94820   0.87720   0.00000  Uiso   1.00
O2259  O     0.89441   0.79513   0.83334   0.00000  Uiso   1.00
O2260  O     0.89441   0.87154   0.83334   0.00000  Uiso   1.00
O2261  O     0.77226   0.79513   0.83333   0.00000  Uiso   1.00
O2262  O     0.83334   0.87155   0.76178   0.00000  Uiso   1.00
O2263  O     0.83333   0.79512   0.90489   0.00000  Uiso   1.00
O2264  O     0.83333   0.87155   0.90489   0.00000  Uiso   1.00
O2265  O     0.83334   0.79512   0.76178   0.00000  Uiso   1.00
O2266  O     0.68797   0.71847   0.87720   0.00000  Uiso   1.00
Zn2267 Zn    0.83333   0.88437   0.83333   0.00000  Uiso   1.00
Zn2268 Zn    0.83333   0.78229   0.83333   0.00000  Uiso   1.00
loop_
_geom_bond_atom_site_label_1
_geom_bond_atom_site_label_2
_geom_bond_distance
_geom_bond_site_symmetry_2
_ccdc_geom_bond_type
C1     O77     1.301   .     A
C1     O71     1.301   .     A
C1     C4      1.465   .     S
C2     C13     1.496   .     S
C2     C4      1.408   .     A
C2     C211    1.401   1_455 S
C3     C43     1.408   .     A
C3     C12     1.465   .     S
C3     C44     1.408   .     A
C4     C42     1.408   .     A
C5     C14     1.479   .     S
C5     N70     1.375   .     A
C5     C512    1.427   1_545 S
C6     N69     1.375   .     A
C6     C20     1.479   .     S
C6     C259    1.427   .     S
C7     N70     1.375   .     A
C7     C27     1.479   .     S
C7     C510    1.427   1_545 S
C8     N69     1.375   .     A
C8     C33     1.479   .     S
C8     C257    1.427   .     S
C9     H45     1.082   .     S
C9     O82     1.220   .     D
C9     C42     1.496   .     S
C10    H56     1.082   .     S
C10    C43     1.496   .     S
C10    O72     1.220   .     D
C11    H62     1.082   .     S
C11    C44     1.496   .     S
C11    O73     1.220   .     D
C12    O76     1.301   .     A
C12    O75     1.301   .     A
C13    H63     1.082   .     S
C13    O74     1.220   .     D
C14    C19     1.397   .     A
C14    C15     1.396   .     A
C15    C16     1.399   .     A
C15    H64     1.073   .     S
C16    C17     1.394   .     A
C16    H65     1.078   .     S
C17    C18     1.393   .     A
C17    H822    1.081   .     S
C18    C19     1.400   .     A
C18    H823    1.079   .     S
C19    H68     1.076   .     S
C20    C26     1.397   .     A
C20    C21     1.396   .     A
C21    C22     1.399   .     A
C21    H46     1.073   .     S
C22    H47     1.078   .     S
C22    C24     1.394   .     A
C23    O81     1.289   .     A
C23    O78     1.289   .     A
C23    C40     1.385   .     S
C24    C25     1.393   .     A
C24    H1560   1.081   1_554 S
C25    C26     1.400   .     A
C25    H1561   1.079   1_554 S
C26    H50     1.076   .     S
C27    C32     1.397   .     A
C27    C28     1.396   .     A
C28    H51     1.073   .     S
C28    C29     1.399   .     A
C29    C30     1.394   .     A
C29    H52     1.078   .     S
C30    C31     1.393   .     A
C30    H1565   1.081   1_554 S
C31    C32     1.400   .     A
C31    H1566   1.079   1_554 S
C32    H55     1.076   .     S
C33    C39     1.396   .     A
C33    C35     1.397   .     A
C34    O80     1.289   .     A
C34    C41     1.385   .     S
C34    O79     1.289   .     A
C35    C36     1.400   .     A
C35    H57     1.076   .     S
C36    C37     1.393   .     A
C36    H814    1.079   .     S
C37    C38     1.394   .     A
C37    H815    1.081   .     S
C38    C39     1.399   .     A
C38    H60     1.078   .     S
C39    H61     1.073   .     S
C40    C1553   1.177   1_554 S
C41    C796    1.177   .     S
C42    C212    1.401   1_455 S
C43    C86     1.401   .     S
C44    C126    1.401   .     S
H48    C780    1.081   .     S
H49    C781    1.079   .     S
H53    C786    1.081   .     S
H54    C787    1.079   .     S
H58    C1548   1.079   1_554 S
H59    C1549   1.081   1_554 S
H66    C1529   1.081   1_554 S
H67    C1530   1.079   1_554 S
N69    Zn83    2.029   .     S
N70    Zn84    2.029   .     S
O71    Zn83    2.007   .     S
O75    Zn84    2.007   .     S
O76    Zn83    2.007   .     S
O77    Zn84    2.007   .     S
O78    Zn83    1.974   .     S
O79    Zn84    1.974   .     S
O80    Zn83    1.974   .     S
O81    Zn84    1.974   .     S
C85    O161    1.301   .     A
C85    O155    1.301   .     A
C85    C88     1.465   .     S
C86    C97     1.496   .     S
C86    C88     1.408   .     A
C87    C127    1.408   .     A
C87    C96     1.465   .     S
C87    C128    1.408   .     A
C88    C126    1.408   .     A
C89    C98     1.479   .     S
C89    N154    1.375   .     A
C89    C596    1.427   1_545 S
C90    N153    1.375   .     A
C90    C104    1.479   .     S
C90    C343    1.427   .     S
C91    N154    1.375   .     A
C91    C111    1.479   .     S
C91    C594    1.427   1_545 S
C92    N153    1.375   .     A
C92    C117    1.479   .     S
C92    C341    1.427   .     S
C93    H129    1.082   .     S
C93    O166    1.220   .     D
C93    C126    1.496   .     S
C94    H140    1.082   .     S
C94    C127    1.496   .     S
C94    O156    1.220   .     D
C95    H146    1.082   .     S
C95    C128    1.496   .     S
C95    O157    1.220   .     D
C96    O160    1.301   .     A
C96    O159    1.301   .     A
C97    H147    1.082   .     S
C97    O158    1.220   .     D
C98    C103    1.397   .     A
C98    C99     1.396   .     A
C99    C100    1.399   .     A
C99    H148    1.073   .     S
C100   C101    1.394   .     A
C100   H149    1.078   .     S
C101   C102    1.393   .     A
C101   H906    1.081   .     S
C102   C103    1.400   .     A
C102   H907    1.079   .     S
C103   H152    1.076   .     S
C104   C110    1.397   .     A
C104   C105    1.396   .     A
C105   C106    1.399   .     A
C105   H130    1.073   .     S
C106   H131    1.078   .     S
C106   C108    1.394   .     A
C107   O165    1.289   .     A
C107   O162    1.289   .     A
C107   C124    1.385   .     S
C108   C109    1.393   .     A
C108   H1644   1.081   1_554 S
C109   C110    1.400   .     A
C109   H1645   1.079   1_554 S
C110   H134    1.076   .     S
C111   C116    1.397   .     A
C111   C112    1.396   .     A
C112   H135    1.073   .     S
C112   C113    1.399   .     A
C113   C114    1.394   .     A
C113   H136    1.078   .     S
C114   C115    1.393   .     A
C114   H1649   1.081   1_554 S
C115   C116    1.400   .     A
C115   H1650   1.079   1_554 S
C116   H139    1.076   .     S
C117   C123    1.396   .     A
C117   C119    1.397   .     A
C118   O164    1.289   .     A
C118   C125    1.385   .     S
C118   O163    1.289   .     A
C119   C120    1.400   .     A
C119   H141    1.076   .     S
C120   C121    1.393   .     A
C120   H898    1.079   .     S
C121   C122    1.394   .     A
C121   H899    1.081   .     S
C122   C123    1.399   .     A
C122   H144    1.078   .     S
C123   H145    1.073   .     S
C124   C1637   1.177   1_554 S
C125   C880    1.177   .     S
C127   C170    1.401   .     S
C128   C210    1.401   .     S
H132   C864    1.081   .     S
H133   C865    1.079   .     S
H137   C870    1.081   .     S
H138   C871    1.079   .     S
H142   C1632   1.079   1_554 S
H143   C1633   1.081   1_554 S
H150   C1613   1.081   1_554 S
H151   C1614   1.079   1_554 S
N153   Zn167   2.029   .     S
N154   Zn168   2.029   .     S
O155   Zn167   2.007   .     S
O159   Zn168   2.007   .     S
O160   Zn167   2.007   .     S
O161   Zn168   2.007   .     S
O162   Zn167   1.974   .     S
O163   Zn168   1.974   .     S
O164   Zn167   1.974   .     S
O165   Zn168   1.974   .     S
C169   O245    1.301   .     A
C169   O239    1.301   .     A
C169   C172    1.465   .     S
C170   C181    1.496   .     S
C170   C172    1.408   .     A
C171   C211    1.408   .     A
C171   C180    1.465   .     S
C171   C212    1.408   .     A
C172   C210    1.408   .     A
C173   C182    1.479   .     S
C173   N238    1.375   .     A
C173   C680    1.427   1_545 S
C174   N237    1.375   .     A
C174   C188    1.479   .     S
C174   C427    1.427   .     S
C175   N238    1.375   .     A
C175   C195    1.479   .     S
C175   C678    1.427   1_545 S
C176   N237    1.375   .     A
C176   C201    1.479   .     S
C176   C425    1.427   .     S
C177   H213    1.082   .     S
C177   O250    1.220   .     D
C177   C210    1.496   .     S
C178   H224    1.082   .     S
C178   C211    1.496   .     S
C178   O240    1.220   .     D
C179   H230    1.082   .     S
C179   C212    1.496   .     S
C179   O241    1.220   .     D
C180   O244    1.301   .     A
C180   O243    1.301   .     A
C181   H231    1.082   .     S
C181   O242    1.220   .     D
C182   C187    1.397   .     A
C182   C183    1.396   .     A
C183   C184    1.399   .     A
C183   H232    1.073   .     S
C184   C185    1.394   .     A
C184   H233    1.078   .     S
C185   C186    1.393   .     A
C185   H990    1.081   .     S
C186   C187    1.400   .     A
C186   H991    1.079   .     S
C187   H236    1.076   .     S
C188   C194    1.397   .     A
C188   C189    1.396   .     A
C189   C190    1.399   .     A
C189   H214    1.073   .     S
C190   H215    1.078   .     S
C190   C192    1.394   .     A
C191   O249    1.289   .     A
C191   O246    1.289   .     A
C191   C208    1.385   .     S
C192   C193    1.393   .     A
C192   H1728   1.081   1_554 S
C193   C194    1.400   .     A
C193   H1729   1.079   1_554 S
C194   H218    1.076   .     S
C195   C200    1.397   .     A
C195   C196    1.396   .     A
C196   H219    1.073   .     S
C196   C197    1.399   .     A
C197   C198    1.394   .     A
C197   H220    1.078   .     S
C198   C199    1.393   .     A
C198   H1733   1.081   1_554 S
C199   C200    1.400   .     A
C199   H1734   1.079   1_554 S
C200   H223    1.076   .     S
C201   C207    1.396   .     A
C201   C203    1.397   .     A
C202   O248    1.289   .     A
C202   C209    1.385   .     S
C202   O247    1.289   .     A
C203   C204    1.400   .     A
C203   H225    1.076   .     S
C204   C205    1.393   .     A
C204   H982    1.079   .     S
C205   C206    1.394   .     A
C205   H983    1.081   .     S
C206   C207    1.399   .     A
C206   H228    1.078   .     S
C207   H229    1.073   .     S
C208   C1721   1.177   1_554 S
C209   C964    1.177   .     S
C211   C2      1.401   1_655 S
C212   C42     1.401   1_655 S
H216   C948    1.081   .     S
H217   C949    1.079   .     S
H221   C954    1.081   .     S
H222   C955    1.079   .     S
H226   C1716   1.079   1_554 S
H227   C1717   1.081   1_554 S
H234   C1697   1.081   1_554 S
H235   C1698   1.079   1_554 S
N237   Zn251   2.029   .     S
N238   Zn252   2.029   .     S
O239   Zn251   2.007   .     S
O243   Zn252   2.007   .     S
O244   Zn251   2.007   .     S
O245   Zn252   2.007   .     S
O246   Zn251   1.974   .     S
O247   Zn252   1.974   .     S
O248   Zn251   1.974   .     S
O249   Zn252   1.974   .     S
C253   O329    1.301   .     A
C253   O323    1.301   .     A
C253   C256    1.465   .     S
C254   C265    1.496   .     S
C254   C256    1.408   .     A
C254   C463    1.401   1_455 S
C255   C295    1.408   .     A
C255   C264    1.465   .     S
C255   C296    1.408   .     A
C256   C294    1.408   .     A
C257   C266    1.479   .     S
C257   N322    1.375   .     A
C258   N321    1.375   .     A
C258   C272    1.479   .     S
C258   C511    1.427   .     S
C259   N322    1.375   .     A
C259   C279    1.479   .     S
C260   N321    1.375   .     A
C260   C285    1.479   .     S
C260   C509    1.427   .     S
C261   H297    1.082   .     S
C261   O334    1.220   .     D
C261   C294    1.496   .     S
C262   H308    1.082   .     S
C262   C295    1.496   .     S
C262   O324    1.220   .     D
C263   H314    1.082   .     S
C263   C296    1.496   .     S
C263   O325    1.220   .     D
C264   O328    1.301   .     A
C264   O327    1.301   .     A
C265   H315    1.082   .     S
C265   O326    1.220   .     D
C266   C271    1.397   .     A
C266   C267    1.396   .     A
C267   C268    1.399   .     A
C267   H316    1.073   .     S
C268   C269    1.394   .     A
C268   H317    1.078   .     S
C269   C270    1.393   .     A
C269   H1074   1.081   .     S
C270   C271    1.400   .     A
C270   H1075   1.079   .     S
C271   H320    1.076   .     S
C272   C278    1.397   .     A
C272   C273    1.396   .     A
C273   C274    1.399   .     A
C273   H298    1.073   .     S
C274   H299    1.078   .     S
C274   C276    1.394   .     A
C275   O333    1.289   .     A
C275   O330    1.289   .     A
C275   C292    1.385   .     S
C276   C277    1.393   .     A
C276   H1812   1.081   1_554 S
C277   C278    1.400   .     A
C277   H1813   1.079   1_554 S
C278   H302    1.076   .     S
C279   C284    1.397   .     A
C279   C280    1.396   .     A
C280   H303    1.073   .     S
C280   C281    1.399   .     A
C281   C282    1.394   .     A
C281   H304    1.078   .     S
C282   C283    1.393   .     A
C282   H1817   1.081   1_554 S
C283   C284    1.400   .     A
C283   H1818   1.079   1_554 S
C284   H307    1.076   .     S
C285   C291    1.396   .     A
C285   C287    1.397   .     A
C286   O332    1.289   .     A
C286   C293    1.385   .     S
C286   O331    1.289   .     A
C287   C288    1.400   .     A
C287   H309    1.076   .     S
C288   C289    1.393   .     A
C288   H1066   1.079   .     S
C289   C290    1.394   .     A
C289   H1067   1.081   .     S
C290   C291    1.399   .     A
C290   H312    1.078   .     S
C291   H313    1.073   .     S
C292   C1805   1.177   1_554 S
C293   C1048   1.177   .     S
C294   C464    1.401   1_455 S
C295   C338    1.401   .     S
C296   C378    1.401   .     S
H300   C1032   1.081   .     S
H301   C1033   1.079   .     S
H305   C1038   1.081   .     S
H306   C1039   1.079   .     S
H310   C1800   1.079   1_554 S
H311   C1801   1.081   1_554 S
H318   C1781   1.081   1_554 S
H319   C1782   1.079   1_554 S
N321   Zn335   2.029   .     S
N322   Zn336   2.029   .     S
O323   Zn335   2.007   .     S
O327   Zn336   2.007   .     S
O328   Zn335   2.007   .     S
O329   Zn336   2.007   .     S
O330   Zn335   1.974   .     S
O331   Zn336   1.974   .     S
O332   Zn335   1.974   .     S
O333   Zn336   1.974   .     S
C337   O413    1.301   .     A
C337   O407    1.301   .     A
C337   C340    1.465   .     S
C338   C349    1.496   .     S
C338   C340    1.408   .     A
C339   C379    1.408   .     A
C339   C348    1.465   .     S
C339   C380    1.408   .     A
C340   C378    1.408   .     A
C341   C350    1.479   .     S
C341   N406    1.375   .     A
C342   N405    1.375   .     A
C342   C356    1.479   .     S
C342   C595    1.427   .     S
C343   N406    1.375   .     A
C343   C363    1.479   .     S
C344   N405    1.375   .     A
C344   C369    1.479   .     S
C344   C593    1.427   .     S
C345   H381    1.082   .     S
C345   O418    1.220   .     D
C345   C378    1.496   .     S
C346   H392    1.082   .     S
C346   C379    1.496   .     S
C346   O408    1.220   .     D
C347   H398    1.082   .     S
C347   C380    1.496   .     S
C347   O409    1.220   .     D
C348   O412    1.301   .     A
C348   O411    1.301   .     A
C349   H399    1.082   .     S
C349   O410    1.220   .     D
C350   C355    1.397   .     A
C350   C351    1.396   .     A
C351   C352    1.399   .     A
C351   H400    1.073   .     S
C352   C353    1.394   .     A
C352   H401    1.078   .     S
C353   C354    1.393   .     A
C353   H1158   1.081   .     S
C354   C355    1.400   .     A
C354   H1159   1.079   .     S
C355   H404    1.076   .     S
C356   C362    1.397   .     A
C356   C357    1.396   .     A
C357   C358    1.399   .     A
C357   H382    1.073   .     S
C358   H383    1.078   .     S
C358   C360    1.394   .     A
C359   O417    1.289   .     A
C359   O414    1.289   .     A
C359   C376    1.385   .     S
C360   C361    1.393   .     A
C360   H1896   1.081   1_554 S
C361   C362    1.400   .     A
C361   H1897   1.079   1_554 S
C362   H386    1.076   .     S
C363   C368    1.397   .     A
C363   C364    1.396   .     A
C364   H387    1.073   .     S
C364   C365    1.399   .     A
C365   C366    1.394   .     A
C365   H388    1.078   .     S
C366   C367    1.393   .     A
C366   H1901   1.081   1_554 S
C367   C368    1.400   .     A
C367   H1902   1.079   1_554 S
C368   H391    1.076   .     S
C369   C375    1.396   .     A
C369   C371    1.397   .     A
C370   O416    1.289   .     A
C370   C377    1.385   .     S
C370   O415    1.289   .     A
C371   C372    1.400   .     A
C371   H393    1.076   .     S
C372   C373    1.393   .     A
C372   H1150   1.079   .     S
C373   C374    1.394   .     A
C373   H1151   1.081   .     S
C374   C375    1.399   .     A
C374   H396    1.078   .     S
C375   H397    1.073   .     S
C376   C1889   1.177   1_554 S
C377   C1132   1.177   .     S
C379   C422    1.401   .     S
C380   C462    1.401   .     S
H384   C1116   1.081   .     S
H385   C1117   1.079   .     S
H389   C1122   1.081   .     S
H390   C1123   1.079   .     S
H394   C1884   1.079   1_554 S
H395   C1885   1.081   1_554 S
H402   C1865   1.081   1_554 S
H403   C1866   1.079   1_554 S
N405   Zn419   2.029   .     S
N406   Zn420   2.029   .     S
O407   Zn419   2.007   .     S
O411   Zn420   2.007   .     S
O412   Zn419   2.007   .     S
O413   Zn420   2.007   .     S
O414   Zn419   1.974   .     S
O415   Zn420   1.974   .     S
O416   Zn419   1.974   .     S
O417   Zn420   1.974   .     S
C421   O497    1.301   .     A
C421   O491    1.301   .     A
C421   C424    1.465   .     S
C422   C433    1.496   .     S
C422   C424    1.408   .     A
C423   C463    1.408   .     A
C423   C432    1.465   .     S
C423   C464    1.408   .     A
C424   C462    1.408   .     A
C425   C434    1.479   .     S
C425   N490    1.375   .     A
C426   N489    1.375   .     A
C426   C440    1.479   .     S
C426   C679    1.427   .     S
C427   N490    1.375   .     A
C427   C447    1.479   .     S
C428   N489    1.375   .     A
C428   C453    1.479   .     S
C428   C677    1.427   .     S
C429   H465    1.082   .     S
C429   O502    1.220   .     D
C429   C462    1.496   .     S
C430   H476    1.082   .     S
C430   C463    1.496   .     S
C430   O492    1.220   .     D
C431   H482    1.082   .     S
C431   C464    1.496   .     S
C431   O493    1.220   .     D
C432   O496    1.301   .     A
C432   O495    1.301   .     A
C433   H483    1.082   .     S
C433   O494    1.220   .     D
C434   C439    1.397   .     A
C434   C435    1.396   .     A
C435   C436    1.399   .     A
C435   H484    1.073   .     S
C436   C437    1.394   .     A
C436   H485    1.078   .     S
C437   C438    1.393   .     A
C437   H1242   1.081   .     S
C438   C439    1.400   .     A
C438   H1243   1.079   .     S
C439   H488    1.076   .     S
C440   C446    1.397   .     A
C440   C441    1.396   .     A
C441   C442    1.399   .     A
C441   H466    1.073   .     S
C442   H467    1.078   .     S
C442   C444    1.394   .     A
C443   O501    1.289   .     A
C443   O498    1.289   .     A
C443   C460    1.385   .     S
C444   C445    1.393   .     A
C444   H1980   1.081   1_554 S
C445   C446    1.400   .     A
C445   H1981   1.079   1_554 S
C446   H470    1.076   .     S
C447   C452    1.397   .     A
C447   C448    1.396   .     A
C448   H471    1.073   .     S
C448   C449    1.399   .     A
C449   C450    1.394   .     A
C449   H472    1.078   .     S
C450   C451    1.393   .     A
C450   H1985   1.081   1_554 S
C451   C452    1.400   .     A
C451   H1986   1.079   1_554 S
C452   H475    1.076   .     S
C453   C459    1.396   .     A
C453   C455    1.397   .     A
C454   O500    1.289   .     A
C454   C461    1.385   .     S
C454   O499    1.289   .     A
C455   C456    1.400   .     A
C455   H477    1.076   .     S
C456   C457    1.393   .     A
C456   H1234   1.079   .     S
C457   C458    1.394   .     A
C457   H1235   1.081   .     S
C458   C459    1.399   .     A
C458   H480    1.078   .     S
C459   H481    1.073   .     S
C460   C1973   1.177   1_554 S
C461   C1216   1.177   .     S
C463   C254    1.401   1_655 S
C464   C294    1.401   1_655 S
H468   C1200   1.081   .     S
H469   C1201   1.079   .     S
H473   C1206   1.081   .     S
H474   C1207   1.079   .     S
H478   C1968   1.079   1_554 S
H479   C1969   1.081   1_554 S
H486   C1949   1.081   1_554 S
H487   C1950   1.079   1_554 S
N489   Zn503   2.029   .     S
N490   Zn504   2.029   .     S
O491   Zn503   2.007   .     S
O495   Zn504   2.007   .     S
O496   Zn503   2.007   .     S
O497   Zn504   2.007   .     S
O498   Zn503   1.974   .     S
O499   Zn504   1.974   .     S
O500   Zn503   1.974   .     S
O501   Zn504   1.974   .     S
C505   O581    1.301   .     A
C505   O575    1.301   .     A
C505   C508    1.465   .     S
C506   C517    1.496   .     S
C506   C508    1.408   .     A
C506   C715    1.401   1_455 S
C507   C547    1.408   .     A
C507   C516    1.465   .     S
C507   C548    1.408   .     A
C508   C546    1.408   .     A
C509   C518    1.479   .     S
C509   N574    1.375   .     A
C510   N573    1.375   .     A
C510   C524    1.479   .     S
C510   C7      1.427   1_565 S
C511   N574    1.375   .     A
C511   C531    1.479   .     S
C512   N573    1.375   .     A
C512   C537    1.479   .     S
C512   C5      1.427   1_565 S
C513   H549    1.082   .     S
C513   O586    1.220   .     D
C513   C546    1.496   .     S
C514   H560    1.082   .     S
C514   C547    1.496   .     S
C514   O576    1.220   .     D
C515   H566    1.082   .     S
C515   C548    1.496   .     S
C515   O577    1.220   .     D
C516   O580    1.301   .     A
C516   O579    1.301   .     A
C517   H567    1.082   .     S
C517   O578    1.220   .     D
C518   C523    1.397   .     A
C518   C519    1.396   .     A
C519   C520    1.399   .     A
C519   H568    1.073   .     S
C520   C521    1.394   .     A
C520   H569    1.078   .     S
C521   C522    1.393   .     A
C521   H1326   1.081   .     S
C522   C523    1.400   .     A
C522   H1327   1.079   .     S
C523   H572    1.076   .     S
C524   C530    1.397   .     A
C524   C525    1.396   .     A
C525   C526    1.399   .     A
C525   H550    1.073   .     S
C526   H551    1.078   .     S
C526   C528    1.394   .     A
C527   O585    1.289   .     A
C527   O582    1.289   .     A
C527   C544    1.385   .     S
C528   C529    1.393   .     A
C528   H2064   1.081   1_554 S
C529   C530    1.400   .     A
C529   H2065   1.079   1_554 S
C530   H554    1.076   .     S
C531   C536    1.397   .     A
C531   C532    1.396   .     A
C532   H555    1.073   .     S
C532   C533    1.399   .     A
C533   C534    1.394   .     A
C533   H556    1.078   .     S
C534   C535    1.393   .     A
C534   H2069   1.081   1_554 S
C535   C536    1.400   .     A
C535   H2070   1.079   1_554 S
C536   H559    1.076   .     S
C537   C543    1.396   .     A
C537   C539    1.397   .     A
C538   O584    1.289   .     A
C538   C545    1.385   .     S
C538   O583    1.289   .     A
C539   C540    1.400   .     A
C539   H561    1.076   .     S
C540   C541    1.393   .     A
C540   H1318   1.079   .     S
C541   C542    1.394   .     A
C541   H1319   1.081   .     S
C542   C543    1.399   .     A
C542   H564    1.078   .     S
C543   H565    1.073   .     S
C544   C2057   1.177   1_554 S
C545   C1300   1.177   .     S
C546   C716    1.401   1_455 S
C547   C590    1.401   .     S
C548   C630    1.401   .     S
H552   C1284   1.081   .     S
H553   C1285   1.079   .     S
H557   C1290   1.081   .     S
H558   C1291   1.079   .     S
H562   C2052   1.079   1_554 S
H563   C2053   1.081   1_554 S
H570   C2033   1.081   1_554 S
H571   C2034   1.079   1_554 S
N573   Zn587   2.029   .     S
N574   Zn588   2.029   .     S
O575   Zn587   2.007   .     S
O579   Zn588   2.007   .     S
O580   Zn587   2.007   .     S
O581   Zn588   2.007   .     S
O582   Zn587   1.974   .     S
O583   Zn588   1.974   .     S
O584   Zn587   1.974   .     S
O585   Zn588   1.974   .     S
C589   O665    1.301   .     A
C589   O659    1.301   .     A
C589   C592    1.465   .     S
C590   C601    1.496   .     S
C590   C592    1.408   .     A
C591   C631    1.408   .     A
C591   C600    1.465   .     S
C591   C632    1.408   .     A
C592   C630    1.408   .     A
C593   C602    1.479   .     S
C593   N658    1.375   .     A
C594   N657    1.375   .     A
C594   C608    1.479   .     S
C594   C91     1.427   1_565 S
C595   N658    1.375   .     A
C595   C615    1.479   .     S
C596   N657    1.375   .     A
C596   C621    1.479   .     S
C596   C89     1.427   1_565 S
C597   H633    1.082   .     S
C597   O670    1.220   .     D
C597   C630    1.496   .     S
C598   H644    1.082   .     S
C598   C631    1.496   .     S
C598   O660    1.220   .     D
C599   H650    1.082   .     S
C599   C632    1.496   .     S
C599   O661    1.220   .     D
C600   O664    1.301   .     A
C600   O663    1.301   .     A
C601   H651    1.082   .     S
C601   O662    1.220   .     D
C602   C607    1.397   .     A
C602   C603    1.396   .     A
C603   C604    1.399   .     A
C603   H652    1.073   .     S
C604   C605    1.394   .     A
C604   H653    1.078   .     S
C605   C606    1.393   .     A
C605   H1410   1.081   .     S
C606   C607    1.400   .     A
C606   H1411   1.079   .     S
C607   H656    1.076   .     S
C608   C614    1.397   .     A
C608   C609    1.396   .     A
C609   C610    1.399   .     A
C609   H634    1.073   .     S
C610   H635    1.078   .     S
C610   C612    1.394   .     A
C611   O669    1.289   .     A
C611   O666    1.289   .     A
C611   C628    1.385   .     S
C612   C613    1.393   .     A
C612   H2148   1.081   1_554 S
C613   C614    1.400   .     A
C613   H2149   1.079   1_554 S
C614   H638    1.076   .     S
C615   C620    1.397   .     A
C615   C616    1.396   .     A
C616   H639    1.073   .     S
C616   C617    1.399   .     A
C617   C618    1.394   .     A
C617   H640    1.078   .     S
C618   C619    1.393   .     A
C618   H2153   1.081   1_554 S
C619   C620    1.400   .     A
C619   H2154   1.079   1_554 S
C620   H643    1.076   .     S
C621   C627    1.396   .     A
C621   C623    1.397   .     A
C622   O668    1.289   .     A
C622   C629    1.385   .     S
C622   O667    1.289   .     A
C623   C624    1.400   .     A
C623   H645    1.076   .     S
C624   C625    1.393   .     A
C624   H1402   1.079   .     S
C625   C626    1.394   .     A
C625   H1403   1.081   .     S
C626   C627    1.399   .     A
C626   H648    1.078   .     S
C627   H649    1.073   .     S
C628   C2141   1.177   1_554 S
C629   C1384   1.177   .     S
C631   C674    1.401   .     S
C632   C714    1.401   .     S
H636   C1368   1.081   .     S
H637   C1369   1.079   .     S
H641   C1374   1.081   .     S
H642   C1375   1.079   .     S
H646   C2136   1.079   1_554 S
H647   C2137   1.081   1_554 S
H654   C2117   1.081   1_554 S
H655   C2118   1.079   1_554 S
N657   Zn671   2.029   .     S
N658   Zn672   2.029   .     S
O659   Zn671   2.007   .     S
O663   Zn672   2.007   .     S
O664   Zn671   2.007   .     S
O665   Zn672   2.007   .     S
O666   Zn671   1.974   .     S
O667   Zn672   1.974   .     S
O668   Zn671   1.974   .     S
O669   Zn672   1.974   .     S
C673   O749    1.301   .     A
C673   O743    1.301   .     A
C673   C676    1.465   .     S
C674   C685    1.496   .     S
C674   C676    1.408   .     A
C675   C715    1.408   .     A
C675   C684    1.465   .     S
C675   C716    1.408   .     A
C676   C714    1.408   .     A
C677   C686    1.479   .     S
C677   N742    1.375   .     A
C678   N741    1.375   .     A
C678   C692    1.479   .     S
C678   C175    1.427   1_565 S
C679   N742    1.375   .     A
C679   C699    1.479   .     S
C680   N741    1.375   .     A
C680   C705    1.479   .     S
C680   C173    1.427   1_565 S
C681   H717    1.082   .     S
C681   O754    1.220   .     D
C681   C714    1.496   .     S
C682   H728    1.082   .     S
C682   C715    1.496   .     S
C682   O744    1.220   .     D
C683   H734    1.082   .     S
C683   C716    1.496   .     S
C683   O745    1.220   .     D
C684   O748    1.301   .     A
C684   O747    1.301   .     A
C685   H735    1.082   .     S
C685   O746    1.220   .     D
C686   C691    1.397   .     A
C686   C687    1.396   .     A
C687   C688    1.399   .     A
C687   H736    1.073   .     S
C688   C689    1.394   .     A
C688   H737    1.078   .     S
C689   C690    1.393   .     A
C689   H1494   1.081   .     S
C690   C691    1.400   .     A
C690   H1495   1.079   .     S
C691   H740    1.076   .     S
C692   C698    1.397   .     A
C692   C693    1.396   .     A
C693   C694    1.399   .     A
C693   H718    1.073   .     S
C694   H719    1.078   .     S
C694   C696    1.394   .     A
C695   O753    1.289   .     A
C695   O750    1.289   .     A
C695   C712    1.385   .     S
C696   C697    1.393   .     A
C696   H2232   1.081   1_554 S
C697   C698    1.400   .     A
C697   H2233   1.079   1_554 S
C698   H722    1.076   .     S
C699   C704    1.397   .     A
C699   C700    1.396   .     A
C700   H723    1.073   .     S
C700   C701    1.399   .     A
C701   C702    1.394   .     A
C701   H724    1.078   .     S
C702   C703    1.393   .     A
C702   H2237   1.081   1_554 S
C703   C704    1.400   .     A
C703   H2238   1.079   1_554 S
C704   H727    1.076   .     S
C705   C711    1.396   .     A
C705   C707    1.397   .     A
C706   O752    1.289   .     A
C706   C713    1.385   .     S
C706   O751    1.289   .     A
C707   C708    1.400   .     A
C707   H729    1.076   .     S
C708   C709    1.393   .     A
C708   H1486   1.079   .     S
C709   C710    1.394   .     A
C709   H1487   1.081   .     S
C710   C711    1.399   .     A
C710   H732    1.078   .     S
C711   H733    1.073   .     S
C712   C2225   1.177   1_554 S
C713   C1468   1.177   .     S
C715   C506    1.401   1_655 S
C716   C546    1.401   1_655 S
H720   C1452   1.081   .     S
H721   C1453   1.079   .     S
H725   C1458   1.081   .     S
H726   C1459   1.079   .     S
H730   C2220   1.079   1_554 S
H731   C2221   1.081   1_554 S
H738   C2201   1.081   1_554 S
H739   C2202   1.079   1_554 S
N741   Zn755   2.029   .     S
N742   Zn756   2.029   .     S
O743   Zn755   2.007   .     S
O747   Zn756   2.007   .     S
O748   Zn755   2.007   .     S
O749   Zn756   2.007   .     S
O750   Zn755   1.974   .     S
O751   Zn756   1.974   .     S
O752   Zn755   1.974   .     S
O753   Zn756   1.974   .     S
C757   O833    1.301   .     A
C757   O827    1.301   .     A
C757   C760    1.465   .     S
C758   C769    1.496   .     S
C758   C760    1.408   .     A
C758   C967    1.401   1_455 S
C759   C799    1.408   .     A
C759   C768    1.465   .     S
C759   C800    1.408   .     A
C760   C798    1.408   .     A
C761   C770    1.479   .     S
C761   N826    1.375   .     A
C761   C1268   1.427   1_545 S
C762   N825    1.375   .     A
C762   C776    1.479   .     S
C762   C1015   1.427   .     S
C763   N826    1.375   .     A
C763   C783    1.479   .     S
C763   C1266   1.427   1_545 S
C764   N825    1.375   .     A
C764   C789    1.479   .     S
C764   C1013   1.427   .     S
C765   H801    1.082   .     S
C765   O838    1.220   .     D
C765   C798    1.496   .     S
C766   H812    1.082   .     S
C766   C799    1.496   .     S
C766   O828    1.220   .     D
C767   H818    1.082   .     S
C767   C800    1.496   .     S
C767   O829    1.220   .     D
C768   O832    1.301   .     A
C768   O831    1.301   .     A
C769   H819    1.082   .     S
C769   O830    1.220   .     D
C770   C775    1.397   .     A
C770   C771    1.396   .     A
C771   C772    1.399   .     A
C771   H820    1.073   .     S
C772   C773    1.394   .     A
C772   H821    1.078   .     S
C773   C774    1.393   .     A
C773   H1578   1.081   .     S
C774   C775    1.400   .     A
C774   H1579   1.079   .     S
C775   H824    1.076   .     S
C776   C782    1.397   .     A
C776   C777    1.396   .     A
C777   C778    1.399   .     A
C777   H802    1.073   .     S
C778   H803    1.078   .     S
C778   C780    1.394   .     A
C779   O837    1.289   .     A
C779   O834    1.289   .     A
C779   C796    1.385   .     S
C780   C781    1.393   .     A
C781   C782    1.400   .     A
C782   H806    1.076   .     S
C783   C788    1.397   .     A
C783   C784    1.396   .     A
C784   H807    1.073   .     S
C784   C785    1.399   .     A
C785   C786    1.394   .     A
C785   H808    1.078   .     S
C786   C787    1.393   .     A
C787   C788    1.400   .     A
C788   H811    1.076   .     S
C789   C795    1.396   .     A
C789   C791    1.397   .     A
C790   O836    1.289   .     A
C790   C797    1.385   .     S
C790   O835    1.289   .     A
C791   C792    1.400   .     A
C791   H813    1.076   .     S
C792   C793    1.393   .     A
C792   H1570   1.079   .     S
C793   C794    1.394   .     A
C793   H1571   1.081   .     S
C794   C795    1.399   .     A
C794   H816    1.078   .     S
C795   H817    1.073   .     S
C797   C1552   1.177   .     S
C798   C968    1.401   1_455 S
C799   C842    1.401   .     S
C800   C882    1.401   .     S
H804   C1536   1.081   .     S
H805   C1537   1.079   .     S
H809   C1542   1.081   .     S
H810   C1543   1.079   .     S
N825   Zn839   2.029   .     S
N826   Zn840   2.029   .     S
O827   Zn839   2.007   .     S
O831   Zn840   2.007   .     S
O832   Zn839   2.007   .     S
O833   Zn840   2.007   .     S
O834   Zn839   1.974   .     S
O835   Zn840   1.974   .     S
O836   Zn839   1.974   .     S
O837   Zn840   1.974   .     S
C841   O917    1.301   .     A
C841   O911    1.301   .     A
C841   C844    1.465   .     S
C842   C853    1.496   .     S
C842   C844    1.408   .     A
C843   C883    1.408   .     A
C843   C852    1.465   .     S
C843   C884    1.408   .     A
C844   C882    1.408   .     A
C845   C854    1.479   .     S
C845   N910    1.375   .     A
C845   C1352   1.427   1_545 S
C846   N909    1.375   .     A
C846   C860    1.479   .     S
C846   C1099   1.427   .     S
C847   N910    1.375   .     A
C847   C867    1.479   .     S
C847   C1350   1.427   1_545 S
C848   N909    1.375   .     A
C848   C873    1.479   .     S
C848   C1097   1.427   .     S
C849   H885    1.082   .     S
C849   O922    1.220   .     D
C849   C882    1.496   .     S
C850   H896    1.082   .     S
C850   C883    1.496   .     S
C850   O912    1.220   .     D
C851   H902    1.082   .     S
C851   C884    1.496   .     S
C851   O913    1.220   .     D
C852   O916    1.301   .     A
C852   O915    1.301   .     A
C853   H903    1.082   .     S
C853   O914    1.220   .     D
C854   C859    1.397   .     A
C854   C855    1.396   .     A
C855   C856    1.399   .     A
C855   H904    1.073   .     S
C856   C857    1.394   .     A
C856   H905    1.078   .     S
C857   C858    1.393   .     A
C857   H1662   1.081   .     S
C858   C859    1.400   .     A
C858   H1663   1.079   .     S
C859   H908    1.076   .     S
C860   C866    1.397   .     A
C860   C861    1.396   .     A
C861   C862    1.399   .     A
C861   H886    1.073   .     S
C862   H887    1.078   .     S
C862   C864    1.394   .     A
C863   O921    1.289   .     A
C863   O918    1.289   .     A
C863   C880    1.385   .     S
C864   C865    1.393   .     A
C865   C866    1.400   .     A
C866   H890    1.076   .     S
C867   C872    1.397   .     A
C867   C868    1.396   .     A
C868   H891    1.073   .     S
C868   C869    1.399   .     A
C869   C870    1.394   .     A
C869   H892    1.078   .     S
C870   C871    1.393   .     A
C871   C872    1.400   .     A
C872   H895    1.076   .     S
C873   C879    1.396   .     A
C873   C875    1.397   .     A
C874   O920    1.289   .     A
C874   C881    1.385   .     S
C874   O919    1.289   .     A
C875   C876    1.400   .     A
C875   H897    1.076   .     S
C876   C877    1.393   .     A
C876   H1654   1.079   .     S
C877   C878    1.394   .     A
C877   H1655   1.081   .     S
C878   C879    1.399   .     A
C878   H900    1.078   .     S
C879   H901    1.073   .     S
C881   C1636   1.177   .     S
C883   C926    1.401   .     S
C884   C966    1.401   .     S
H888   C1620   1.081   .     S
H889   C1621   1.079   .     S
H893   C1626   1.081   .     S
H894   C1627   1.079   .     S
N909   Zn923   2.029   .     S
N910   Zn924   2.029   .     S
O911   Zn923   2.007   .     S
O915   Zn924   2.007   .     S
O916   Zn923   2.007   .     S
O917   Zn924   2.007   .     S
O918   Zn923   1.974   .     S
O919   Zn924   1.974   .     S
O920   Zn923   1.974   .     S
O921   Zn924   1.974   .     S
C925   O1001   1.301   .     A
C925   O995    1.301   .     A
C925   C928    1.465   .     S
C926   C937    1.496   .     S
C926   C928    1.408   .     A
C927   C967    1.408   .     A
C927   C936    1.465   .     S
C927   C968    1.408   .     A
C928   C966    1.408   .     A
C929   C938    1.479   .     S
C929   N994    1.375   .     A
C929   C1436   1.427   1_545 S
C930   N993    1.375   .     A
C930   C944    1.479   .     S
C930   C1183   1.427   .     S
C931   N994    1.375   .     A
C931   C951    1.479   .     S
C931   C1434   1.427   1_545 S
C932   N993    1.375   .     A
C932   C957    1.479   .     S
C932   C1181   1.427   .     S
C933   H969    1.082   .     S
C933   O1006   1.220   .     D
C933   C966    1.496   .     S
C934   H980    1.082   .     S
C934   C967    1.496   .     S
C934   O996    1.220   .     D
C935   H986    1.082   .     S
C935   C968    1.496   .     S
C935   O997    1.220   .     D
C936   O1000   1.301   .     A
C936   O999    1.301   .     A
C937   H987    1.082   .     S
C937   O998    1.220   .     D
C938   C943    1.397   .     A
C938   C939    1.396   .     A
C939   C940    1.399   .     A
C939   H988    1.073   .     S
C940   C941    1.394   .     A
C940   H989    1.078   .     S
C941   C942    1.393   .     A
C941   H1746   1.081   .     S
C942   C943    1.400   .     A
C942   H1747   1.079   .     S
C943   H992    1.076   .     S
C944   C950    1.397   .     A
C944   C945    1.396   .     A
C945   C946    1.399   .     A
C945   H970    1.073   .     S
C946   H971    1.078   .     S
C946   C948    1.394   .     A
C947   O1005   1.289   .     A
C947   O1002   1.289   .     A
C947   C964    1.385   .     S
C948   C949    1.393   .     A
C949   C950    1.400   .     A
C950   H974    1.076   .     S
C951   C956    1.397   .     A
C951   C952    1.396   .     A
C952   H975    1.073   .     S
C952   C953    1.399   .     A
C953   C954    1.394   .     A
C953   H976    1.078   .     S
C954   C955    1.393   .     A
C955   C956    1.400   .     A
C956   H979    1.076   .     S
C957   C963    1.396   .     A
C957   C959    1.397   .     A
C958   O1004   1.289   .     A
C958   C965    1.385   .     S
C958   O1003   1.289   .     A
C959   C960    1.400   .     A
C959   H981    1.076   .     S
C960   C961    1.393   .     A
C960   H1738   1.079   .     S
C961   C962    1.394   .     A
C961   H1739   1.081   .     S
C962   C963    1.399   .     A
C962   H984    1.078   .     S
C963   H985    1.073   .     S
C965   C1720   1.177   .     S
C967   C758    1.401   1_655 S
C968   C798    1.401   1_655 S
H972   C1704   1.081   .     S
H973   C1705   1.079   .     S
H977   C1710   1.081   .     S
H978   C1711   1.079   .     S
N993   Zn1007  2.029   .     S
N994   Zn1008  2.029   .     S
O995   Zn1007  2.007   .     S
O999   Zn1008  2.007   .     S
O1000  Zn1007  2.007   .     S
O1001  Zn1008  2.007   .     S
O1002  Zn1007  1.974   .     S
O1003  Zn1008  1.974   .     S
O1004  Zn1007  1.974   .     S
O1005  Zn1008  1.974   .     S
C1009  O1085   1.301   .     A
C1009  O1079   1.301   .     A
C1009  C1012   1.465   .     S
C1010  C1021   1.496   .     S
C1010  C1012   1.408   .     A
C1010  C1219   1.401   1_455 S
C1011  C1051   1.408   .     A
C1011  C1020   1.465   .     S
C1011  C1052   1.408   .     A
C1012  C1050   1.408   .     A
C1013  C1022   1.479   .     S
C1013  N1078   1.375   .     A
C1014  N1077   1.375   .     A
C1014  C1028   1.479   .     S
C1014  C1267   1.427   .     S
C1015  N1078   1.375   .     A
C1015  C1035   1.479   .     S
C1016  N1077   1.375   .     A
C1016  C1041   1.479   .     S
C1016  C1265   1.427   .     S
C1017  H1053   1.082   .     S
C1017  O1090   1.220   .     D
C1017  C1050   1.496   .     S
C1018  H1064   1.082   .     S
C1018  C1051   1.496   .     S
C1018  O1080   1.220   .     D
C1019  H1070   1.082   .     S
C1019  C1052   1.496   .     S
C1019  O1081   1.220   .     D
C1020  O1084   1.301   .     A
C1020  O1083   1.301   .     A
C1021  H1071   1.082   .     S
C1021  O1082   1.220   .     D
C1022  C1027   1.397   .     A
C1022  C1023   1.396   .     A
C1023  C1024   1.399   .     A
C1023  H1072   1.073   .     S
C1024  C1025   1.394   .     A
C1024  H1073   1.078   .     S
C1025  C1026   1.393   .     A
C1025  H1830   1.081   .     S
C1026  C1027   1.400   .     A
C1026  H1831   1.079   .     S
C1027  H1076   1.076   .     S
C1028  C1034   1.397   .     A
C1028  C1029   1.396   .     A
C1029  C1030   1.399   .     A
C1029  H1054   1.073   .     S
C1030  H1055   1.078   .     S
C1030  C1032   1.394   .     A
C1031  O1089   1.289   .     A
C1031  O1086   1.289   .     A
C1031  C1048   1.385   .     S
C1032  C1033   1.393   .     A
C1033  C1034   1.400   .     A
C1034  H1058   1.076   .     S
C1035  C1040   1.397   .     A
C1035  C1036   1.396   .     A
C1036  H1059   1.073   .     S
C1036  C1037   1.399   .     A
C1037  C1038   1.394   .     A
C1037  H1060   1.078   .     S
C1038  C1039   1.393   .     A
C1039  C1040   1.400   .     A
C1040  H1063   1.076   .     S
C1041  C1047   1.396   .     A
C1041  C1043   1.397   .     A
C1042  O1088   1.289   .     A
C1042  C1049   1.385   .     S
C1042  O1087   1.289   .     A
C1043  C1044   1.400   .     A
C1043  H1065   1.076   .     S
C1044  C1045   1.393   .     A
C1044  H1822   1.079   .     S
C1045  C1046   1.394   .     A
C1045  H1823   1.081   .     S
C1046  C1047   1.399   .     A
C1046  H1068   1.078   .     S
C1047  H1069   1.073   .     S
C1049  C1804   1.177   .     S
C1050  C1220   1.401   1_455 S
C1051  C1094   1.401   .     S
C1052  C1134   1.401   .     S
H1056  C1788   1.081   .     S
H1057  C1789   1.079   .     S
H1061  C1794   1.081   .     S
H1062  C1795   1.079   .     S
N1077  Zn1091  2.029   .     S
N1078  Zn1092  2.029   .     S
O1079  Zn1091  2.007   .     S
O1083  Zn1092  2.007   .     S
O1084  Zn1091  2.007   .     S
O1085  Zn1092  2.007   .     S
O1086  Zn1091  1.974   .     S
O1087  Zn1092  1.974   .     S
O1088  Zn1091  1.974   .     S
O1089  Zn1092  1.974   .     S
C1093  O1169   1.301   .     A
C1093  O1163   1.301   .     A
C1093  C1096   1.465   .     S
C1094  C1105   1.496   .     S
C1094  C1096   1.408   .     A
C1095  C1135   1.408   .     A
C1095  C1104   1.465   .     S
C1095  C1136   1.408   .     A
C1096  C1134   1.408   .     A
C1097  C1106   1.479   .     S
C1097  N1162   1.375   .     A
C1098  N1161   1.375   .     A
C1098  C1112   1.479   .     S
C1098  C1351   1.427   .     S
C1099  N1162   1.375   .     A
C1099  C1119   1.479   .     S
C1100  N1161   1.375   .     A
C1100  C1125   1.479   .     S
C1100  C1349   1.427   .     S
C1101  H1137   1.082   .     S
C1101  O1174   1.220   .     D
C1101  C1134   1.496   .     S
C1102  H1148   1.082   .     S
C1102  C1135   1.496   .     S
C1102  O1164   1.220   .     D
C1103  H1154   1.082   .     S
C1103  C1136   1.496   .     S
C1103  O1165   1.220   .     D
C1104  O1168   1.301   .     A
C1104  O1167   1.301   .     A
C1105  H1155   1.082   .     S
C1105  O1166   1.220   .     D
C1106  C1111   1.397   .     A
C1106  C1107   1.396   .     A
C1107  C1108   1.399   .     A
C1107  H1156   1.073   .     S
C1108  C1109   1.394   .     A
C1108  H1157   1.078   .     S
C1109  C1110   1.393   .     A
C1109  H1914   1.081   .     S
C1110  C1111   1.400   .     A
C1110  H1915   1.079   .     S
C1111  H1160   1.076   .     S
C1112  C1118   1.397   .     A
C1112  C1113   1.396   .     A
C1113  C1114   1.399   .     A
C1113  H1138   1.073   .     S
C1114  H1139   1.078   .     S
C1114  C1116   1.394   .     A
C1115  O1173   1.289   .     A
C1115  O1170   1.289   .     A
C1115  C1132   1.385   .     S
C1116  C1117   1.393   .     A
C1117  C1118   1.400   .     A
C1118  H1142   1.076   .     S
C1119  C1124   1.397   .     A
C1119  C1120   1.396   .     A
C1120  H1143   1.073   .     S
C1120  C1121   1.399   .     A
C1121  C1122   1.394   .     A
C1121  H1144   1.078   .     S
C1122  C1123   1.393   .     A
C1123  C1124   1.400   .     A
C1124  H1147   1.076   .     S
C1125  C1131   1.396   .     A
C1125  C1127   1.397   .     A
C1126  O1172   1.289   .     A
C1126  C1133   1.385   .     S
C1126  O1171   1.289   .     A
C1127  C1128   1.400   .     A
C1127  H1149   1.076   .     S
C1128  C1129   1.393   .     A
C1128  H1906   1.079   .     S
C1129  C1130   1.394   .     A
C1129  H1907   1.081   .     S
C1130  C1131   1.399   .     A
C1130  H1152   1.078   .     S
C1131  H1153   1.073   .     S
C1133  C1888   1.177   .     S
C1135  C1178   1.401   .     S
C1136  C1218   1.401   .     S
H1140  C1872   1.081   .     S
H1141  C1873   1.079   .     S
H1145  C1878   1.081   .     S
H1146  C1879   1.079   .     S
N1161  Zn1175  2.029   .     S
N1162  Zn1176  2.029   .     S
O1163  Zn1175  2.007   .     S
O1167  Zn1176  2.007   .     S
O1168  Zn1175  2.007   .     S
O1169  Zn1176  2.007   .     S
O1170  Zn1175  1.974   .     S
O1171  Zn1176  1.974   .     S
O1172  Zn1175  1.974   .     S
O1173  Zn1176  1.974   .     S
C1177  O1253   1.301   .     A
C1177  O1247   1.301   .     A
C1177  C1180   1.465   .     S
C1178  C1189   1.496   .     S
C1178  C1180   1.408   .     A
C1179  C1219   1.408   .     A
C1179  C1188   1.465   .     S
C1179  C1220   1.408   .     A
C1180  C1218   1.408   .     A
C1181  C1190   1.479   .     S
C1181  N1246   1.375   .     A
C1182  N1245   1.375   .     A
C1182  C1196   1.479   .     S
C1182  C1435   1.427   .     S
C1183  N1246   1.375   .     A
C1183  C1203   1.479   .     S
C1184  N1245   1.375   .     A
C1184  C1209   1.479   .     S
C1184  C1433   1.427   .     S
C1185  H1221   1.082   .     S
C1185  O1258   1.220   .     D
C1185  C1218   1.496   .     S
C1186  H1232   1.082   .     S
C1186  C1219   1.496   .     S
C1186  O1248   1.220   .     D
C1187  H1238   1.082   .     S
C1187  C1220   1.496   .     S
C1187  O1249   1.220   .     D
C1188  O1252   1.301   .     A
C1188  O1251   1.301   .     A
C1189  H1239   1.082   .     S
C1189  O1250   1.220   .     D
C1190  C1195   1.397   .     A
C1190  C1191   1.396   .     A
C1191  C1192   1.399   .     A
C1191  H1240   1.073   .     S
C1192  C1193   1.394   .     A
C1192  H1241   1.078   .     S
C1193  C1194   1.393   .     A
C1193  H1998   1.081   .     S
C1194  C1195   1.400   .     A
C1194  H1999   1.079   .     S
C1195  H1244   1.076   .     S
C1196  C1202   1.397   .     A
C1196  C1197   1.396   .     A
C1197  C1198   1.399   .     A
C1197  H1222   1.073   .     S
C1198  H1223   1.078   .     S
C1198  C1200   1.394   .     A
C1199  O1257   1.289   .     A
C1199  O1254   1.289   .     A
C1199  C1216   1.385   .     S
C1200  C1201   1.393   .     A
C1201  C1202   1.400   .     A
C1202  H1226   1.076   .     S
C1203  C1208   1.397   .     A
C1203  C1204   1.396   .     A
C1204  H1227   1.073   .     S
C1204  C1205   1.399   .     A
C1205  C1206   1.394   .     A
C1205  H1228   1.078   .     S
C1206  C1207   1.393   .     A
C1207  C1208   1.400   .     A
C1208  H1231   1.076   .     S
C1209  C1215   1.396   .     A
C1209  C1211   1.397   .     A
C1210  O1256   1.289   .     A
C1210  C1217   1.385   .     S
C1210  O1255   1.289   .     A
C1211  C1212   1.400   .     A
C1211  H1233   1.076   .     S
C1212  C1213   1.393   .     A
C1212  H1990   1.079   .     S
C1213  C1214   1.394   .     A
C1213  H1991   1.081   .     S
C1214  C1215   1.399   .     A
C1214  H1236   1.078   .     S
C1215  H1237   1.073   .     S
C1217  C1972   1.177   .     S
C1219  C1010   1.401   1_655 S
C1220  C1050   1.401   1_655 S
H1224  C1956   1.081   .     S
H1225  C1957   1.079   .     S
H1229  C1962   1.081   .     S
H1230  C1963   1.079   .     S
N1245  Zn1259  2.029   .     S
N1246  Zn1260  2.029   .     S
O1247  Zn1259  2.007   .     S
O1251  Zn1260  2.007   .     S
O1252  Zn1259  2.007   .     S
O1253  Zn1260  2.007   .     S
O1254  Zn1259  1.974   .     S
O1255  Zn1260  1.974   .     S
O1256  Zn1259  1.974   .     S
O1257  Zn1260  1.974   .     S
C1261  O1337   1.301   .     A
C1261  O1331   1.301   .     A
C1261  C1264   1.465   .     S
C1262  C1273   1.496   .     S
C1262  C1264   1.408   .     A
C1262  C1471   1.401   1_455 S
C1263  C1303   1.408   .     A
C1263  C1272   1.465   .     S
C1263  C1304   1.408   .     A
C1264  C1302   1.408   .     A
C1265  C1274   1.479   .     S
C1265  N1330   1.375   .     A
C1266  N1329   1.375   .     A
C1266  C1280   1.479   .     S
C1266  C763    1.427   1_565 S
C1267  N1330   1.375   .     A
C1267  C1287   1.479   .     S
C1268  N1329   1.375   .     A
C1268  C1293   1.479   .     S
C1268  C761    1.427   1_565 S
C1269  H1305   1.082   .     S
C1269  O1342   1.220   .     D
C1269  C1302   1.496   .     S
C1270  H1316   1.082   .     S
C1270  C1303   1.496   .     S
C1270  O1332   1.220   .     D
C1271  H1322   1.082   .     S
C1271  C1304   1.496   .     S
C1271  O1333   1.220   .     D
C1272  O1336   1.301   .     A
C1272  O1335   1.301   .     A
C1273  H1323   1.082   .     S
C1273  O1334   1.220   .     D
C1274  C1279   1.397   .     A
C1274  C1275   1.396   .     A
C1275  C1276   1.399   .     A
C1275  H1324   1.073   .     S
C1276  C1277   1.394   .     A
C1276  H1325   1.078   .     S
C1277  C1278   1.393   .     A
C1277  H2082   1.081   .     S
C1278  C1279   1.400   .     A
C1278  H2083   1.079   .     S
C1279  H1328   1.076   .     S
C1280  C1286   1.397   .     A
C1280  C1281   1.396   .     A
C1281  C1282   1.399   .     A
C1281  H1306   1.073   .     S
C1282  H1307   1.078   .     S
C1282  C1284   1.394   .     A
C1283  O1341   1.289   .     A
C1283  O1338   1.289   .     A
C1283  C1300   1.385   .     S
C1284  C1285   1.393   .     A
C1285  C1286   1.400   .     A
C1286  H1310   1.076   .     S
C1287  C1292   1.397   .     A
C1287  C1288   1.396   .     A
C1288  H1311   1.073   .     S
C1288  C1289   1.399   .     A
C1289  C1290   1.394   .     A
C1289  H1312   1.078   .     S
C1290  C1291   1.393   .     A
C1291  C1292   1.400   .     A
C1292  H1315   1.076   .     S
C1293  C1299   1.396   .     A
C1293  C1295   1.397   .     A
C1294  O1340   1.289   .     A
C1294  C1301   1.385   .     S
C1294  O1339   1.289   .     A
C1295  C1296   1.400   .     A
C1295  H1317   1.076   .     S
C1296  C1297   1.393   .     A
C1296  H2074   1.079   .     S
C1297  C1298   1.394   .     A
C1297  H2075   1.081   .     S
C1298  C1299   1.399   .     A
C1298  H1320   1.078   .     S
C1299  H1321   1.073   .     S
C1301  C2056   1.177   .     S
C1302  C1472   1.401   1_455 S
C1303  C1346   1.401   .     S
C1304  C1386   1.401   .     S
H1308  C2040   1.081   .     S
H1309  C2041   1.079   .     S
H1313  C2046   1.081   .     S
H1314  C2047   1.079   .     S
N1329  Zn1343  2.029   .     S
N1330  Zn1344  2.029   .     S
O1331  Zn1343  2.007   .     S
O1335  Zn1344  2.007   .     S
O1336  Zn1343  2.007   .     S
O1337  Zn1344  2.007   .     S
O1338  Zn1343  1.974   .     S
O1339  Zn1344  1.974   .     S
O1340  Zn1343  1.974   .     S
O1341  Zn1344  1.974   .     S
C1345  O1421   1.301   .     A
C1345  O1415   1.301   .     A
C1345  C1348   1.465   .     S
C1346  C1357   1.496   .     S
C1346  C1348   1.408   .     A
C1347  C1387   1.408   .     A
C1347  C1356   1.465   .     S
C1347  C1388   1.408   .     A
C1348  C1386   1.408   .     A
C1349  C1358   1.479   .     S
C1349  N1414   1.375   .     A
C1350  N1413   1.375   .     A
C1350  C1364   1.479   .     S
C1350  C847    1.427   1_565 S
C1351  N1414   1.375   .     A
C1351  C1371   1.479   .     S
C1352  N1413   1.375   .     A
C1352  C1377   1.479   .     S
C1352  C845    1.427   1_565 S
C1353  H1389   1.082   .     S
C1353  O1426   1.220   .     D
C1353  C1386   1.496   .     S
C1354  H1400   1.082   .     S
C1354  C1387   1.496   .     S
C1354  O1416   1.220   .     D
C1355  H1406   1.082   .     S
C1355  C1388   1.496   .     S
C1355  O1417   1.220   .     D
C1356  O1420   1.301   .     A
C1356  O1419   1.301   .     A
C1357  H1407   1.082   .     S
C1357  O1418   1.220   .     D
C1358  C1363   1.397   .     A
C1358  C1359   1.396   .     A
C1359  C1360   1.399   .     A
C1359  H1408   1.073   .     S
C1360  C1361   1.394   .     A
C1360  H1409   1.078   .     S
C1361  C1362   1.393   .     A
C1361  H2166   1.081   .     S
C1362  C1363   1.400   .     A
C1362  H2167   1.079   .     S
C1363  H1412   1.076   .     S
C1364  C1370   1.397   .     A
C1364  C1365   1.396   .     A
C1365  C1366   1.399   .     A
C1365  H1390   1.073   .     S
C1366  H1391   1.078   .     S
C1366  C1368   1.394   .     A
C1367  O1425   1.289   .     A
C1367  O1422   1.289   .     A
C1367  C1384   1.385   .     S
C1368  C1369   1.393   .     A
C1369  C1370   1.400   .     A
C1370  H1394   1.076   .     S
C1371  C1376   1.397   .     A
C1371  C1372   1.396   .     A
C1372  H1395   1.073   .     S
C1372  C1373   1.399   .     A
C1373  C1374   1.394   .     A
C1373  H1396   1.078   .     S
C1374  C1375   1.393   .     A
C1375  C1376   1.400   .     A
C1376  H1399   1.076   .     S
C1377  C1383   1.396   .     A
C1377  C1379   1.397   .     A
C1378  O1424   1.289   .     A
C1378  C1385   1.385   .     S
C1378  O1423   1.289   .     A
C1379  C1380   1.400   .     A
C1379  H1401   1.076   .     S
C1380  C1381   1.393   .     A
C1380  H2158   1.079   .     S
C1381  C1382   1.394   .     A
C1381  H2159   1.081   .     S
C1382  C1383   1.399   .     A
C1382  H1404   1.078   .     S
C1383  H1405   1.073   .     S
C1385  C2140   1.177   .     S
C1387  C1430   1.401   .     S
C1388  C1470   1.401   .     S
H1392  C2124   1.081   .     S
H1393  C2125   1.079   .     S
H1397  C2130   1.081   .     S
H1398  C2131   1.079   .     S
N1413  Zn1427  2.029   .     S
N1414  Zn1428  2.029   .     S
O1415  Zn1427  2.007   .     S
O1419  Zn1428  2.007   .     S
O1420  Zn1427  2.007   .     S
O1421  Zn1428  2.007   .     S
O1422  Zn1427  1.974   .     S
O1423  Zn1428  1.974   .     S
O1424  Zn1427  1.974   .     S
O1425  Zn1428  1.974   .     S
C1429  O1505   1.301   .     A
C1429  O1499   1.301   .     A
C1429  C1432   1.465   .     S
C1430  C1441   1.496   .     S
C1430  C1432   1.408   .     A
C1431  C1471   1.408   .     A
C1431  C1440   1.465   .     S
C1431  C1472   1.408   .     A
C1432  C1470   1.408   .     A
C1433  C1442   1.479   .     S
C1433  N1498   1.375   .     A
C1434  N1497   1.375   .     A
C1434  C1448   1.479   .     S
C1434  C931    1.427   1_565 S
C1435  N1498   1.375   .     A
C1435  C1455   1.479   .     S
C1436  N1497   1.375   .     A
C1436  C1461   1.479   .     S
C1436  C929    1.427   1_565 S
C1437  H1473   1.082   .     S
C1437  O1510   1.220   .     D
C1437  C1470   1.496   .     S
C1438  H1484   1.082   .     S
C1438  C1471   1.496   .     S
C1438  O1500   1.220   .     D
C1439  H1490   1.082   .     S
C1439  C1472   1.496   .     S
C1439  O1501   1.220   .     D
C1440  O1504   1.301   .     A
C1440  O1503   1.301   .     A
C1441  H1491   1.082   .     S
C1441  O1502   1.220   .     D
C1442  C1447   1.397   .     A
C1442  C1443   1.396   .     A
C1443  C1444   1.399   .     A
C1443  H1492   1.073   .     S
C1444  C1445   1.394   .     A
C1444  H1493   1.078   .     S
C1445  C1446   1.393   .     A
C1445  H2250   1.081   .     S
C1446  C1447   1.400   .     A
C1446  H2251   1.079   .     S
C1447  H1496   1.076   .     S
C1448  C1454   1.397   .     A
C1448  C1449   1.396   .     A
C1449  C1450   1.399   .     A
C1449  H1474   1.073   .     S
C1450  H1475   1.078   .     S
C1450  C1452   1.394   .     A
C1451  O1509   1.289   .     A
C1451  O1506   1.289   .     A
C1451  C1468   1.385   .     S
C1452  C1453   1.393   .     A
C1453  C1454   1.400   .     A
C1454  H1478   1.076   .     S
C1455  C1460   1.397   .     A
C1455  C1456   1.396   .     A
C1456  H1479   1.073   .     S
C1456  C1457   1.399   .     A
C1457  C1458   1.394   .     A
C1457  H1480   1.078   .     S
C1458  C1459   1.393   .     A
C1459  C1460   1.400   .     A
C1460  H1483   1.076   .     S
C1461  C1467   1.396   .     A
C1461  C1463   1.397   .     A
C1462  O1508   1.289   .     A
C1462  C1469   1.385   .     S
C1462  O1507   1.289   .     A
C1463  C1464   1.400   .     A
C1463  H1485   1.076   .     S
C1464  C1465   1.393   .     A
C1464  H2242   1.079   .     S
C1465  C1466   1.394   .     A
C1465  H2243   1.081   .     S
C1466  C1467   1.399   .     A
C1466  H1488   1.078   .     S
C1467  H1489   1.073   .     S
C1469  C2224   1.177   .     S
C1471  C1262   1.401   1_655 S
C1472  C1302   1.401   1_655 S
H1476  C2208   1.081   .     S
H1477  C2209   1.079   .     S
H1481  C2214   1.081   .     S
H1482  C2215   1.079   .     S
N1497  Zn1511  2.029   .     S
N1498  Zn1512  2.029   .     S
O1499  Zn1511  2.007   .     S
O1503  Zn1512  2.007   .     S
O1504  Zn1511  2.007   .     S
O1505  Zn1512  2.007   .     S
O1506  Zn1511  1.974   .     S
O1507  Zn1512  1.974   .     S
O1508  Zn1511  1.974   .     S
O1509  Zn1512  1.974   .     S
C1513  O1589   1.301   .     A
C1513  O1583   1.301   .     A
C1513  C1516   1.465   .     S
C1514  C1525   1.496   .     S
C1514  C1516   1.408   .     A
C1514  C1723   1.401   1_455 S
C1515  C1555   1.408   .     A
C1515  C1524   1.465   .     S
C1515  C1556   1.408   .     A
C1516  C1554   1.408   .     A
C1517  C1526   1.479   .     S
C1517  N1582   1.375   .     A
C1517  C2024   1.427   1_545 S
C1518  N1581   1.375   .     A
C1518  C1532   1.479   .     S
C1518  C1771   1.427   .     S
C1519  N1582   1.375   .     A
C1519  C1539   1.479   .     S
C1519  C2022   1.427   1_545 S
C1520  N1581   1.375   .     A
C1520  C1545   1.479   .     S
C1520  C1769   1.427   .     S
C1521  H1557   1.082   .     S
C1521  O1594   1.220   .     D
C1521  C1554   1.496   .     S
C1522  H1568   1.082   .     S
C1522  C1555   1.496   .     S
C1522  O1584   1.220   .     D
C1523  H1574   1.082   .     S
C1523  C1556   1.496   .     S
C1523  O1585   1.220   .     D
C1524  O1588   1.301   .     A
C1524  O1587   1.301   .     A
C1525  H1575   1.082   .     S
C1525  O1586   1.220   .     D
C1526  C1531   1.397   .     A
C1526  C1527   1.396   .     A
C1527  C1528   1.399   .     A
C1527  H1576   1.073   .     S
C1528  C1529   1.394   .     A
C1528  H1577   1.078   .     S
C1529  C1530   1.393   .     A
C1529  H66     1.081   1_556 S
C1530  C1531   1.400   .     A
C1530  H67     1.079   1_556 S
C1531  H1580   1.076   .     S
C1532  C1538   1.397   .     A
C1532  C1533   1.396   .     A
C1533  C1534   1.399   .     A
C1533  H1558   1.073   .     S
C1534  H1559   1.078   .     S
C1534  C1536   1.394   .     A
C1535  O1593   1.289   .     A
C1535  O1590   1.289   .     A
C1535  C1552   1.385   .     S
C1536  C1537   1.393   .     A
C1537  C1538   1.400   .     A
C1538  H1562   1.076   .     S
C1539  C1544   1.397   .     A
C1539  C1540   1.396   .     A
C1540  H1563   1.073   .     S
C1540  C1541   1.399   .     A
C1541  C1542   1.394   .     A
C1541  H1564   1.078   .     S
C1542  C1543   1.393   .     A
C1543  C1544   1.400   .     A
C1544  H1567   1.076   .     S
C1545  C1551   1.396   .     A
C1545  C1547   1.397   .     A
C1546  O1592   1.289   .     A
C1546  C1553   1.385   .     S
C1546  O1591   1.289   .     A
C1547  C1548   1.400   .     A
C1547  H1569   1.076   .     S
C1548  C1549   1.393   .     A
C1548  H58     1.079   1_556 S
C1549  C1550   1.394   .     A
C1549  H59     1.081   1_556 S
C1550  C1551   1.399   .     A
C1550  H1572   1.078   .     S
C1551  H1573   1.073   .     S
C1553  C40     1.177   1_556 S
C1554  C1724   1.401   1_455 S
C1555  C1598   1.401   .     S
C1556  C1638   1.401   .     S
H1560  C24     1.081   1_556 S
H1561  C25     1.079   1_556 S
H1565  C30     1.081   1_556 S
H1566  C31     1.079   1_556 S
N1581  Zn1595  2.029   .     S
N1582  Zn1596  2.029   .     S
O1583  Zn1595  2.007   .     S
O1587  Zn1596  2.007   .     S
O1588  Zn1595  2.007   .     S
O1589  Zn1596  2.007   .     S
O1590  Zn1595  1.974   .     S
O1591  Zn1596  1.974   .     S
O1592  Zn1595  1.974   .     S
O1593  Zn1596  1.974   .     S
C1597  O1673   1.301   .     A
C1597  O1667   1.301   .     A
C1597  C1600   1.465   .     S
C1598  C1609   1.496   .     S
C1598  C1600   1.408   .     A
C1599  C1639   1.408   .     A
C1599  C1608   1.465   .     S
C1599  C1640   1.408   .     A
C1600  C1638   1.408   .     A
C1601  C1610   1.479   .     S
C1601  N1666   1.375   .     A
C1601  C2108   1.427   1_545 S
C1602  N1665   1.375   .     A
C1602  C1616   1.479   .     S
C1602  C1855   1.427   .     S
C1603  N1666   1.375   .     A
C1603  C1623   1.479   .     S
C1603  C2106   1.427   1_545 S
C1604  N1665   1.375   .     A
C1604  C1629   1.479   .     S
C1604  C1853   1.427   .     S
C1605  H1641   1.082   .     S
C1605  O1678   1.220   .     D
C1605  C1638   1.496   .     S
C1606  H1652   1.082   .     S
C1606  C1639   1.496   .     S
C1606  O1668   1.220   .     D
C1607  H1658   1.082   .     S
C1607  C1640   1.496   .     S
C1607  O1669   1.220   .     D
C1608  O1672   1.301   .     A
C1608  O1671   1.301   .     A
C1609  H1659   1.082   .     S
C1609  O1670   1.220   .     D
C1610  C1615   1.397   .     A
C1610  C1611   1.396   .     A
C1611  C1612   1.399   .     A
C1611  H1660   1.073   .     S
C1612  C1613   1.394   .     A
C1612  H1661   1.078   .     S
C1613  C1614   1.393   .     A
C1613  H150    1.081   1_556 S
C1614  C1615   1.400   .     A
C1614  H151    1.079   1_556 S
C1615  H1664   1.076   .     S
C1616  C1622   1.397   .     A
C1616  C1617   1.396   .     A
C1617  C1618   1.399   .     A
C1617  H1642   1.073   .     S
C1618  H1643   1.078   .     S
C1618  C1620   1.394   .     A
C1619  O1677   1.289   .     A
C1619  O1674   1.289   .     A
C1619  C1636   1.385   .     S
C1620  C1621   1.393   .     A
C1621  C1622   1.400   .     A
C1622  H1646   1.076   .     S
C1623  C1628   1.397   .     A
C1623  C1624   1.396   .     A
C1624  H1647   1.073   .     S
C1624  C1625   1.399   .     A
C1625  C1626   1.394   .     A
C1625  H1648   1.078   .     S
C1626  C1627   1.393   .     A
C1627  C1628   1.400   .     A
C1628  H1651   1.076   .     S
C1629  C1635   1.396   .     A
C1629  C1631   1.397   .     A
C1630  O1676   1.289   .     A
C1630  C1637   1.385   .     S
C1630  O1675   1.289   .     A
C1631  C1632   1.400   .     A
C1631  H1653   1.076   .     S
C1632  C1633   1.393   .     A
C1632  H142    1.079   1_556 S
C1633  C1634   1.394   .     A
C1633  H143    1.081   1_556 S
C1634  C1635   1.399   .     A
C1634  H1656   1.078   .     S
C1635  H1657   1.073   .     S
C1637  C124    1.177   1_556 S
C1639  C1682   1.401   .     S
C1640  C1722   1.401   .     S
H1644  C108    1.081   1_556 S
H1645  C109    1.079   1_556 S
H1649  C114    1.081   1_556 S
H1650  C115    1.079   1_556 S
N1665  Zn1679  2.029   .     S
N1666  Zn1680  2.029   .     S
O1667  Zn1679  2.007   .     S
O1671  Zn1680  2.007   .     S
O1672  Zn1679  2.007   .     S
O1673  Zn1680  2.007   .     S
O1674  Zn1679  1.974   .     S
O1675  Zn1680  1.974   .     S
O1676  Zn1679  1.974   .     S
O1677  Zn1680  1.974   .     S
C1681  O1757   1.301   .     A
C1681  O1751   1.301   .     A
C1681  C1684   1.465   .     S
C1682  C1693   1.496   .     S
C1682  C1684   1.408   .     A
C1683  C1723   1.408   .     A
C1683  C1692   1.465   .     S
C1683  C1724   1.408   .     A
C1684  C1722   1.408   .     A
C1685  C1694   1.479   .     S
C1685  N1750   1.375   .     A
C1685  C2192   1.427   1_545 S
C1686  N1749   1.375   .     A
C1686  C1700   1.479   .     S
C1686  C1939   1.427   .     S
C1687  N1750   1.375   .     A
C1687  C1707   1.479   .     S
C1687  C2190   1.427   1_545 S
C1688  N1749   1.375   .     A
C1688  C1713   1.479   .     S
C1688  C1937   1.427   .     S
C1689  H1725   1.082   .     S
C1689  O1762   1.220   .     D
C1689  C1722   1.496   .     S
C1690  H1736   1.082   .     S
C1690  C1723   1.496   .     S
C1690  O1752   1.220   .     D
C1691  H1742   1.082   .     S
C1691  C1724   1.496   .     S
C1691  O1753   1.220   .     D
C1692  O1756   1.301   .     A
C1692  O1755   1.301   .     A
C1693  H1743   1.082   .     S
C1693  O1754   1.220   .     D
C1694  C1699   1.397   .     A
C1694  C1695   1.396   .     A
C1695  C1696   1.399   .     A
C1695  H1744   1.073   .     S
C1696  C1697   1.394   .     A
C1696  H1745   1.078   .     S
C1697  C1698   1.393   .     A
C1697  H234    1.081   1_556 S
C1698  C1699   1.400   .     A
C1698  H235    1.079   1_556 S
C1699  H1748   1.076   .     S
C1700  C1706   1.397   .     A
C1700  C1701   1.396   .     A
C1701  C1702   1.399   .     A
C1701  H1726   1.073   .     S
C1702  H1727   1.078   .     S
C1702  C1704   1.394   .     A
C1703  O1761   1.289   .     A
C1703  O1758   1.289   .     A
C1703  C1720   1.385   .     S
C1704  C1705   1.393   .     A
C1705  C1706   1.400   .     A
C1706  H1730   1.076   .     S
C1707  C1712   1.397   .     A
C1707  C1708   1.396   .     A
C1708  H1731   1.073   .     S
C1708  C1709   1.399   .     A
C1709  C1710   1.394   .     A
C1709  H1732   1.078   .     S
C1710  C1711   1.393   .     A
C1711  C1712   1.400   .     A
C1712  H1735   1.076   .     S
C1713  C1719   1.396   .     A
C1713  C1715   1.397   .     A
C1714  O1760   1.289   .     A
C1714  C1721   1.385   .     S
C1714  O1759   1.289   .     A
C1715  C1716   1.400   .     A
C1715  H1737   1.076   .     S
C1716  C1717   1.393   .     A
C1716  H226    1.079   1_556 S
C1717  C1718   1.394   .     A
C1717  H227    1.081   1_556 S
C1718  C1719   1.399   .     A
C1718  H1740   1.078   .     S
C1719  H1741   1.073   .     S
C1721  C208    1.177   1_556 S
C1723  C1514   1.401   1_655 S
C1724  C1554   1.401   1_655 S
H1728  C192    1.081   1_556 S
H1729  C193    1.079   1_556 S
H1733  C198    1.081   1_556 S
H1734  C199    1.079   1_556 S
N1749  Zn1763  2.029   .     S
N1750  Zn1764  2.029   .     S
O1751  Zn1763  2.007   .     S
O1755  Zn1764  2.007   .     S
O1756  Zn1763  2.007   .     S
O1757  Zn1764  2.007   .     S
O1758  Zn1763  1.974   .     S
O1759  Zn1764  1.974   .     S
O1760  Zn1763  1.974   .     S
O1761  Zn1764  1.974   .     S
C1765  O1841   1.301   .     A
C1765  O1835   1.301   .     A
C1765  C1768   1.465   .     S
C1766  C1777   1.496   .     S
C1766  C1768   1.408   .     A
C1766  C1975   1.401   1_455 S
C1767  C1807   1.408   .     A
C1767  C1776   1.465   .     S
C1767  C1808   1.408   .     A
C1768  C1806   1.408   .     A
C1769  C1778   1.479   .     S
C1769  N1834   1.375   .     A
C1770  N1833   1.375   .     A
C1770  C1784   1.479   .     S
C1770  C2023   1.427   .     S
C1771  N1834   1.375   .     A
C1771  C1791   1.479   .     S
C1772  N1833   1.375   .     A
C1772  C1797   1.479   .     S
C1772  C2021   1.427   .     S
C1773  H1809   1.082   .     S
C1773  O1846   1.220   .     D
C1773  C1806   1.496   .     S
C1774  H1820   1.082   .     S
C1774  C1807   1.496   .     S
C1774  O1836   1.220   .     D
C1775  H1826   1.082   .     S
C1775  C1808   1.496   .     S
C1775  O1837   1.220   .     D
C1776  O1840   1.301   .     A
C1776  O1839   1.301   .     A
C1777  H1827   1.082   .     S
C1777  O1838   1.220   .     D
C1778  C1783   1.397   .     A
C1778  C1779   1.396   .     A
C1779  C1780   1.399   .     A
C1779  H1828   1.073   .     S
C1780  C1781   1.394   .     A
C1780  H1829   1.078   .     S
C1781  C1782   1.393   .     A
C1781  H318    1.081   1_556 S
C1782  C1783   1.400   .     A
C1782  H319    1.079   1_556 S
C1783  H1832   1.076   .     S
C1784  C1790   1.397   .     A
C1784  C1785   1.396   .     A
C1785  C1786   1.399   .     A
C1785  H1810   1.073   .     S
C1786  H1811   1.078   .     S
C1786  C1788   1.394   .     A
C1787  O1845   1.289   .     A
C1787  O1842   1.289   .     A
C1787  C1804   1.385   .     S
C1788  C1789   1.393   .     A
C1789  C1790   1.400   .     A
C1790  H1814   1.076   .     S
C1791  C1796   1.397   .     A
C1791  C1792   1.396   .     A
C1792  H1815   1.073   .     S
C1792  C1793   1.399   .     A
C1793  C1794   1.394   .     A
C1793  H1816   1.078   .     S
C1794  C1795   1.393   .     A
C1795  C1796   1.400   .     A
C1796  H1819   1.076   .     S
C1797  C1803   1.396   .     A
C1797  C1799   1.397   .     A
C1798  O1844   1.289   .     A
C1798  C1805   1.385   .     S
C1798  O1843   1.289   .     A
C1799  C1800   1.400   .     A
C1799  H1821   1.076   .     S
C1800  C1801   1.393   .     A
C1800  H310    1.079   1_556 S
C1801  C1802   1.394   .     A
C1801  H311    1.081   1_556 S
C1802  C1803   1.399   .     A
C1802  H1824   1.078   .     S
C1803  H1825   1.073   .     S
C1805  C292    1.177   1_556 S
C1806  C1976   1.401   1_455 S
C1807  C1850   1.401   .     S
C1808  C1890   1.401   .     S
H1812  C276    1.081   1_556 S
H1813  C277    1.079   1_556 S
H1817  C282    1.081   1_556 S
H1818  C283    1.079   1_556 S
N1833  Zn1847  2.029   .     S
N1834  Zn1848  2.029   .     S
O1835  Zn1847  2.007   .     S
O1839  Zn1848  2.007   .     S
O1840  Zn1847  2.007   .     S
O1841  Zn1848  2.007   .     S
O1842  Zn1847  1.974   .     S
O1843  Zn1848  1.974   .     S
O1844  Zn1847  1.974   .     S
O1845  Zn1848  1.974   .     S
C1849  O1925   1.301   .     A
C1849  O1919   1.301   .     A
C1849  C1852   1.465   .     S
C1850  C1861   1.496   .     S
C1850  C1852   1.408   .     A
C1851  C1891   1.408   .     A
C1851  C1860   1.465   .     S
C1851  C1892   1.408   .     A
C1852  C1890   1.408   .     A
C1853  C1862   1.479   .     S
C1853  N1918   1.375   .     A
C1854  N1917   1.375   .     A
C1854  C1868   1.479   .     S
C1854  C2107   1.427   .     S
C1855  N1918   1.375   .     A
C1855  C1875   1.479   .     S
C1856  N1917   1.375   .     A
C1856  C1881   1.479   .     S
C1856  C2105   1.427   .     S
C1857  H1893   1.082   .     S
C1857  O1930   1.220   .     D
C1857  C1890   1.496   .     S
C1858  H1904   1.082   .     S
C1858  C1891   1.496   .     S
C1858  O1920   1.220   .     D
C1859  H1910   1.082   .     S
C1859  C1892   1.496   .     S
C1859  O1921   1.220   .     D
C1860  O1924   1.301   .     A
C1860  O1923   1.301   .     A
C1861  H1911   1.082   .     S
C1861  O1922   1.220   .     D
C1862  C1867   1.397   .     A
C1862  C1863   1.396   .     A
C1863  C1864   1.399   .     A
C1863  H1912   1.073   .     S
C1864  C1865   1.394   .     A
C1864  H1913   1.078   .     S
C1865  C1866   1.393   .     A
C1865  H402    1.081   1_556 S
C1866  C1867   1.400   .     A
C1866  H403    1.079   1_556 S
C1867  H1916   1.076   .     S
C1868  C1874   1.397   .     A
C1868  C1869   1.396   .     A
C1869  C1870   1.399   .     A
C1869  H1894   1.073   .     S
C1870  H1895   1.078   .     S
C1870  C1872   1.394   .     A
C1871  O1929   1.289   .     A
C1871  O1926   1.289   .     A
C1871  C1888   1.385   .     S
C1872  C1873   1.393   .     A
C1873  C1874   1.400   .     A
C1874  H1898   1.076   .     S
C1875  C1880   1.397   .     A
C1875  C1876   1.396   .     A
C1876  H1899   1.073   .     S
C1876  C1877   1.399   .     A
C1877  C1878   1.394   .     A
C1877  H1900   1.078   .     S
C1878  C1879   1.393   .     A
C1879  C1880   1.400   .     A
C1880  H1903   1.076   .     S
C1881  C1887   1.396   .     A
C1881  C1883   1.397   .     A
C1882  O1928   1.289   .     A
C1882  C1889   1.385   .     S
C1882  O1927   1.289   .     A
C1883  C1884   1.400   .     A
C1883  H1905   1.076   .     S
C1884  C1885   1.393   .     A
C1884  H394    1.079   1_556 S
C1885  C1886   1.394   .     A
C1885  H395    1.081   1_556 S
C1886  C1887   1.399   .     A
C1886  H1908   1.078   .     S
C1887  H1909   1.073   .     S
C1889  C376    1.177   1_556 S
C1891  C1934   1.401   .     S
C1892  C1974   1.401   .     S
H1896  C360    1.081   1_556 S
H1897  C361    1.079   1_556 S
H1901  C366    1.081   1_556 S
H1902  C367    1.079   1_556 S
N1917  Zn1931  2.029   .     S
N1918  Zn1932  2.029   .     S
O1919  Zn1931  2.007   .     S
O1923  Zn1932  2.007   .     S
O1924  Zn1931  2.007   .     S
O1925  Zn1932  2.007   .     S
O1926  Zn1931  1.974   .     S
O1927  Zn1932  1.974   .     S
O1928  Zn1931  1.974   .     S
O1929  Zn1932  1.974   .     S
C1933  O2009   1.301   .     A
C1933  O2003   1.301   .     A
C1933  C1936   1.465   .     S
C1934  C1945   1.496   .     S
C1934  C1936   1.408   .     A
C1935  C1975   1.408   .     A
C1935  C1944   1.465   .     S
C1935  C1976   1.408   .     A
C1936  C1974   1.408   .     A
C1937  C1946   1.479   .     S
C1937  N2002   1.375   .     A
C1938  N2001   1.375   .     A
C1938  C1952   1.479   .     S
C1938  C2191   1.427   .     S
C1939  N2002   1.375   .     A
C1939  C1959   1.479   .     S
C1940  N2001   1.375   .     A
C1940  C1965   1.479   .     S
C1940  C2189   1.427   .     S
C1941  H1977   1.082   .     S
C1941  O2014   1.220   .     D
C1941  C1974   1.496   .     S
C1942  H1988   1.082   .     S
C1942  C1975   1.496   .     S
C1942  O2004   1.220   .     D
C1943  H1994   1.082   .     S
C1943  C1976   1.496   .     S
C1943  O2005   1.220   .     D
C1944  O2008   1.301   .     A
C1944  O2007   1.301   .     A
C1945  H1995   1.082   .     S
C1945  O2006   1.220   .     D
C1946  C1951   1.397   .     A
C1946  C1947   1.396   .     A
C1947  C1948   1.399   .     A
C1947  H1996   1.073   .     S
C1948  C1949   1.394   .     A
C1948  H1997   1.078   .     S
C1949  C1950   1.393   .     A
C1949  H486    1.081   1_556 S
C1950  C1951   1.400   .     A
C1950  H487    1.079   1_556 S
C1951  H2000   1.076   .     S
C1952  C1958   1.397   .     A
C1952  C1953   1.396   .     A
C1953  C1954   1.399   .     A
C1953  H1978   1.073   .     S
C1954  H1979   1.078   .     S
C1954  C1956   1.394   .     A
C1955  O2013   1.289   .     A
C1955  O2010   1.289   .     A
C1955  C1972   1.385   .     S
C1956  C1957   1.393   .     A
C1957  C1958   1.400   .     A
C1958  H1982   1.076   .     S
C1959  C1964   1.397   .     A
C1959  C1960   1.396   .     A
C1960  H1983   1.073   .     S
C1960  C1961   1.399   .     A
C1961  C1962   1.394   .     A
C1961  H1984   1.078   .     S
C1962  C1963   1.393   .     A
C1963  C1964   1.400   .     A
C1964  H1987   1.076   .     S
C1965  C1971   1.396   .     A
C1965  C1967   1.397   .     A
C1966  O2012   1.289   .     A
C1966  C1973   1.385   .     S
C1966  O2011   1.289   .     A
C1967  C1968   1.400   .     A
C1967  H1989   1.076   .     S
C1968  C1969   1.393   .     A
C1968  H478    1.079   1_556 S
C1969  C1970   1.394   .     A
C1969  H479    1.081   1_556 S
C1970  C1971   1.399   .     A
C1970  H1992   1.078   .     S
C1971  H1993   1.073   .     S
C1973  C460    1.177   1_556 S
C1975  C1766   1.401   1_655 S
C1976  C1806   1.401   1_655 S
H1980  C444    1.081   1_556 S
H1981  C445    1.079   1_556 S
H1985  C450    1.081   1_556 S
H1986  C451    1.079   1_556 S
N2001  Zn2015  2.029   .     S
N2002  Zn2016  2.029   .     S
O2003  Zn2015  2.007   .     S
O2007  Zn2016  2.007   .     S
O2008  Zn2015  2.007   .     S
O2009  Zn2016  2.007   .     S
O2010  Zn2015  1.974   .     S
O2011  Zn2016  1.974   .     S
O2012  Zn2015  1.974   .     S
O2013  Zn2016  1.974   .     S
C2017  O2093   1.301   .     A
C2017  O2087   1.301   .     A
C2017  C2020   1.465   .     S
C2018  C2029   1.496   .     S
C2018  C2020   1.408   .     A
C2018  C2227   1.401   1_455 S
C2019  C2059   1.408   .     A
C2019  C2028   1.465   .     S
C2019  C2060   1.408   .     A
C2020  C2058   1.408   .     A
C2021  C2030   1.479   .     S
C2021  N2086   1.375   .     A
C2022  N2085   1.375   .     A
C2022  C2036   1.479   .     S
C2022  C1519   1.427   1_565 S
C2023  N2086   1.375   .     A
C2023  C2043   1.479   .     S
C2024  N2085   1.375   .     A
C2024  C2049   1.479   .     S
C2024  C1517   1.427   1_565 S
C2025  H2061   1.082   .     S
C2025  O2098   1.220   .     D
C2025  C2058   1.496   .     S
C2026  H2072   1.082   .     S
C2026  C2059   1.496   .     S
C2026  O2088   1.220   .     D
C2027  H2078   1.082   .     S
C2027  C2060   1.496   .     S
C2027  O2089   1.220   .     D
C2028  O2092   1.301   .     A
C2028  O2091   1.301   .     A
C2029  H2079   1.082   .     S
C2029  O2090   1.220   .     D
C2030  C2035   1.397   .     A
C2030  C2031   1.396   .     A
C2031  C2032   1.399   .     A
C2031  H2080   1.073   .     S
C2032  C2033   1.394   .     A
C2032  H2081   1.078   .     S
C2033  C2034   1.393   .     A
C2033  H570    1.081   1_556 S
C2034  C2035   1.400   .     A
C2034  H571    1.079   1_556 S
C2035  H2084   1.076   .     S
C2036  C2042   1.397   .     A
C2036  C2037   1.396   .     A
C2037  C2038   1.399   .     A
C2037  H2062   1.073   .     S
C2038  H2063   1.078   .     S
C2038  C2040   1.394   .     A
C2039  O2097   1.289   .     A
C2039  O2094   1.289   .     A
C2039  C2056   1.385   .     S
C2040  C2041   1.393   .     A
C2041  C2042   1.400   .     A
C2042  H2066   1.076   .     S
C2043  C2048   1.397   .     A
C2043  C2044   1.396   .     A
C2044  H2067   1.073   .     S
C2044  C2045   1.399   .     A
C2045  C2046   1.394   .     A
C2045  H2068   1.078   .     S
C2046  C2047   1.393   .     A
C2047  C2048   1.400   .     A
C2048  H2071   1.076   .     S
C2049  C2055   1.396   .     A
C2049  C2051   1.397   .     A
C2050  O2096   1.289   .     A
C2050  C2057   1.385   .     S
C2050  O2095   1.289   .     A
C2051  C2052   1.400   .     A
C2051  H2073   1.076   .     S
C2052  C2053   1.393   .     A
C2052  H562    1.079   1_556 S
C2053  C2054   1.394   .     A
C2053  H563    1.081   1_556 S
C2054  C2055   1.399   .     A
C2054  H2076   1.078   .     S
C2055  H2077   1.073   .     S
C2057  C544    1.177   1_556 S
C2058  C2228   1.401   1_455 S
C2059  C2102   1.401   .     S
C2060  C2142   1.401   .     S
H2064  C528    1.081   1_556 S
H2065  C529    1.079   1_556 S
H2069  C534    1.081   1_556 S
H2070  C535    1.079   1_556 S
N2085  Zn2099  2.029   .     S
N2086  Zn2100  2.029   .     S
O2087  Zn2099  2.007   .     S
O2091  Zn2100  2.007   .     S
O2092  Zn2099  2.007   .     S
O2093  Zn2100  2.007   .     S
O2094  Zn2099  1.974   .     S
O2095  Zn2100  1.974   .     S
O2096  Zn2099  1.974   .     S
O2097  Zn2100  1.974   .     S
C2101  O2177   1.301   .     A
C2101  O2171   1.301   .     A
C2101  C2104   1.465   .     S
C2102  C2113   1.496   .     S
C2102  C2104   1.408   .     A
C2103  C2143   1.408   .     A
C2103  C2112   1.465   .     S
C2103  C2144   1.408   .     A
C2104  C2142   1.408   .     A
C2105  C2114   1.479   .     S
C2105  N2170   1.375   .     A
C2106  N2169   1.375   .     A
C2106  C2120   1.479   .     S
C2106  C1603   1.427   1_565 S
C2107  N2170   1.375   .     A
C2107  C2127   1.479   .     S
C2108  N2169   1.375   .     A
C2108  C2133   1.479   .     S
C2108  C1601   1.427   1_565 S
C2109  H2145   1.082   .     S
C2109  O2182   1.220   .     D
C2109  C2142   1.496   .     S
C2110  H2156   1.082   .     S
C2110  C2143   1.496   .     S
C2110  O2172   1.220   .     D
C2111  H2162   1.082   .     S
C2111  C2144   1.496   .     S
C2111  O2173   1.220   .     D
C2112  O2176   1.301   .     A
C2112  O2175   1.301   .     A
C2113  H2163   1.082   .     S
C2113  O2174   1.220   .     D
C2114  C2119   1.397   .     A
C2114  C2115   1.396   .     A
C2115  C2116   1.399   .     A
C2115  H2164   1.073   .     S
C2116  C2117   1.394   .     A
C2116  H2165   1.078   .     S
C2117  C2118   1.393   .     A
C2117  H654    1.081   1_556 S
C2118  C2119   1.400   .     A
C2118  H655    1.079   1_556 S
C2119  H2168   1.076   .     S
C2120  C2126   1.397   .     A
C2120  C2121   1.396   .     A
C2121  C2122   1.399   .     A
C2121  H2146   1.073   .     S
C2122  H2147   1.078   .     S
C2122  C2124   1.394   .     A
C2123  O2181   1.289   .     A
C2123  O2178   1.289   .     A
C2123  C2140   1.385   .     S
C2124  C2125   1.393   .     A
C2125  C2126   1.400   .     A
C2126  H2150   1.076   .     S
C2127  C2132   1.397   .     A
C2127  C2128   1.396   .     A
C2128  H2151   1.073   .     S
C2128  C2129   1.399   .     A
C2129  C2130   1.394   .     A
C2129  H2152   1.078   .     S
C2130  C2131   1.393   .     A
C2131  C2132   1.400   .     A
C2132  H2155   1.076   .     S
C2133  C2139   1.396   .     A
C2133  C2135   1.397   .     A
C2134  O2180   1.289   .     A
C2134  C2141   1.385   .     S
C2134  O2179   1.289   .     A
C2135  C2136   1.400   .     A
C2135  H2157   1.076   .     S
C2136  C2137   1.393   .     A
C2136  H646    1.079   1_556 S
C2137  C2138   1.394   .     A
C2137  H647    1.081   1_556 S
C2138  C2139   1.399   .     A
C2138  H2160   1.078   .     S
C2139  H2161   1.073   .     S
C2141  C628    1.177   1_556 S
C2143  C2186   1.401   .     S
C2144  C2226   1.401   .     S
H2148  C612    1.081   1_556 S
H2149  C613    1.079   1_556 S
H2153  C618    1.081   1_556 S
H2154  C619    1.079   1_556 S
N2169  Zn2183  2.029   .     S
N2170  Zn2184  2.029   .     S
O2171  Zn2183  2.007   .     S
O2175  Zn2184  2.007   .     S
O2176  Zn2183  2.007   .     S
O2177  Zn2184  2.007   .     S
O2178  Zn2183  1.974   .     S
O2179  Zn2184  1.974   .     S
O2180  Zn2183  1.974   .     S
O2181  Zn2184  1.974   .     S
C2185  O2261   1.301   .     A
C2185  O2255   1.301   .     A
C2185  C2188   1.465   .     S
C2186  C2197   1.496   .     S
C2186  C2188   1.408   .     A
C2187  C2227   1.408   .     A
C2187  C2196   1.465   .     S
C2187  C2228   1.408   .     A
C2188  C2226   1.408   .     A
C2189  C2198   1.479   .     S
C2189  N2254   1.375   .     A
C2190  N2253   1.375   .     A
C2190  C2204   1.479   .     S
C2190  C1687   1.427   1_565 S
C2191  N2254   1.375   .     A
C2191  C2211   1.479   .     S
C2192  N2253   1.375   .     A
C2192  C2217   1.479   .     S
C2192  C1685   1.427   1_565 S
C2193  H2229   1.082   .     S
C2193  O2266   1.220   .     D
C2193  C2226   1.496   .     S
C2194  H2240   1.082   .     S
C2194  C2227   1.496   .     S
C2194  O2256   1.220   .     D
C2195  H2246   1.082   .     S
C2195  C2228   1.496   .     S
C2195  O2257   1.220   .     D
C2196  O2260   1.301   .     A
C2196  O2259   1.301   .     A
C2197  H2247   1.082   .     S
C2197  O2258   1.220   .     D
C2198  C2203   1.397   .     A
C2198  C2199   1.396   .     A
C2199  C2200   1.399   .     A
C2199  H2248   1.073   .     S
C2200  C2201   1.394   .     A
C2200  H2249   1.078   .     S
C2201  C2202   1.393   .     A
C2201  H738    1.081   1_556 S
C2202  C2203   1.400   .     A
C2202  H739    1.079   1_556 S
C2203  H2252   1.076   .     S
C2204  C2210   1.397   .     A
C2204  C2205   1.396   .     A
C2205  C2206   1.399   .     A
C2205  H2230   1.073   .     S
C2206  H2231   1.078   .     S
C2206  C2208   1.394   .     A
C2207  O2265   1.289   .     A
C2207  O2262   1.289   .     A
C2207  C2224   1.385   .     S
C2208  C2209   1.393   .     A
C2209  C2210   1.400   .     A
C2210  H2234   1.076   .     S
C2211  C2216   1.397   .     A
C2211  C2212   1.396   .     A
C2212  H2235   1.073   .     S
C2212  C2213   1.399   .     A
C2213  C2214   1.394   .     A
C2213  H2236   1.078   .     S
C2214  C2215   1.393   .     A
C2215  C2216   1.400   .     A
C2216  H2239   1.076   .     S
C2217  C2223   1.396   .     A
C2217  C2219   1.397   .     A
C2218  O2264   1.289   .     A
C2218  C2225   1.385   .     S
C2218  O2263   1.289   .     A
C2219  C2220   1.400   .     A
C2219  H2241   1.076   .     S
C2220  C2221   1.393   .     A
C2220  H730    1.079   1_556 S
C2221  C2222   1.394   .     A
C2221  H731    1.081   1_556 S
C2222  C2223   1.399   .     A
C2222  H2244   1.078   .     S
C2223  H2245   1.073   .     S
C2225  C712    1.177   1_556 S
C2227  C2018   1.401   1_655 S
C2228  C2058   1.401   1_655 S
H2232  C696    1.081   1_556 S
H2233  C697    1.079   1_556 S
H2237  C702    1.081   1_556 S
H2238  C703    1.079   1_556 S
N2253  Zn2267  2.029   .     S
N2254  Zn2268  2.029   .     S
O2255  Zn2267  2.007   .     S
O2259  Zn2268  2.007   .     S
O2260  Zn2267  2.007   .     S
O2261  Zn2268  2.007   .     S
O2262  Zn2267  1.974   .     S
O2263  Zn2268  1.974   .     S
O2264  Zn2267  1.974   .     S
O2265  Zn2268  1.974   .     S
