data_str_m3_o10_o16_pcu_sym.143
_audit_creation_date              2020-01-03
_audit_creation_method            'Materials Studio'
_symmetry_space_group_name_H-M    'P1'
_symmetry_Int_Tables_number       1
_symmetry_cell_setting            triclinic
loop_
_symmetry_equiv_pos_as_xyz
  x,y,z
_cell_length_a                    23.4848
_cell_length_b                    25.7040
_cell_length_c                    24.2456
_cell_angle_alpha                 92.1295
_cell_angle_beta                  101.3873
_cell_angle_gamma                 94.2468
loop_
_atom_site_label
_atom_site_type_symbol
_atom_site_fract_x
_atom_site_fract_y
_atom_site_fract_z
_atom_site_U_iso_or_equiv
_atom_site_adp_type
_atom_site_occupancy
C1     C     0.01489   0.26491   0.24859   0.00000  Uiso   1.00
C2     C     0.13131   0.16050   0.49530   0.00000  Uiso   1.00
C3     C     0.10243   0.14378   0.44053   0.00000  Uiso   1.00
C4     C     0.18845   0.14627   0.01394   0.00000  Uiso   1.00
C5     C     0.21166   0.10783   0.48298   0.00000  Uiso   1.00
C6     C     0.17810   0.08533   0.43231   0.00000  Uiso   1.00
C7     C     0.12391   0.10350   0.41135   0.00000  Uiso   1.00
C8     C     0.22349   0.17022   0.06238   0.00000  Uiso   1.00
C9     C     0.29953   0.11340   0.05554   0.00000  Uiso   1.00
C10    C     0.05282   0.16828   0.41604   0.00000  Uiso   1.00
C11    C     0.02276   0.31953   0.24815   0.00000  Uiso   1.00
C12    C     0.03537   0.16806   0.35514   0.00000  Uiso   1.00
C13    C     0.31051   0.01378   0.25121   0.00000  Uiso   1.00
C14    C     0.31841   0.06841   0.25124   0.00000  Uiso   1.00
C15    C     0.29734   0.16267   0.14488   0.00000  Uiso   1.00
C16    C     0.26785   0.09245   0.00378   0.00000  Uiso   1.00
C17    C     0.27611   0.15132   0.08528   0.00000  Uiso   1.00
C18    C     0.02459   0.19912   0.44952   0.00000  Uiso   1.00
C19    C     0.04825   0.20883   0.00639   0.00000  Uiso   1.00
C20    C     0.10190   0.19089   0.02911   0.00000  Uiso   1.00
H21    H     0.26743   0.32972   0.25338   0.00000  Uiso   1.00
H22    H     0.15656   0.12506   0.20831   0.00000  Uiso   1.00
H23    H     0.20954   0.20237   0.08494   0.00000  Uiso   1.00
H24    H     0.11857   0.20007   0.07342   0.00000  Uiso   1.00
H25    H     0.09825   0.08505   0.37258   0.00000  Uiso   1.00
H26    H     0.06581   0.00353   0.24569   0.00000  Uiso   1.00
N27    N     0.14493   0.15223   0.23542   0.00000  Uiso   1.00
N28    N     0.18840   0.18110   0.26457   0.00000  Uiso   1.00
O29    O     0.29769   0.24629   0.25357   0.00000  Uiso   1.00
O30    O     0.05742   0.23704   0.24424   0.00000  Uiso   1.00
O31    O     0.31490   0.17358   0.33380   0.00000  Uiso   1.00
O32    O     0.07463   0.16433   0.32446   0.00000  Uiso   1.00
O33    O     0.27592   0.09629   0.25576   0.00000  Uiso   1.00
O34    O     0.03565   0.08704   0.24643   0.00000  Uiso   1.00
O35    O     0.25870   0.16901   0.17554   0.00000  Uiso   1.00
O36    O     0.01843   0.15976   0.16620   0.00000  Uiso   1.00
Zn37   Zn    0.27119   0.17284   0.25623   0.00000  Uiso   1.00
Zn38   Zn    0.06214   0.16049   0.24377   0.00000  Uiso   1.00
H39    H     0.00728   0.09827   0.07345   0.00000  Uiso   1.00
H40    H     0.17679   0.20820   0.29178   0.00000  Uiso   1.00
O41    O     0.19664   0.04357   0.40495   0.00000  Uiso   1.00
C42    C     0.21721   0.06156   0.35772   0.00000  Uiso   1.00
H43    H     0.25313   0.09308   0.37017   0.00000  Uiso   1.00
H44    H     0.18139   0.07508   0.32567   0.00000  Uiso   1.00
H45    H     0.23509   0.02858   0.33795   0.00000  Uiso   1.00
H46    H     0.28645   0.06303   0.48126   0.00000  Uiso   1.00
H47    H     0.31869   0.21706   0.43136   0.00000  Uiso   1.00
H48    H     0.02617   0.23209   0.03244   0.00000  Uiso   1.00
C49    C     0.34822   0.26491   0.24859   0.00000  Uiso   1.00
C50    C     0.46465   0.16050   0.49530   0.00000  Uiso   1.00
C51    C     0.43576   0.14378   0.44053   0.00000  Uiso   1.00
C52    C     0.52179   0.14627   0.01394   0.00000  Uiso   1.00
C53    C     0.54499   0.10783   0.48298   0.00000  Uiso   1.00
C54    C     0.51143   0.08533   0.43231   0.00000  Uiso   1.00
C55    C     0.45724   0.10350   0.41135   0.00000  Uiso   1.00
C56    C     0.55682   0.17022   0.06238   0.00000  Uiso   1.00
C57    C     0.63286   0.11340   0.05554   0.00000  Uiso   1.00
C58    C     0.38616   0.16828   0.41604   0.00000  Uiso   1.00
C59    C     0.35609   0.31953   0.24815   0.00000  Uiso   1.00
C60    C     0.36870   0.16806   0.35514   0.00000  Uiso   1.00
C61    C     0.64384   0.01378   0.25121   0.00000  Uiso   1.00
C62    C     0.65175   0.06841   0.25124   0.00000  Uiso   1.00
C63    C     0.63067   0.16267   0.14488   0.00000  Uiso   1.00
C64    C     0.60118   0.09245   0.00378   0.00000  Uiso   1.00
C65    C     0.60944   0.15132   0.08528   0.00000  Uiso   1.00
C66    C     0.35793   0.19912   0.44952   0.00000  Uiso   1.00
C67    C     0.38158   0.20883   0.00639   0.00000  Uiso   1.00
C68    C     0.43523   0.19089   0.02911   0.00000  Uiso   1.00
H69    H     0.60076   0.32972   0.25338   0.00000  Uiso   1.00
H70    H     0.48989   0.12506   0.20831   0.00000  Uiso   1.00
H71    H     0.54288   0.20237   0.08494   0.00000  Uiso   1.00
H72    H     0.45191   0.20007   0.07342   0.00000  Uiso   1.00
H73    H     0.43158   0.08505   0.37258   0.00000  Uiso   1.00
H74    H     0.39914   0.00353   0.24569   0.00000  Uiso   1.00
N75    N     0.47827   0.15223   0.23542   0.00000  Uiso   1.00
N76    N     0.52173   0.18110   0.26457   0.00000  Uiso   1.00
O77    O     0.63102   0.24629   0.25357   0.00000  Uiso   1.00
O78    O     0.39075   0.23704   0.24424   0.00000  Uiso   1.00
O79    O     0.64823   0.17358   0.33380   0.00000  Uiso   1.00
O80    O     0.40796   0.16433   0.32446   0.00000  Uiso   1.00
O81    O     0.60925   0.09629   0.25576   0.00000  Uiso   1.00
O82    O     0.36898   0.08704   0.24643   0.00000  Uiso   1.00
O83    O     0.59204   0.16901   0.17554   0.00000  Uiso   1.00
O84    O     0.35177   0.15976   0.16620   0.00000  Uiso   1.00
Zn85   Zn    0.60453   0.17284   0.25623   0.00000  Uiso   1.00
Zn86   Zn    0.39547   0.16049   0.24377   0.00000  Uiso   1.00
H87    H     0.34061   0.09827   0.07345   0.00000  Uiso   1.00
H88    H     0.51012   0.20820   0.29178   0.00000  Uiso   1.00
O89    O     0.52998   0.04357   0.40495   0.00000  Uiso   1.00
C90    C     0.55054   0.06156   0.35772   0.00000  Uiso   1.00
H91    H     0.58646   0.09308   0.37017   0.00000  Uiso   1.00
H92    H     0.51473   0.07508   0.32567   0.00000  Uiso   1.00
H93    H     0.56842   0.02858   0.33795   0.00000  Uiso   1.00
H94    H     0.61978   0.06303   0.48126   0.00000  Uiso   1.00
H95    H     0.65202   0.21706   0.43136   0.00000  Uiso   1.00
H96    H     0.35950   0.23209   0.03244   0.00000  Uiso   1.00
C97    C     0.68156   0.26491   0.24859   0.00000  Uiso   1.00
C98    C     0.79798   0.16050   0.49530   0.00000  Uiso   1.00
C99    C     0.76909   0.14378   0.44053   0.00000  Uiso   1.00
C100   C     0.85512   0.14627   0.01394   0.00000  Uiso   1.00
C101   C     0.87833   0.10783   0.48298   0.00000  Uiso   1.00
C102   C     0.84476   0.08533   0.43231   0.00000  Uiso   1.00
C103   C     0.79058   0.10350   0.41135   0.00000  Uiso   1.00
C104   C     0.89016   0.17022   0.06238   0.00000  Uiso   1.00
C105   C     0.96620   0.11340   0.05554   0.00000  Uiso   1.00
C106   C     0.71949   0.16828   0.41604   0.00000  Uiso   1.00
C107   C     0.68942   0.31953   0.24815   0.00000  Uiso   1.00
C108   C     0.70203   0.16806   0.35514   0.00000  Uiso   1.00
C109   C     0.97717   0.01378   0.25121   0.00000  Uiso   1.00
C110   C     0.98508   0.06841   0.25124   0.00000  Uiso   1.00
C111   C     0.96401   0.16267   0.14488   0.00000  Uiso   1.00
C112   C     0.93451   0.09245   0.00378   0.00000  Uiso   1.00
C113   C     0.94277   0.15132   0.08528   0.00000  Uiso   1.00
C114   C     0.69126   0.19912   0.44952   0.00000  Uiso   1.00
C115   C     0.71492   0.20883   0.00639   0.00000  Uiso   1.00
C116   C     0.76857   0.19089   0.02911   0.00000  Uiso   1.00
H117   H     0.93409   0.32972   0.25338   0.00000  Uiso   1.00
H118   H     0.82323   0.12506   0.20831   0.00000  Uiso   1.00
H119   H     0.87621   0.20237   0.08494   0.00000  Uiso   1.00
H120   H     0.78524   0.20007   0.07342   0.00000  Uiso   1.00
H121   H     0.76491   0.08505   0.37258   0.00000  Uiso   1.00
H122   H     0.73247   0.00353   0.24569   0.00000  Uiso   1.00
N123   N     0.81160   0.15223   0.23542   0.00000  Uiso   1.00
N124   N     0.85507   0.18110   0.26457   0.00000  Uiso   1.00
O125   O     0.96435   0.24629   0.25357   0.00000  Uiso   1.00
O126   O     0.72408   0.23704   0.24424   0.00000  Uiso   1.00
O127   O     0.98157   0.17358   0.33380   0.00000  Uiso   1.00
O128   O     0.74130   0.16433   0.32446   0.00000  Uiso   1.00
O129   O     0.94258   0.09629   0.25576   0.00000  Uiso   1.00
O130   O     0.70231   0.08704   0.24643   0.00000  Uiso   1.00
O131   O     0.92537   0.16901   0.17554   0.00000  Uiso   1.00
O132   O     0.68510   0.15976   0.16620   0.00000  Uiso   1.00
Zn133  Zn    0.93786   0.17284   0.25623   0.00000  Uiso   1.00
Zn134  Zn    0.72881   0.16049   0.24377   0.00000  Uiso   1.00
H135   H     0.67395   0.09827   0.07345   0.00000  Uiso   1.00
H136   H     0.84346   0.20820   0.29178   0.00000  Uiso   1.00
O137   O     0.86331   0.04357   0.40495   0.00000  Uiso   1.00
C138   C     0.88388   0.06156   0.35772   0.00000  Uiso   1.00
H139   H     0.91980   0.09308   0.37017   0.00000  Uiso   1.00
H140   H     0.84806   0.07508   0.32567   0.00000  Uiso   1.00
H141   H     0.90176   0.02858   0.33795   0.00000  Uiso   1.00
H142   H     0.95311   0.06303   0.48126   0.00000  Uiso   1.00
H143   H     0.98535   0.21706   0.43136   0.00000  Uiso   1.00
H144   H     0.69283   0.23209   0.03244   0.00000  Uiso   1.00
C145   C     0.01489   0.59825   0.24859   0.00000  Uiso   1.00
C146   C     0.13131   0.49383   0.49530   0.00000  Uiso   1.00
C147   C     0.10243   0.47711   0.44053   0.00000  Uiso   1.00
C148   C     0.18845   0.47961   0.01394   0.00000  Uiso   1.00
C149   C     0.21166   0.44116   0.48298   0.00000  Uiso   1.00
C150   C     0.17810   0.41866   0.43231   0.00000  Uiso   1.00
C151   C     0.12391   0.43683   0.41135   0.00000  Uiso   1.00
C152   C     0.22349   0.50356   0.06238   0.00000  Uiso   1.00
C153   C     0.29953   0.44674   0.05554   0.00000  Uiso   1.00
C154   C     0.05282   0.50162   0.41604   0.00000  Uiso   1.00
C155   C     0.02276   0.65287   0.24815   0.00000  Uiso   1.00
C156   C     0.03537   0.50139   0.35514   0.00000  Uiso   1.00
C157   C     0.31051   0.34711   0.25121   0.00000  Uiso   1.00
C158   C     0.31841   0.40175   0.25124   0.00000  Uiso   1.00
C159   C     0.29734   0.49600   0.14488   0.00000  Uiso   1.00
C160   C     0.26785   0.42579   0.00378   0.00000  Uiso   1.00
C161   C     0.27611   0.48466   0.08528   0.00000  Uiso   1.00
C162   C     0.02459   0.53245   0.44952   0.00000  Uiso   1.00
C163   C     0.04825   0.54217   0.00639   0.00000  Uiso   1.00
C164   C     0.10190   0.52422   0.02911   0.00000  Uiso   1.00
H165   H     0.26743   0.66305   0.25338   0.00000  Uiso   1.00
H166   H     0.15656   0.45840   0.20831   0.00000  Uiso   1.00
H167   H     0.20954   0.53571   0.08494   0.00000  Uiso   1.00
H168   H     0.11857   0.53340   0.07342   0.00000  Uiso   1.00
H169   H     0.09825   0.41839   0.37258   0.00000  Uiso   1.00
H170   H     0.06581   0.33687   0.24569   0.00000  Uiso   1.00
N171   N     0.14493   0.48556   0.23542   0.00000  Uiso   1.00
N172   N     0.18840   0.51444   0.26457   0.00000  Uiso   1.00
O173   O     0.29769   0.57963   0.25357   0.00000  Uiso   1.00
O174   O     0.05742   0.57038   0.24424   0.00000  Uiso   1.00
O175   O     0.31490   0.50691   0.33380   0.00000  Uiso   1.00
O176   O     0.07463   0.49766   0.32446   0.00000  Uiso   1.00
O177   O     0.27592   0.42962   0.25576   0.00000  Uiso   1.00
O178   O     0.03565   0.42037   0.24643   0.00000  Uiso   1.00
O179   O     0.25870   0.50234   0.17554   0.00000  Uiso   1.00
O180   O     0.01843   0.49309   0.16620   0.00000  Uiso   1.00
Zn181  Zn    0.27119   0.50618   0.25623   0.00000  Uiso   1.00
Zn182  Zn    0.06214   0.49382   0.24377   0.00000  Uiso   1.00
H183   H     0.00728   0.43161   0.07345   0.00000  Uiso   1.00
H184   H     0.17679   0.54153   0.29178   0.00000  Uiso   1.00
O185   O     0.19664   0.37691   0.40495   0.00000  Uiso   1.00
C186   C     0.21721   0.39490   0.35772   0.00000  Uiso   1.00
H187   H     0.25313   0.42641   0.37017   0.00000  Uiso   1.00
H188   H     0.18139   0.40842   0.32567   0.00000  Uiso   1.00
H189   H     0.23509   0.36191   0.33795   0.00000  Uiso   1.00
H190   H     0.28645   0.39636   0.48126   0.00000  Uiso   1.00
H191   H     0.31869   0.55040   0.43136   0.00000  Uiso   1.00
H192   H     0.02617   0.56542   0.03244   0.00000  Uiso   1.00
C193   C     0.34822   0.59825   0.24859   0.00000  Uiso   1.00
C194   C     0.46465   0.49383   0.49530   0.00000  Uiso   1.00
C195   C     0.43576   0.47711   0.44053   0.00000  Uiso   1.00
C196   C     0.52179   0.47961   0.01394   0.00000  Uiso   1.00
C197   C     0.54499   0.44116   0.48298   0.00000  Uiso   1.00
C198   C     0.51143   0.41866   0.43231   0.00000  Uiso   1.00
C199   C     0.45724   0.43683   0.41135   0.00000  Uiso   1.00
C200   C     0.55682   0.50356   0.06238   0.00000  Uiso   1.00
C201   C     0.63286   0.44674   0.05554   0.00000  Uiso   1.00
C202   C     0.38616   0.50162   0.41604   0.00000  Uiso   1.00
C203   C     0.35609   0.65287   0.24815   0.00000  Uiso   1.00
C204   C     0.36870   0.50139   0.35514   0.00000  Uiso   1.00
C205   C     0.64384   0.34711   0.25121   0.00000  Uiso   1.00
C206   C     0.65175   0.40175   0.25124   0.00000  Uiso   1.00
C207   C     0.63067   0.49600   0.14488   0.00000  Uiso   1.00
C208   C     0.60118   0.42579   0.00378   0.00000  Uiso   1.00
C209   C     0.60944   0.48466   0.08528   0.00000  Uiso   1.00
C210   C     0.35793   0.53245   0.44952   0.00000  Uiso   1.00
C211   C     0.38158   0.54217   0.00639   0.00000  Uiso   1.00
C212   C     0.43523   0.52422   0.02911   0.00000  Uiso   1.00
H213   H     0.60076   0.66305   0.25338   0.00000  Uiso   1.00
H214   H     0.48989   0.45840   0.20831   0.00000  Uiso   1.00
H215   H     0.54288   0.53571   0.08494   0.00000  Uiso   1.00
H216   H     0.45191   0.53340   0.07342   0.00000  Uiso   1.00
H217   H     0.43158   0.41839   0.37258   0.00000  Uiso   1.00
H218   H     0.39914   0.33687   0.24569   0.00000  Uiso   1.00
N219   N     0.47827   0.48556   0.23542   0.00000  Uiso   1.00
N220   N     0.52173   0.51444   0.26457   0.00000  Uiso   1.00
O221   O     0.63102   0.57963   0.25357   0.00000  Uiso   1.00
O222   O     0.39075   0.57038   0.24424   0.00000  Uiso   1.00
O223   O     0.64823   0.50691   0.33380   0.00000  Uiso   1.00
O224   O     0.40796   0.49766   0.32446   0.00000  Uiso   1.00
O225   O     0.60925   0.42962   0.25576   0.00000  Uiso   1.00
O226   O     0.36898   0.42037   0.24643   0.00000  Uiso   1.00
O227   O     0.59204   0.50234   0.17554   0.00000  Uiso   1.00
O228   O     0.35177   0.49309   0.16620   0.00000  Uiso   1.00
Zn229  Zn    0.60453   0.50618   0.25623   0.00000  Uiso   1.00
Zn230  Zn    0.39547   0.49382   0.24377   0.00000  Uiso   1.00
H231   H     0.34061   0.43161   0.07345   0.00000  Uiso   1.00
H232   H     0.51012   0.54153   0.29178   0.00000  Uiso   1.00
O233   O     0.52998   0.37691   0.40495   0.00000  Uiso   1.00
C234   C     0.55054   0.39490   0.35772   0.00000  Uiso   1.00
H235   H     0.58646   0.42641   0.37017   0.00000  Uiso   1.00
H236   H     0.51473   0.40842   0.32567   0.00000  Uiso   1.00
H237   H     0.56842   0.36191   0.33795   0.00000  Uiso   1.00
H238   H     0.61978   0.39636   0.48126   0.00000  Uiso   1.00
H239   H     0.65202   0.55040   0.43136   0.00000  Uiso   1.00
H240   H     0.35950   0.56542   0.03244   0.00000  Uiso   1.00
C241   C     0.68156   0.59825   0.24859   0.00000  Uiso   1.00
C242   C     0.79798   0.49383   0.49530   0.00000  Uiso   1.00
C243   C     0.76909   0.47711   0.44053   0.00000  Uiso   1.00
C244   C     0.85512   0.47961   0.01394   0.00000  Uiso   1.00
C245   C     0.87833   0.44116   0.48298   0.00000  Uiso   1.00
C246   C     0.84476   0.41866   0.43231   0.00000  Uiso   1.00
C247   C     0.79058   0.43683   0.41135   0.00000  Uiso   1.00
C248   C     0.89016   0.50356   0.06238   0.00000  Uiso   1.00
C249   C     0.96620   0.44674   0.05554   0.00000  Uiso   1.00
C250   C     0.71949   0.50162   0.41604   0.00000  Uiso   1.00
C251   C     0.68942   0.65287   0.24815   0.00000  Uiso   1.00
C252   C     0.70203   0.50139   0.35514   0.00000  Uiso   1.00
C253   C     0.97717   0.34711   0.25121   0.00000  Uiso   1.00
C254   C     0.98508   0.40175   0.25124   0.00000  Uiso   1.00
C255   C     0.96401   0.49600   0.14488   0.00000  Uiso   1.00
C256   C     0.93451   0.42579   0.00378   0.00000  Uiso   1.00
C257   C     0.94277   0.48466   0.08528   0.00000  Uiso   1.00
C258   C     0.69126   0.53245   0.44952   0.00000  Uiso   1.00
C259   C     0.71492   0.54217   0.00639   0.00000  Uiso   1.00
C260   C     0.76857   0.52422   0.02911   0.00000  Uiso   1.00
H261   H     0.93409   0.66305   0.25338   0.00000  Uiso   1.00
H262   H     0.82323   0.45840   0.20831   0.00000  Uiso   1.00
H263   H     0.87621   0.53571   0.08494   0.00000  Uiso   1.00
H264   H     0.78524   0.53340   0.07342   0.00000  Uiso   1.00
H265   H     0.76491   0.41839   0.37258   0.00000  Uiso   1.00
H266   H     0.73247   0.33687   0.24569   0.00000  Uiso   1.00
N267   N     0.81160   0.48556   0.23542   0.00000  Uiso   1.00
N268   N     0.85507   0.51444   0.26457   0.00000  Uiso   1.00
O269   O     0.96435   0.57963   0.25357   0.00000  Uiso   1.00
O270   O     0.72408   0.57038   0.24424   0.00000  Uiso   1.00
O271   O     0.98157   0.50691   0.33380   0.00000  Uiso   1.00
O272   O     0.74130   0.49766   0.32446   0.00000  Uiso   1.00
O273   O     0.94258   0.42962   0.25576   0.00000  Uiso   1.00
O274   O     0.70231   0.42037   0.24643   0.00000  Uiso   1.00
O275   O     0.92537   0.50234   0.17554   0.00000  Uiso   1.00
O276   O     0.68510   0.49309   0.16620   0.00000  Uiso   1.00
Zn277  Zn    0.93786   0.50618   0.25623   0.00000  Uiso   1.00
Zn278  Zn    0.72881   0.49382   0.24377   0.00000  Uiso   1.00
H279   H     0.67395   0.43161   0.07345   0.00000  Uiso   1.00
H280   H     0.84346   0.54153   0.29178   0.00000  Uiso   1.00
O281   O     0.86331   0.37691   0.40495   0.00000  Uiso   1.00
C282   C     0.88388   0.39490   0.35772   0.00000  Uiso   1.00
H283   H     0.91980   0.42641   0.37017   0.00000  Uiso   1.00
H284   H     0.84806   0.40842   0.32567   0.00000  Uiso   1.00
H285   H     0.90176   0.36191   0.33795   0.00000  Uiso   1.00
H286   H     0.95311   0.39636   0.48126   0.00000  Uiso   1.00
H287   H     0.98535   0.55040   0.43136   0.00000  Uiso   1.00
H288   H     0.69283   0.56542   0.03244   0.00000  Uiso   1.00
C289   C     0.01489   0.93158   0.24859   0.00000  Uiso   1.00
C290   C     0.13131   0.82716   0.49530   0.00000  Uiso   1.00
C291   C     0.10243   0.81045   0.44053   0.00000  Uiso   1.00
C292   C     0.18845   0.81294   0.01394   0.00000  Uiso   1.00
C293   C     0.21166   0.77450   0.48298   0.00000  Uiso   1.00
C294   C     0.17810   0.75200   0.43231   0.00000  Uiso   1.00
C295   C     0.12391   0.77016   0.41135   0.00000  Uiso   1.00
C296   C     0.22349   0.83689   0.06238   0.00000  Uiso   1.00
C297   C     0.29953   0.78007   0.05554   0.00000  Uiso   1.00
C298   C     0.05282   0.83495   0.41604   0.00000  Uiso   1.00
C299   C     0.02276   0.98620   0.24815   0.00000  Uiso   1.00
C300   C     0.03537   0.83472   0.35514   0.00000  Uiso   1.00
C301   C     0.31051   0.68044   0.25121   0.00000  Uiso   1.00
C302   C     0.31841   0.73508   0.25124   0.00000  Uiso   1.00
C303   C     0.29734   0.82933   0.14488   0.00000  Uiso   1.00
C304   C     0.26785   0.75912   0.00378   0.00000  Uiso   1.00
C305   C     0.27611   0.81799   0.08528   0.00000  Uiso   1.00
C306   C     0.02459   0.86578   0.44952   0.00000  Uiso   1.00
C307   C     0.04825   0.87550   0.00639   0.00000  Uiso   1.00
C308   C     0.10190   0.85756   0.02911   0.00000  Uiso   1.00
H309   H     0.26743   0.99639   0.25338   0.00000  Uiso   1.00
H310   H     0.15656   0.79173   0.20831   0.00000  Uiso   1.00
H311   H     0.20954   0.86904   0.08494   0.00000  Uiso   1.00
H312   H     0.11857   0.86674   0.07342   0.00000  Uiso   1.00
H313   H     0.09825   0.75172   0.37258   0.00000  Uiso   1.00
H314   H     0.06581   0.67020   0.24569   0.00000  Uiso   1.00
N315   N     0.14493   0.81890   0.23542   0.00000  Uiso   1.00
N316   N     0.18840   0.84777   0.26457   0.00000  Uiso   1.00
O317   O     0.29769   0.91296   0.25357   0.00000  Uiso   1.00
O318   O     0.05742   0.90371   0.24424   0.00000  Uiso   1.00
O319   O     0.31490   0.84024   0.33380   0.00000  Uiso   1.00
O320   O     0.07463   0.83099   0.32446   0.00000  Uiso   1.00
O321   O     0.27592   0.76296   0.25576   0.00000  Uiso   1.00
O322   O     0.03565   0.75371   0.24643   0.00000  Uiso   1.00
O323   O     0.25870   0.83567   0.17554   0.00000  Uiso   1.00
O324   O     0.01843   0.82642   0.16620   0.00000  Uiso   1.00
Zn325  Zn    0.27119   0.83951   0.25623   0.00000  Uiso   1.00
Zn326  Zn    0.06214   0.82716   0.24377   0.00000  Uiso   1.00
H327   H     0.00728   0.76494   0.07345   0.00000  Uiso   1.00
H328   H     0.17679   0.87486   0.29178   0.00000  Uiso   1.00
O329   O     0.19664   0.71024   0.40495   0.00000  Uiso   1.00
C330   C     0.21721   0.72823   0.35772   0.00000  Uiso   1.00
H331   H     0.25313   0.75974   0.37017   0.00000  Uiso   1.00
H332   H     0.18139   0.74175   0.32567   0.00000  Uiso   1.00
H333   H     0.23509   0.69524   0.33795   0.00000  Uiso   1.00
H334   H     0.28645   0.72970   0.48126   0.00000  Uiso   1.00
H335   H     0.31869   0.88373   0.43136   0.00000  Uiso   1.00
H336   H     0.02617   0.89876   0.03244   0.00000  Uiso   1.00
C337   C     0.34822   0.93158   0.24859   0.00000  Uiso   1.00
C338   C     0.46465   0.82716   0.49530   0.00000  Uiso   1.00
C339   C     0.43576   0.81045   0.44053   0.00000  Uiso   1.00
C340   C     0.52179   0.81294   0.01394   0.00000  Uiso   1.00
C341   C     0.54499   0.77450   0.48298   0.00000  Uiso   1.00
C342   C     0.51143   0.75200   0.43231   0.00000  Uiso   1.00
C343   C     0.45724   0.77016   0.41135   0.00000  Uiso   1.00
C344   C     0.55682   0.83689   0.06238   0.00000  Uiso   1.00
C345   C     0.63286   0.78007   0.05554   0.00000  Uiso   1.00
C346   C     0.38616   0.83495   0.41604   0.00000  Uiso   1.00
C347   C     0.35609   0.98620   0.24815   0.00000  Uiso   1.00
C348   C     0.36870   0.83472   0.35514   0.00000  Uiso   1.00
C349   C     0.64384   0.68044   0.25121   0.00000  Uiso   1.00
C350   C     0.65175   0.73508   0.25124   0.00000  Uiso   1.00
C351   C     0.63067   0.82933   0.14488   0.00000  Uiso   1.00
C352   C     0.60118   0.75912   0.00378   0.00000  Uiso   1.00
C353   C     0.60944   0.81799   0.08528   0.00000  Uiso   1.00
C354   C     0.35793   0.86578   0.44952   0.00000  Uiso   1.00
C355   C     0.38158   0.87550   0.00639   0.00000  Uiso   1.00
C356   C     0.43523   0.85756   0.02911   0.00000  Uiso   1.00
H357   H     0.60076   0.99639   0.25338   0.00000  Uiso   1.00
H358   H     0.48989   0.79173   0.20831   0.00000  Uiso   1.00
H359   H     0.54288   0.86904   0.08494   0.00000  Uiso   1.00
H360   H     0.45191   0.86674   0.07342   0.00000  Uiso   1.00
H361   H     0.43158   0.75172   0.37258   0.00000  Uiso   1.00
H362   H     0.39914   0.67020   0.24569   0.00000  Uiso   1.00
N363   N     0.47827   0.81890   0.23542   0.00000  Uiso   1.00
N364   N     0.52173   0.84777   0.26457   0.00000  Uiso   1.00
O365   O     0.63102   0.91296   0.25357   0.00000  Uiso   1.00
O366   O     0.39075   0.90371   0.24424   0.00000  Uiso   1.00
O367   O     0.64823   0.84024   0.33380   0.00000  Uiso   1.00
O368   O     0.40796   0.83099   0.32446   0.00000  Uiso   1.00
O369   O     0.60925   0.76296   0.25576   0.00000  Uiso   1.00
O370   O     0.36898   0.75371   0.24643   0.00000  Uiso   1.00
O371   O     0.59204   0.83567   0.17554   0.00000  Uiso   1.00
O372   O     0.35177   0.82642   0.16620   0.00000  Uiso   1.00
Zn373  Zn    0.60453   0.83951   0.25623   0.00000  Uiso   1.00
Zn374  Zn    0.39547   0.82716   0.24377   0.00000  Uiso   1.00
H375   H     0.34061   0.76494   0.07345   0.00000  Uiso   1.00
H376   H     0.51012   0.87486   0.29178   0.00000  Uiso   1.00
O377   O     0.52998   0.71024   0.40495   0.00000  Uiso   1.00
C378   C     0.55054   0.72823   0.35772   0.00000  Uiso   1.00
H379   H     0.58646   0.75974   0.37017   0.00000  Uiso   1.00
H380   H     0.51473   0.74175   0.32567   0.00000  Uiso   1.00
H381   H     0.56842   0.69524   0.33795   0.00000  Uiso   1.00
H382   H     0.61978   0.72970   0.48126   0.00000  Uiso   1.00
H383   H     0.65202   0.88373   0.43136   0.00000  Uiso   1.00
H384   H     0.35950   0.89876   0.03244   0.00000  Uiso   1.00
C385   C     0.68156   0.93158   0.24859   0.00000  Uiso   1.00
C386   C     0.79798   0.82716   0.49530   0.00000  Uiso   1.00
C387   C     0.76909   0.81045   0.44053   0.00000  Uiso   1.00
C388   C     0.85512   0.81294   0.01394   0.00000  Uiso   1.00
C389   C     0.87833   0.77450   0.48298   0.00000  Uiso   1.00
C390   C     0.84476   0.75200   0.43231   0.00000  Uiso   1.00
C391   C     0.79058   0.77016   0.41135   0.00000  Uiso   1.00
C392   C     0.89016   0.83689   0.06238   0.00000  Uiso   1.00
C393   C     0.96620   0.78007   0.05554   0.00000  Uiso   1.00
C394   C     0.71949   0.83495   0.41604   0.00000  Uiso   1.00
C395   C     0.68942   0.98620   0.24815   0.00000  Uiso   1.00
C396   C     0.70203   0.83472   0.35514   0.00000  Uiso   1.00
C397   C     0.97717   0.68044   0.25121   0.00000  Uiso   1.00
C398   C     0.98508   0.73508   0.25124   0.00000  Uiso   1.00
C399   C     0.96401   0.82933   0.14488   0.00000  Uiso   1.00
C400   C     0.93451   0.75912   0.00378   0.00000  Uiso   1.00
C401   C     0.94277   0.81799   0.08528   0.00000  Uiso   1.00
C402   C     0.69126   0.86578   0.44952   0.00000  Uiso   1.00
C403   C     0.71492   0.87550   0.00639   0.00000  Uiso   1.00
C404   C     0.76857   0.85756   0.02911   0.00000  Uiso   1.00
H405   H     0.93409   0.99639   0.25338   0.00000  Uiso   1.00
H406   H     0.82323   0.79173   0.20831   0.00000  Uiso   1.00
H407   H     0.87621   0.86904   0.08494   0.00000  Uiso   1.00
H408   H     0.78524   0.86674   0.07342   0.00000  Uiso   1.00
H409   H     0.76491   0.75172   0.37258   0.00000  Uiso   1.00
H410   H     0.73247   0.67020   0.24569   0.00000  Uiso   1.00
N411   N     0.81160   0.81890   0.23542   0.00000  Uiso   1.00
N412   N     0.85507   0.84777   0.26457   0.00000  Uiso   1.00
O413   O     0.96435   0.91296   0.25357   0.00000  Uiso   1.00
O414   O     0.72408   0.90371   0.24424   0.00000  Uiso   1.00
O415   O     0.98157   0.84024   0.33380   0.00000  Uiso   1.00
O416   O     0.74130   0.83099   0.32446   0.00000  Uiso   1.00
O417   O     0.94258   0.76296   0.25576   0.00000  Uiso   1.00
O418   O     0.70231   0.75371   0.24643   0.00000  Uiso   1.00
O419   O     0.92537   0.83567   0.17554   0.00000  Uiso   1.00
O420   O     0.68510   0.82642   0.16620   0.00000  Uiso   1.00
Zn421  Zn    0.93786   0.83951   0.25623   0.00000  Uiso   1.00
Zn422  Zn    0.72881   0.82716   0.24377   0.00000  Uiso   1.00
H423   H     0.67395   0.76494   0.07345   0.00000  Uiso   1.00
H424   H     0.84346   0.87486   0.29178   0.00000  Uiso   1.00
O425   O     0.86331   0.71024   0.40495   0.00000  Uiso   1.00
C426   C     0.88388   0.72823   0.35772   0.00000  Uiso   1.00
H427   H     0.91980   0.75974   0.37017   0.00000  Uiso   1.00
H428   H     0.84806   0.74175   0.32567   0.00000  Uiso   1.00
H429   H     0.90176   0.69524   0.33795   0.00000  Uiso   1.00
H430   H     0.95311   0.72970   0.48126   0.00000  Uiso   1.00
H431   H     0.98535   0.88373   0.43136   0.00000  Uiso   1.00
H432   H     0.69283   0.89876   0.03244   0.00000  Uiso   1.00
C433   C     0.01489   0.26491   0.74859   0.00000  Uiso   1.00
C434   C     0.13131   0.16050   0.99530   0.00000  Uiso   1.00
C435   C     0.10243   0.14378   0.94053   0.00000  Uiso   1.00
C436   C     0.18845   0.14627   0.51394   0.00000  Uiso   1.00
C437   C     0.21166   0.10783   0.98298   0.00000  Uiso   1.00
C438   C     0.17810   0.08533   0.93231   0.00000  Uiso   1.00
C439   C     0.12391   0.10350   0.91135   0.00000  Uiso   1.00
C440   C     0.22349   0.17022   0.56238   0.00000  Uiso   1.00
C441   C     0.29953   0.11340   0.55554   0.00000  Uiso   1.00
C442   C     0.05282   0.16828   0.91604   0.00000  Uiso   1.00
C443   C     0.02276   0.31953   0.74815   0.00000  Uiso   1.00
C444   C     0.03537   0.16806   0.85514   0.00000  Uiso   1.00
C445   C     0.31051   0.01378   0.75121   0.00000  Uiso   1.00
C446   C     0.31841   0.06841   0.75124   0.00000  Uiso   1.00
C447   C     0.29734   0.16267   0.64488   0.00000  Uiso   1.00
C448   C     0.26785   0.09245   0.50378   0.00000  Uiso   1.00
C449   C     0.27611   0.15132   0.58528   0.00000  Uiso   1.00
C450   C     0.02459   0.19912   0.94952   0.00000  Uiso   1.00
C451   C     0.04825   0.20883   0.50639   0.00000  Uiso   1.00
C452   C     0.10190   0.19089   0.52911   0.00000  Uiso   1.00
H453   H     0.26743   0.32972   0.75338   0.00000  Uiso   1.00
H454   H     0.15656   0.12506   0.70831   0.00000  Uiso   1.00
H455   H     0.20954   0.20237   0.58494   0.00000  Uiso   1.00
H456   H     0.11857   0.20007   0.57342   0.00000  Uiso   1.00
H457   H     0.09825   0.08505   0.87258   0.00000  Uiso   1.00
H458   H     0.06581   0.00353   0.74569   0.00000  Uiso   1.00
N459   N     0.14493   0.15223   0.73542   0.00000  Uiso   1.00
N460   N     0.18840   0.18110   0.76457   0.00000  Uiso   1.00
O461   O     0.29769   0.24629   0.75357   0.00000  Uiso   1.00
O462   O     0.05742   0.23704   0.74424   0.00000  Uiso   1.00
O463   O     0.31490   0.17358   0.83380   0.00000  Uiso   1.00
O464   O     0.07463   0.16433   0.82446   0.00000  Uiso   1.00
O465   O     0.27592   0.09629   0.75576   0.00000  Uiso   1.00
O466   O     0.03565   0.08704   0.74643   0.00000  Uiso   1.00
O467   O     0.25870   0.16901   0.67554   0.00000  Uiso   1.00
O468   O     0.01843   0.15976   0.66620   0.00000  Uiso   1.00
Zn469  Zn    0.27119   0.17284   0.75623   0.00000  Uiso   1.00
Zn470  Zn    0.06214   0.16049   0.74377   0.00000  Uiso   1.00
H471   H     0.00728   0.09827   0.57345   0.00000  Uiso   1.00
H472   H     0.17679   0.20820   0.79178   0.00000  Uiso   1.00
O473   O     0.19664   0.04357   0.90495   0.00000  Uiso   1.00
C474   C     0.21721   0.06156   0.85772   0.00000  Uiso   1.00
H475   H     0.25313   0.09308   0.87017   0.00000  Uiso   1.00
H476   H     0.18139   0.07508   0.82567   0.00000  Uiso   1.00
H477   H     0.23509   0.02858   0.83795   0.00000  Uiso   1.00
H478   H     0.28645   0.06303   0.98126   0.00000  Uiso   1.00
H479   H     0.31869   0.21706   0.93136   0.00000  Uiso   1.00
H480   H     0.02617   0.23209   0.53244   0.00000  Uiso   1.00
C481   C     0.34822   0.26491   0.74859   0.00000  Uiso   1.00
C482   C     0.46465   0.16050   0.99530   0.00000  Uiso   1.00
C483   C     0.43576   0.14378   0.94053   0.00000  Uiso   1.00
C484   C     0.52179   0.14627   0.51394   0.00000  Uiso   1.00
C485   C     0.54499   0.10783   0.98298   0.00000  Uiso   1.00
C486   C     0.51143   0.08533   0.93231   0.00000  Uiso   1.00
C487   C     0.45724   0.10350   0.91135   0.00000  Uiso   1.00
C488   C     0.55682   0.17022   0.56238   0.00000  Uiso   1.00
C489   C     0.63286   0.11340   0.55554   0.00000  Uiso   1.00
C490   C     0.38616   0.16828   0.91604   0.00000  Uiso   1.00
C491   C     0.35609   0.31953   0.74815   0.00000  Uiso   1.00
C492   C     0.36870   0.16806   0.85514   0.00000  Uiso   1.00
C493   C     0.64384   0.01378   0.75121   0.00000  Uiso   1.00
C494   C     0.65175   0.06841   0.75124   0.00000  Uiso   1.00
C495   C     0.63067   0.16267   0.64488   0.00000  Uiso   1.00
C496   C     0.60118   0.09245   0.50378   0.00000  Uiso   1.00
C497   C     0.60944   0.15132   0.58528   0.00000  Uiso   1.00
C498   C     0.35793   0.19912   0.94952   0.00000  Uiso   1.00
C499   C     0.38158   0.20883   0.50639   0.00000  Uiso   1.00
C500   C     0.43523   0.19089   0.52911   0.00000  Uiso   1.00
H501   H     0.60076   0.32972   0.75338   0.00000  Uiso   1.00
H502   H     0.48989   0.12506   0.70831   0.00000  Uiso   1.00
H503   H     0.54288   0.20237   0.58494   0.00000  Uiso   1.00
H504   H     0.45191   0.20007   0.57342   0.00000  Uiso   1.00
H505   H     0.43158   0.08505   0.87258   0.00000  Uiso   1.00
H506   H     0.39914   0.00353   0.74569   0.00000  Uiso   1.00
N507   N     0.47827   0.15223   0.73542   0.00000  Uiso   1.00
N508   N     0.52173   0.18110   0.76457   0.00000  Uiso   1.00
O509   O     0.63102   0.24629   0.75357   0.00000  Uiso   1.00
O510   O     0.39075   0.23704   0.74424   0.00000  Uiso   1.00
O511   O     0.64823   0.17358   0.83380   0.00000  Uiso   1.00
O512   O     0.40796   0.16433   0.82446   0.00000  Uiso   1.00
O513   O     0.60925   0.09629   0.75576   0.00000  Uiso   1.00
O514   O     0.36898   0.08704   0.74643   0.00000  Uiso   1.00
O515   O     0.59204   0.16901   0.67554   0.00000  Uiso   1.00
O516   O     0.35177   0.15976   0.66620   0.00000  Uiso   1.00
Zn517  Zn    0.60453   0.17284   0.75623   0.00000  Uiso   1.00
Zn518  Zn    0.39547   0.16049   0.74377   0.00000  Uiso   1.00
H519   H     0.34061   0.09827   0.57345   0.00000  Uiso   1.00
H520   H     0.51012   0.20820   0.79178   0.00000  Uiso   1.00
O521   O     0.52998   0.04357   0.90495   0.00000  Uiso   1.00
C522   C     0.55054   0.06156   0.85772   0.00000  Uiso   1.00
H523   H     0.58646   0.09308   0.87017   0.00000  Uiso   1.00
H524   H     0.51473   0.07508   0.82567   0.00000  Uiso   1.00
H525   H     0.56842   0.02858   0.83795   0.00000  Uiso   1.00
H526   H     0.61978   0.06303   0.98126   0.00000  Uiso   1.00
H527   H     0.65202   0.21706   0.93136   0.00000  Uiso   1.00
H528   H     0.35950   0.23209   0.53244   0.00000  Uiso   1.00
C529   C     0.68156   0.26491   0.74859   0.00000  Uiso   1.00
C530   C     0.79798   0.16050   0.99530   0.00000  Uiso   1.00
C531   C     0.76909   0.14378   0.94053   0.00000  Uiso   1.00
C532   C     0.85512   0.14627   0.51394   0.00000  Uiso   1.00
C533   C     0.87833   0.10783   0.98298   0.00000  Uiso   1.00
C534   C     0.84476   0.08533   0.93231   0.00000  Uiso   1.00
C535   C     0.79058   0.10350   0.91135   0.00000  Uiso   1.00
C536   C     0.89016   0.17022   0.56238   0.00000  Uiso   1.00
C537   C     0.96620   0.11340   0.55554   0.00000  Uiso   1.00
C538   C     0.71949   0.16828   0.91604   0.00000  Uiso   1.00
C539   C     0.68942   0.31953   0.74815   0.00000  Uiso   1.00
C540   C     0.70203   0.16806   0.85514   0.00000  Uiso   1.00
C541   C     0.97717   0.01378   0.75121   0.00000  Uiso   1.00
C542   C     0.98508   0.06841   0.75124   0.00000  Uiso   1.00
C543   C     0.96401   0.16267   0.64488   0.00000  Uiso   1.00
C544   C     0.93451   0.09245   0.50378   0.00000  Uiso   1.00
C545   C     0.94277   0.15132   0.58528   0.00000  Uiso   1.00
C546   C     0.69126   0.19912   0.94952   0.00000  Uiso   1.00
C547   C     0.71492   0.20883   0.50639   0.00000  Uiso   1.00
C548   C     0.76857   0.19089   0.52911   0.00000  Uiso   1.00
H549   H     0.93409   0.32972   0.75338   0.00000  Uiso   1.00
H550   H     0.82323   0.12506   0.70831   0.00000  Uiso   1.00
H551   H     0.87621   0.20237   0.58494   0.00000  Uiso   1.00
H552   H     0.78524   0.20007   0.57342   0.00000  Uiso   1.00
H553   H     0.76491   0.08505   0.87258   0.00000  Uiso   1.00
H554   H     0.73247   0.00353   0.74569   0.00000  Uiso   1.00
N555   N     0.81160   0.15223   0.73542   0.00000  Uiso   1.00
N556   N     0.85507   0.18110   0.76457   0.00000  Uiso   1.00
O557   O     0.96435   0.24629   0.75357   0.00000  Uiso   1.00
O558   O     0.72408   0.23704   0.74424   0.00000  Uiso   1.00
O559   O     0.98157   0.17358   0.83380   0.00000  Uiso   1.00
O560   O     0.74130   0.16433   0.82446   0.00000  Uiso   1.00
O561   O     0.94258   0.09629   0.75576   0.00000  Uiso   1.00
O562   O     0.70231   0.08704   0.74643   0.00000  Uiso   1.00
O563   O     0.92537   0.16901   0.67554   0.00000  Uiso   1.00
O564   O     0.68510   0.15976   0.66620   0.00000  Uiso   1.00
Zn565  Zn    0.93786   0.17284   0.75623   0.00000  Uiso   1.00
Zn566  Zn    0.72881   0.16049   0.74377   0.00000  Uiso   1.00
H567   H     0.67395   0.09827   0.57345   0.00000  Uiso   1.00
H568   H     0.84346   0.20820   0.79178   0.00000  Uiso   1.00
O569   O     0.86331   0.04357   0.90495   0.00000  Uiso   1.00
C570   C     0.88388   0.06156   0.85772   0.00000  Uiso   1.00
H571   H     0.91980   0.09308   0.87017   0.00000  Uiso   1.00
H572   H     0.84806   0.07508   0.82567   0.00000  Uiso   1.00
H573   H     0.90176   0.02858   0.83795   0.00000  Uiso   1.00
H574   H     0.95311   0.06303   0.98126   0.00000  Uiso   1.00
H575   H     0.98535   0.21706   0.93136   0.00000  Uiso   1.00
H576   H     0.69283   0.23209   0.53244   0.00000  Uiso   1.00
C577   C     0.01489   0.59825   0.74859   0.00000  Uiso   1.00
C578   C     0.13131   0.49383   0.99530   0.00000  Uiso   1.00
C579   C     0.10243   0.47711   0.94053   0.00000  Uiso   1.00
C580   C     0.18845   0.47961   0.51394   0.00000  Uiso   1.00
C581   C     0.21166   0.44116   0.98298   0.00000  Uiso   1.00
C582   C     0.17810   0.41866   0.93231   0.00000  Uiso   1.00
C583   C     0.12391   0.43683   0.91135   0.00000  Uiso   1.00
C584   C     0.22349   0.50356   0.56238   0.00000  Uiso   1.00
C585   C     0.29953   0.44674   0.55554   0.00000  Uiso   1.00
C586   C     0.05282   0.50162   0.91604   0.00000  Uiso   1.00
C587   C     0.02276   0.65287   0.74815   0.00000  Uiso   1.00
C588   C     0.03537   0.50139   0.85514   0.00000  Uiso   1.00
C589   C     0.31051   0.34711   0.75121   0.00000  Uiso   1.00
C590   C     0.31841   0.40175   0.75124   0.00000  Uiso   1.00
C591   C     0.29734   0.49600   0.64488   0.00000  Uiso   1.00
C592   C     0.26785   0.42579   0.50378   0.00000  Uiso   1.00
C593   C     0.27611   0.48466   0.58528   0.00000  Uiso   1.00
C594   C     0.02459   0.53245   0.94952   0.00000  Uiso   1.00
C595   C     0.04825   0.54217   0.50639   0.00000  Uiso   1.00
C596   C     0.10190   0.52422   0.52911   0.00000  Uiso   1.00
H597   H     0.26743   0.66305   0.75338   0.00000  Uiso   1.00
H598   H     0.15656   0.45840   0.70831   0.00000  Uiso   1.00
H599   H     0.20954   0.53571   0.58494   0.00000  Uiso   1.00
H600   H     0.11857   0.53340   0.57342   0.00000  Uiso   1.00
H601   H     0.09825   0.41839   0.87258   0.00000  Uiso   1.00
H602   H     0.06581   0.33687   0.74569   0.00000  Uiso   1.00
N603   N     0.14493   0.48556   0.73542   0.00000  Uiso   1.00
N604   N     0.18840   0.51444   0.76457   0.00000  Uiso   1.00
O605   O     0.29769   0.57963   0.75357   0.00000  Uiso   1.00
O606   O     0.05742   0.57038   0.74424   0.00000  Uiso   1.00
O607   O     0.31490   0.50691   0.83380   0.00000  Uiso   1.00
O608   O     0.07463   0.49766   0.82446   0.00000  Uiso   1.00
O609   O     0.27592   0.42962   0.75576   0.00000  Uiso   1.00
O610   O     0.03565   0.42037   0.74643   0.00000  Uiso   1.00
O611   O     0.25870   0.50234   0.67554   0.00000  Uiso   1.00
O612   O     0.01843   0.49309   0.66620   0.00000  Uiso   1.00
Zn613  Zn    0.27119   0.50618   0.75623   0.00000  Uiso   1.00
Zn614  Zn    0.06214   0.49382   0.74377   0.00000  Uiso   1.00
H615   H     0.00728   0.43161   0.57345   0.00000  Uiso   1.00
H616   H     0.17679   0.54153   0.79178   0.00000  Uiso   1.00
O617   O     0.19664   0.37691   0.90495   0.00000  Uiso   1.00
C618   C     0.21721   0.39490   0.85772   0.00000  Uiso   1.00
H619   H     0.25313   0.42641   0.87017   0.00000  Uiso   1.00
H620   H     0.18139   0.40842   0.82567   0.00000  Uiso   1.00
H621   H     0.23509   0.36191   0.83795   0.00000  Uiso   1.00
H622   H     0.28645   0.39636   0.98126   0.00000  Uiso   1.00
H623   H     0.31869   0.55040   0.93136   0.00000  Uiso   1.00
H624   H     0.02617   0.56542   0.53244   0.00000  Uiso   1.00
C625   C     0.34822   0.59825   0.74859   0.00000  Uiso   1.00
C626   C     0.46465   0.49383   0.99530   0.00000  Uiso   1.00
C627   C     0.43576   0.47711   0.94053   0.00000  Uiso   1.00
C628   C     0.52179   0.47961   0.51394   0.00000  Uiso   1.00
C629   C     0.54499   0.44116   0.98298   0.00000  Uiso   1.00
C630   C     0.51143   0.41866   0.93231   0.00000  Uiso   1.00
C631   C     0.45724   0.43683   0.91135   0.00000  Uiso   1.00
C632   C     0.55682   0.50356   0.56238   0.00000  Uiso   1.00
C633   C     0.63286   0.44674   0.55554   0.00000  Uiso   1.00
C634   C     0.38616   0.50162   0.91604   0.00000  Uiso   1.00
C635   C     0.35609   0.65287   0.74815   0.00000  Uiso   1.00
C636   C     0.36870   0.50139   0.85514   0.00000  Uiso   1.00
C637   C     0.64384   0.34711   0.75121   0.00000  Uiso   1.00
C638   C     0.65175   0.40175   0.75124   0.00000  Uiso   1.00
C639   C     0.63067   0.49600   0.64488   0.00000  Uiso   1.00
C640   C     0.60118   0.42579   0.50378   0.00000  Uiso   1.00
C641   C     0.60944   0.48466   0.58528   0.00000  Uiso   1.00
C642   C     0.35793   0.53245   0.94952   0.00000  Uiso   1.00
C643   C     0.38158   0.54217   0.50639   0.00000  Uiso   1.00
C644   C     0.43523   0.52422   0.52911   0.00000  Uiso   1.00
H645   H     0.60076   0.66305   0.75338   0.00000  Uiso   1.00
H646   H     0.48989   0.45840   0.70831   0.00000  Uiso   1.00
H647   H     0.54288   0.53571   0.58494   0.00000  Uiso   1.00
H648   H     0.45191   0.53340   0.57342   0.00000  Uiso   1.00
H649   H     0.43158   0.41839   0.87258   0.00000  Uiso   1.00
H650   H     0.39914   0.33687   0.74569   0.00000  Uiso   1.00
N651   N     0.47827   0.48556   0.73542   0.00000  Uiso   1.00
N652   N     0.52173   0.51444   0.76457   0.00000  Uiso   1.00
O653   O     0.63102   0.57963   0.75357   0.00000  Uiso   1.00
O654   O     0.39075   0.57038   0.74424   0.00000  Uiso   1.00
O655   O     0.64823   0.50691   0.83380   0.00000  Uiso   1.00
O656   O     0.40796   0.49766   0.82446   0.00000  Uiso   1.00
O657   O     0.60925   0.42962   0.75576   0.00000  Uiso   1.00
O658   O     0.36898   0.42037   0.74643   0.00000  Uiso   1.00
O659   O     0.59204   0.50234   0.67554   0.00000  Uiso   1.00
O660   O     0.35177   0.49309   0.66620   0.00000  Uiso   1.00
Zn661  Zn    0.60453   0.50618   0.75623   0.00000  Uiso   1.00
Zn662  Zn    0.39547   0.49382   0.74377   0.00000  Uiso   1.00
H663   H     0.34061   0.43161   0.57345   0.00000  Uiso   1.00
H664   H     0.51012   0.54153   0.79178   0.00000  Uiso   1.00
O665   O     0.52998   0.37691   0.90495   0.00000  Uiso   1.00
C666   C     0.55054   0.39490   0.85772   0.00000  Uiso   1.00
H667   H     0.58646   0.42641   0.87017   0.00000  Uiso   1.00
H668   H     0.51473   0.40842   0.82567   0.00000  Uiso   1.00
H669   H     0.56842   0.36191   0.83795   0.00000  Uiso   1.00
H670   H     0.61978   0.39636   0.98126   0.00000  Uiso   1.00
H671   H     0.65202   0.55040   0.93136   0.00000  Uiso   1.00
H672   H     0.35950   0.56542   0.53244   0.00000  Uiso   1.00
C673   C     0.68156   0.59825   0.74859   0.00000  Uiso   1.00
C674   C     0.79798   0.49383   0.99530   0.00000  Uiso   1.00
C675   C     0.76909   0.47711   0.94053   0.00000  Uiso   1.00
C676   C     0.85512   0.47961   0.51394   0.00000  Uiso   1.00
C677   C     0.87833   0.44116   0.98298   0.00000  Uiso   1.00
C678   C     0.84476   0.41866   0.93231   0.00000  Uiso   1.00
C679   C     0.79058   0.43683   0.91135   0.00000  Uiso   1.00
C680   C     0.89016   0.50356   0.56238   0.00000  Uiso   1.00
C681   C     0.96620   0.44674   0.55554   0.00000  Uiso   1.00
C682   C     0.71949   0.50162   0.91604   0.00000  Uiso   1.00
C683   C     0.68942   0.65287   0.74815   0.00000  Uiso   1.00
C684   C     0.70203   0.50139   0.85514   0.00000  Uiso   1.00
C685   C     0.97717   0.34711   0.75121   0.00000  Uiso   1.00
C686   C     0.98508   0.40175   0.75124   0.00000  Uiso   1.00
C687   C     0.96401   0.49600   0.64488   0.00000  Uiso   1.00
C688   C     0.93451   0.42579   0.50378   0.00000  Uiso   1.00
C689   C     0.94277   0.48466   0.58528   0.00000  Uiso   1.00
C690   C     0.69126   0.53245   0.94952   0.00000  Uiso   1.00
C691   C     0.71492   0.54217   0.50639   0.00000  Uiso   1.00
C692   C     0.76857   0.52422   0.52911   0.00000  Uiso   1.00
H693   H     0.93409   0.66305   0.75338   0.00000  Uiso   1.00
H694   H     0.82323   0.45840   0.70831   0.00000  Uiso   1.00
H695   H     0.87621   0.53571   0.58494   0.00000  Uiso   1.00
H696   H     0.78524   0.53340   0.57342   0.00000  Uiso   1.00
H697   H     0.76491   0.41839   0.87258   0.00000  Uiso   1.00
H698   H     0.73247   0.33687   0.74569   0.00000  Uiso   1.00
N699   N     0.81160   0.48556   0.73542   0.00000  Uiso   1.00
N700   N     0.85507   0.51444   0.76457   0.00000  Uiso   1.00
O701   O     0.96435   0.57963   0.75357   0.00000  Uiso   1.00
O702   O     0.72408   0.57038   0.74424   0.00000  Uiso   1.00
O703   O     0.98157   0.50691   0.83380   0.00000  Uiso   1.00
O704   O     0.74130   0.49766   0.82446   0.00000  Uiso   1.00
O705   O     0.94258   0.42962   0.75576   0.00000  Uiso   1.00
O706   O     0.70231   0.42037   0.74643   0.00000  Uiso   1.00
O707   O     0.92537   0.50234   0.67554   0.00000  Uiso   1.00
O708   O     0.68510   0.49309   0.66620   0.00000  Uiso   1.00
Zn709  Zn    0.93786   0.50618   0.75623   0.00000  Uiso   1.00
Zn710  Zn    0.72881   0.49382   0.74377   0.00000  Uiso   1.00
H711   H     0.67395   0.43161   0.57345   0.00000  Uiso   1.00
H712   H     0.84346   0.54153   0.79178   0.00000  Uiso   1.00
O713   O     0.86331   0.37691   0.90495   0.00000  Uiso   1.00
C714   C     0.88388   0.39490   0.85772   0.00000  Uiso   1.00
H715   H     0.91980   0.42641   0.87017   0.00000  Uiso   1.00
H716   H     0.84806   0.40842   0.82567   0.00000  Uiso   1.00
H717   H     0.90176   0.36191   0.83795   0.00000  Uiso   1.00
H718   H     0.95311   0.39636   0.98126   0.00000  Uiso   1.00
H719   H     0.98535   0.55040   0.93136   0.00000  Uiso   1.00
H720   H     0.69283   0.56542   0.53244   0.00000  Uiso   1.00
C721   C     0.01489   0.93158   0.74859   0.00000  Uiso   1.00
C722   C     0.13131   0.82716   0.99530   0.00000  Uiso   1.00
C723   C     0.10243   0.81045   0.94053   0.00000  Uiso   1.00
C724   C     0.18845   0.81294   0.51394   0.00000  Uiso   1.00
C725   C     0.21166   0.77450   0.98298   0.00000  Uiso   1.00
C726   C     0.17810   0.75200   0.93231   0.00000  Uiso   1.00
C727   C     0.12391   0.77016   0.91135   0.00000  Uiso   1.00
C728   C     0.22349   0.83689   0.56238   0.00000  Uiso   1.00
C729   C     0.29953   0.78007   0.55554   0.00000  Uiso   1.00
C730   C     0.05282   0.83495   0.91604   0.00000  Uiso   1.00
C731   C     0.02276   0.98620   0.74815   0.00000  Uiso   1.00
C732   C     0.03537   0.83472   0.85514   0.00000  Uiso   1.00
C733   C     0.31051   0.68044   0.75121   0.00000  Uiso   1.00
C734   C     0.31841   0.73508   0.75124   0.00000  Uiso   1.00
C735   C     0.29734   0.82933   0.64488   0.00000  Uiso   1.00
C736   C     0.26785   0.75912   0.50378   0.00000  Uiso   1.00
C737   C     0.27611   0.81799   0.58528   0.00000  Uiso   1.00
C738   C     0.02459   0.86578   0.94952   0.00000  Uiso   1.00
C739   C     0.04825   0.87550   0.50639   0.00000  Uiso   1.00
C740   C     0.10190   0.85756   0.52911   0.00000  Uiso   1.00
H741   H     0.26743   0.99639   0.75338   0.00000  Uiso   1.00
H742   H     0.15656   0.79173   0.70831   0.00000  Uiso   1.00
H743   H     0.20954   0.86904   0.58494   0.00000  Uiso   1.00
H744   H     0.11857   0.86674   0.57342   0.00000  Uiso   1.00
H745   H     0.09825   0.75172   0.87258   0.00000  Uiso   1.00
H746   H     0.06581   0.67020   0.74569   0.00000  Uiso   1.00
N747   N     0.14493   0.81890   0.73542   0.00000  Uiso   1.00
N748   N     0.18840   0.84777   0.76457   0.00000  Uiso   1.00
O749   O     0.29769   0.91296   0.75357   0.00000  Uiso   1.00
O750   O     0.05742   0.90371   0.74424   0.00000  Uiso   1.00
O751   O     0.31490   0.84024   0.83380   0.00000  Uiso   1.00
O752   O     0.07463   0.83099   0.82446   0.00000  Uiso   1.00
O753   O     0.27592   0.76296   0.75576   0.00000  Uiso   1.00
O754   O     0.03565   0.75371   0.74643   0.00000  Uiso   1.00
O755   O     0.25870   0.83567   0.67554   0.00000  Uiso   1.00
O756   O     0.01843   0.82642   0.66620   0.00000  Uiso   1.00
Zn757  Zn    0.27119   0.83951   0.75623   0.00000  Uiso   1.00
Zn758  Zn    0.06214   0.82716   0.74377   0.00000  Uiso   1.00
H759   H     0.00728   0.76494   0.57345   0.00000  Uiso   1.00
H760   H     0.17679   0.87486   0.79178   0.00000  Uiso   1.00
O761   O     0.19664   0.71024   0.90495   0.00000  Uiso   1.00
C762   C     0.21721   0.72823   0.85772   0.00000  Uiso   1.00
H763   H     0.25313   0.75974   0.87017   0.00000  Uiso   1.00
H764   H     0.18139   0.74175   0.82567   0.00000  Uiso   1.00
H765   H     0.23509   0.69524   0.83795   0.00000  Uiso   1.00
H766   H     0.28645   0.72970   0.98126   0.00000  Uiso   1.00
H767   H     0.31869   0.88373   0.93136   0.00000  Uiso   1.00
H768   H     0.02617   0.89876   0.53244   0.00000  Uiso   1.00
C769   C     0.34822   0.93158   0.74859   0.00000  Uiso   1.00
C770   C     0.46465   0.82716   0.99530   0.00000  Uiso   1.00
C771   C     0.43576   0.81045   0.94053   0.00000  Uiso   1.00
C772   C     0.52179   0.81294   0.51394   0.00000  Uiso   1.00
C773   C     0.54499   0.77450   0.98298   0.00000  Uiso   1.00
C774   C     0.51143   0.75200   0.93231   0.00000  Uiso   1.00
C775   C     0.45724   0.77016   0.91135   0.00000  Uiso   1.00
C776   C     0.55682   0.83689   0.56238   0.00000  Uiso   1.00
C777   C     0.63286   0.78007   0.55554   0.00000  Uiso   1.00
C778   C     0.38616   0.83495   0.91604   0.00000  Uiso   1.00
C779   C     0.35609   0.98620   0.74815   0.00000  Uiso   1.00
C780   C     0.36870   0.83472   0.85514   0.00000  Uiso   1.00
C781   C     0.64384   0.68044   0.75121   0.00000  Uiso   1.00
C782   C     0.65175   0.73508   0.75124   0.00000  Uiso   1.00
C783   C     0.63067   0.82933   0.64488   0.00000  Uiso   1.00
C784   C     0.60118   0.75912   0.50378   0.00000  Uiso   1.00
C785   C     0.60944   0.81799   0.58528   0.00000  Uiso   1.00
C786   C     0.35793   0.86578   0.94952   0.00000  Uiso   1.00
C787   C     0.38158   0.87550   0.50639   0.00000  Uiso   1.00
C788   C     0.43523   0.85756   0.52911   0.00000  Uiso   1.00
H789   H     0.60076   0.99639   0.75338   0.00000  Uiso   1.00
H790   H     0.48989   0.79173   0.70831   0.00000  Uiso   1.00
H791   H     0.54288   0.86904   0.58494   0.00000  Uiso   1.00
H792   H     0.45191   0.86674   0.57342   0.00000  Uiso   1.00
H793   H     0.43158   0.75172   0.87258   0.00000  Uiso   1.00
H794   H     0.39914   0.67020   0.74569   0.00000  Uiso   1.00
N795   N     0.47827   0.81890   0.73542   0.00000  Uiso   1.00
N796   N     0.52173   0.84777   0.76457   0.00000  Uiso   1.00
O797   O     0.63102   0.91296   0.75357   0.00000  Uiso   1.00
O798   O     0.39075   0.90371   0.74424   0.00000  Uiso   1.00
O799   O     0.64823   0.84024   0.83380   0.00000  Uiso   1.00
O800   O     0.40796   0.83099   0.82446   0.00000  Uiso   1.00
O801   O     0.60925   0.76296   0.75576   0.00000  Uiso   1.00
O802   O     0.36898   0.75371   0.74643   0.00000  Uiso   1.00
O803   O     0.59204   0.83567   0.67554   0.00000  Uiso   1.00
O804   O     0.35177   0.82642   0.66620   0.00000  Uiso   1.00
Zn805  Zn    0.60453   0.83951   0.75623   0.00000  Uiso   1.00
Zn806  Zn    0.39547   0.82716   0.74377   0.00000  Uiso   1.00
H807   H     0.34061   0.76494   0.57345   0.00000  Uiso   1.00
H808   H     0.51012   0.87486   0.79178   0.00000  Uiso   1.00
O809   O     0.52998   0.71024   0.90495   0.00000  Uiso   1.00
C810   C     0.55054   0.72823   0.85772   0.00000  Uiso   1.00
H811   H     0.58646   0.75974   0.87017   0.00000  Uiso   1.00
H812   H     0.51473   0.74175   0.82567   0.00000  Uiso   1.00
H813   H     0.56842   0.69524   0.83795   0.00000  Uiso   1.00
H814   H     0.61978   0.72970   0.98126   0.00000  Uiso   1.00
H815   H     0.65202   0.88373   0.93136   0.00000  Uiso   1.00
H816   H     0.35950   0.89876   0.53244   0.00000  Uiso   1.00
C817   C     0.68156   0.93158   0.74859   0.00000  Uiso   1.00
C818   C     0.79798   0.82716   0.99530   0.00000  Uiso   1.00
C819   C     0.76909   0.81045   0.94053   0.00000  Uiso   1.00
C820   C     0.85512   0.81294   0.51394   0.00000  Uiso   1.00
C821   C     0.87833   0.77450   0.98298   0.00000  Uiso   1.00
C822   C     0.84476   0.75200   0.93231   0.00000  Uiso   1.00
C823   C     0.79058   0.77016   0.91135   0.00000  Uiso   1.00
C824   C     0.89016   0.83689   0.56238   0.00000  Uiso   1.00
C825   C     0.96620   0.78007   0.55554   0.00000  Uiso   1.00
C826   C     0.71949   0.83495   0.91604   0.00000  Uiso   1.00
C827   C     0.68942   0.98620   0.74815   0.00000  Uiso   1.00
C828   C     0.70203   0.83472   0.85514   0.00000  Uiso   1.00
C829   C     0.97717   0.68044   0.75121   0.00000  Uiso   1.00
C830   C     0.98508   0.73508   0.75124   0.00000  Uiso   1.00
C831   C     0.96401   0.82933   0.64488   0.00000  Uiso   1.00
C832   C     0.93451   0.75912   0.50378   0.00000  Uiso   1.00
C833   C     0.94277   0.81799   0.58528   0.00000  Uiso   1.00
C834   C     0.69126   0.86578   0.94952   0.00000  Uiso   1.00
C835   C     0.71492   0.87550   0.50639   0.00000  Uiso   1.00
C836   C     0.76857   0.85756   0.52911   0.00000  Uiso   1.00
H837   H     0.93409   0.99639   0.75338   0.00000  Uiso   1.00
H838   H     0.82323   0.79173   0.70831   0.00000  Uiso   1.00
H839   H     0.87621   0.86904   0.58494   0.00000  Uiso   1.00
H840   H     0.78524   0.86674   0.57342   0.00000  Uiso   1.00
H841   H     0.76491   0.75172   0.87258   0.00000  Uiso   1.00
H842   H     0.73247   0.67020   0.74569   0.00000  Uiso   1.00
N843   N     0.81160   0.81890   0.73542   0.00000  Uiso   1.00
N844   N     0.85507   0.84777   0.76457   0.00000  Uiso   1.00
O845   O     0.96435   0.91296   0.75357   0.00000  Uiso   1.00
O846   O     0.72408   0.90371   0.74424   0.00000  Uiso   1.00
O847   O     0.98157   0.84024   0.83380   0.00000  Uiso   1.00
O848   O     0.74130   0.83099   0.82446   0.00000  Uiso   1.00
O849   O     0.94258   0.76296   0.75576   0.00000  Uiso   1.00
O850   O     0.70231   0.75371   0.74643   0.00000  Uiso   1.00
O851   O     0.92537   0.83567   0.67554   0.00000  Uiso   1.00
O852   O     0.68510   0.82642   0.66620   0.00000  Uiso   1.00
Zn853  Zn    0.93786   0.83951   0.75623   0.00000  Uiso   1.00
Zn854  Zn    0.72881   0.82716   0.74377   0.00000  Uiso   1.00
H855   H     0.67395   0.76494   0.57345   0.00000  Uiso   1.00
H856   H     0.84346   0.87486   0.79178   0.00000  Uiso   1.00
O857   O     0.86331   0.71024   0.90495   0.00000  Uiso   1.00
C858   C     0.88388   0.72823   0.85772   0.00000  Uiso   1.00
H859   H     0.91980   0.75974   0.87017   0.00000  Uiso   1.00
H860   H     0.84806   0.74175   0.82567   0.00000  Uiso   1.00
H861   H     0.90176   0.69524   0.83795   0.00000  Uiso   1.00
H862   H     0.95311   0.72970   0.98126   0.00000  Uiso   1.00
H863   H     0.98535   0.88373   0.93136   0.00000  Uiso   1.00
H864   H     0.69283   0.89876   0.53244   0.00000  Uiso   1.00
loop_
_geom_bond_atom_site_label_1
_geom_bond_atom_site_label_2
_geom_bond_distance
_geom_bond_site_symmetry_2
_ccdc_geom_bond_type
C1     C11     1.403   .     S
C1     O30     1.290   .     A
C1     O125    1.276   1_455 S
C2     C3      1.402   .     A
C2     C436    1.409   .     S
C2     C452    1.420   .     S
C3     C10     1.403   .     A
C3     C7      1.411   .     A
C4     C8      1.388   .     A
C4     C434    1.409   1_554 S
C4     C437    1.422   1_554 S
C5     C6      1.401   .     A
C5     C436    1.422   .     S
C5     C448    1.407   .     S
C6     C7      1.395   .     A
C6     O41     1.383   .     S
C7     H25     1.083   .     S
C8     C17     1.382   .     A
C8     H23     1.080   .     S
C9     C17     1.399   .     A
C9     C16     1.393   .     A
C9     H87     1.083   .     S
C10    C12     1.452   .     S
C10    C18     1.403   .     A
C11    C253    1.339   1_455 S
C11    H170    1.088   .     S
C12    O32     1.301   .     A
C12    O127    1.288   1_455 S
C13    C14     1.403   .     S
C13    C347    1.339   1_545 S
C13    H309    1.087   1_545 S
C14    O33     1.290   .     A
C14    O82     1.276   .     S
C15    O35     1.297   .     A
C15    C17     1.444   .     S
C15    O84     1.290   .     S
C16    C437    1.407   1_554 S
C16    H478    1.083   1_554 S
C18    C451    1.387   .     S
C18    H143    1.083   1_455 S
C19    H48     1.083   .     S
C19    C20     1.391   .     A
C19    C450    1.387   1_554 S
C20    H24     1.079   .     S
C20    C434    1.420   1_554 S
H21    C157    1.087   .     S
H22    N27     1.029   .     S
H26    C299    1.088   1_545 S
N27    Zn38    2.020   .     S
N27    N28     1.287   .     D
N28    Zn37    2.020   .     S
N28    H40     1.029   .     S
O29    Zn37    1.951   .     S
O29    C49     1.276   .     S
O30    Zn38    1.979   .     S
O31    Zn37    1.955   .     S
O31    C60     1.288   .     S
O32    Zn38    1.918   .     S
O33    Zn37    1.979   .     S
O34    Zn38    1.951   .     S
O34    C110    1.276   1_455 S
O35    Zn37    1.918   .     S
O36    Zn38    1.955   .     S
O36    C111    1.290   1_455 S
H39    C105    1.083   1_455 S
O41    C42     1.408   .     S
C42    H44     1.112   .     S
C42    H43     1.113   .     S
C42    H45     1.108   .     S
H46    C448    1.083   .     S
H47    C66     1.083   .     S
C49    C59     1.403   .     S
C49    O78     1.290   .     A
C50    C51     1.402   .     A
C50    C484    1.409   .     S
C50    C500    1.420   .     S
C51    C58     1.403   .     A
C51    C55     1.411   .     A
C52    C56     1.388   .     A
C52    C482    1.409   1_554 S
C52    C485    1.422   1_554 S
C53    C54     1.401   .     A
C53    C484    1.422   .     S
C53    C496    1.407   .     S
C54    C55     1.395   .     A
C54    O89     1.383   .     S
C55    H73     1.083   .     S
C56    C65     1.382   .     A
C56    H71     1.080   .     S
C57    C65     1.399   .     A
C57    C64     1.393   .     A
C57    H135    1.083   .     S
C58    C60     1.452   .     S
C58    C66     1.403   .     A
C59    C157    1.339   .     S
C59    H218    1.088   .     S
C60    O80     1.301   .     A
C61    C62     1.403   .     S
C61    C395    1.339   1_545 S
C61    H357    1.087   1_545 S
C62    O81     1.290   .     A
C62    O130    1.276   .     S
C63    O83     1.297   .     A
C63    C65     1.444   .     S
C63    O132    1.290   .     S
C64    C485    1.407   1_554 S
C64    H526    1.083   1_554 S
C66    C499    1.387   .     S
C67    H96     1.083   .     S
C67    C68     1.391   .     A
C67    C498    1.387   1_554 S
C68    H72     1.079   .     S
C68    C482    1.420   1_554 S
H69    C205    1.087   .     S
H70    N75     1.029   .     S
H74    C347    1.088   1_545 S
N75    Zn86    2.020   .     S
N75    N76     1.287   .     D
N76    Zn85    2.020   .     S
N76    H88     1.029   .     S
O77    Zn85    1.951   .     S
O77    C97     1.276   .     S
O78    Zn86    1.979   .     S
O79    Zn85    1.955   .     S
O79    C108    1.288   .     S
O80    Zn86    1.918   .     S
O81    Zn85    1.979   .     S
O82    Zn86    1.951   .     S
O83    Zn85    1.918   .     S
O84    Zn86    1.955   .     S
O89    C90     1.408   .     S
C90    H92     1.112   .     S
C90    H91     1.113   .     S
C90    H93     1.108   .     S
H94    C496    1.083   .     S
H95    C114    1.083   .     S
C97    C107    1.403   .     S
C97    O126    1.290   .     A
C98    C99     1.402   .     A
C98    C532    1.409   .     S
C98    C548    1.420   .     S
C99    C106    1.403   .     A
C99    C103    1.411   .     A
C100   C104    1.388   .     A
C100   C530    1.409   1_554 S
C100   C533    1.422   1_554 S
C101   C102    1.401   .     A
C101   C532    1.422   .     S
C101   C544    1.407   .     S
C102   C103    1.395   .     A
C102   O137    1.383   .     S
C103   H121    1.083   .     S
C104   C113    1.382   .     A
C104   H119    1.080   .     S
C105   C113    1.399   .     A
C105   C112    1.393   .     A
C105   H39     1.083   1_655 S
C106   C108    1.452   .     S
C106   C114    1.403   .     A
C107   C205    1.339   .     S
C107   H266    1.088   .     S
C108   O128    1.301   .     A
C109   C110    1.403   .     S
C109   C299    1.339   1_645 S
C109   H405    1.087   1_545 S
C110   O129    1.290   .     A
C110   O34     1.276   1_655 S
C111   O131    1.297   .     A
C111   C113    1.444   .     S
C111   O36     1.290   1_655 S
C112   C533    1.407   1_554 S
C112   H574    1.083   1_554 S
C114   C547    1.387   .     S
C115   H144    1.083   .     S
C115   C116    1.391   .     A
C115   C546    1.387   1_554 S
C116   H120    1.079   .     S
C116   C530    1.420   1_554 S
H117   C253    1.087   .     S
H118   N123    1.029   .     S
H122   C395    1.088   1_545 S
N123   Zn134   2.020   .     S
N123   N124    1.287   .     D
N124   Zn133   2.020   .     S
N124   H136    1.029   .     S
O125   Zn133   1.951   .     S
O125   C1      1.276   1_655 S
O126   Zn134   1.979   .     S
O127   Zn133   1.955   .     S
O127   C12     1.288   1_655 S
O128   Zn134   1.918   .     S
O129   Zn133   1.979   .     S
O130   Zn134   1.951   .     S
O131   Zn133   1.918   .     S
O132   Zn134   1.955   .     S
O137   C138    1.408   .     S
C138   H140    1.112   .     S
C138   H139    1.113   .     S
C138   H141    1.108   .     S
H142   C544    1.083   .     S
H143   C18     1.083   1_655 S
C145   C155    1.403   .     S
C145   O174    1.290   .     A
C145   O269    1.276   1_455 S
C146   C147    1.402   .     A
C146   C580    1.409   .     S
C146   C596    1.420   .     S
C147   C154    1.403   .     A
C147   C151    1.411   .     A
C148   C152    1.388   .     A
C148   C578    1.409   1_554 S
C148   C581    1.422   1_554 S
C149   C150    1.401   .     A
C149   C580    1.422   .     S
C149   C592    1.407   .     S
C150   C151    1.395   .     A
C150   O185    1.383   .     S
C151   H169    1.083   .     S
C152   C161    1.382   .     A
C152   H167    1.080   .     S
C153   C161    1.399   .     A
C153   C160    1.393   .     A
C153   H231    1.083   .     S
C154   C156    1.452   .     S
C154   C162    1.403   .     A
C155   C397    1.339   1_455 S
C155   H314    1.088   .     S
C156   O176    1.301   .     A
C156   O271    1.288   1_455 S
C157   C158    1.403   .     S
C158   O177    1.290   .     A
C158   O226    1.276   .     S
C159   O179    1.297   .     A
C159   C161    1.444   .     S
C159   O228    1.290   .     S
C160   C581    1.407   1_554 S
C160   H622    1.083   1_554 S
C162   C595    1.387   .     S
C162   H287    1.083   1_455 S
C163   H192    1.083   .     S
C163   C164    1.391   .     A
C163   C594    1.387   1_554 S
C164   H168    1.079   .     S
C164   C578    1.420   1_554 S
H165   C301    1.087   .     S
H166   N171    1.029   .     S
N171   Zn182   2.020   .     S
N171   N172    1.287   .     D
N172   Zn181   2.020   .     S
N172   H184    1.029   .     S
O173   Zn181   1.951   .     S
O173   C193    1.276   .     S
O174   Zn182   1.979   .     S
O175   Zn181   1.955   .     S
O175   C204    1.288   .     S
O176   Zn182   1.918   .     S
O177   Zn181   1.979   .     S
O178   Zn182   1.951   .     S
O178   C254    1.276   1_455 S
O179   Zn181   1.918   .     S
O180   Zn182   1.955   .     S
O180   C255    1.290   1_455 S
H183   C249    1.083   1_455 S
O185   C186    1.408   .     S
C186   H188    1.112   .     S
C186   H187    1.113   .     S
C186   H189    1.108   .     S
H190   C592    1.083   .     S
H191   C210    1.083   .     S
C193   C203    1.403   .     S
C193   O222    1.290   .     A
C194   C195    1.402   .     A
C194   C628    1.409   .     S
C194   C644    1.420   .     S
C195   C202    1.403   .     A
C195   C199    1.411   .     A
C196   C200    1.388   .     A
C196   C626    1.409   1_554 S
C196   C629    1.422   1_554 S
C197   C198    1.401   .     A
C197   C628    1.422   .     S
C197   C640    1.407   .     S
C198   C199    1.395   .     A
C198   O233    1.383   .     S
C199   H217    1.083   .     S
C200   C209    1.382   .     A
C200   H215    1.080   .     S
C201   C209    1.399   .     A
C201   C208    1.393   .     A
C201   H279    1.083   .     S
C202   C204    1.452   .     S
C202   C210    1.403   .     A
C203   C301    1.339   .     S
C203   H362    1.088   .     S
C204   O224    1.301   .     A
C205   C206    1.403   .     S
C206   O225    1.290   .     A
C206   O274    1.276   .     S
C207   O227    1.297   .     A
C207   C209    1.444   .     S
C207   O276    1.290   .     S
C208   C629    1.407   1_554 S
C208   H670    1.083   1_554 S
C210   C643    1.387   .     S
C211   H240    1.083   .     S
C211   C212    1.391   .     A
C211   C642    1.387   1_554 S
C212   H216    1.079   .     S
C212   C626    1.420   1_554 S
H213   C349    1.087   .     S
H214   N219    1.029   .     S
N219   Zn230   2.020   .     S
N219   N220    1.287   .     D
N220   Zn229   2.020   .     S
N220   H232    1.029   .     S
O221   Zn229   1.951   .     S
O221   C241    1.276   .     S
O222   Zn230   1.979   .     S
O223   Zn229   1.955   .     S
O223   C252    1.288   .     S
O224   Zn230   1.918   .     S
O225   Zn229   1.979   .     S
O226   Zn230   1.951   .     S
O227   Zn229   1.918   .     S
O228   Zn230   1.955   .     S
O233   C234    1.408   .     S
C234   H236    1.112   .     S
C234   H235    1.113   .     S
C234   H237    1.108   .     S
H238   C640    1.083   .     S
H239   C258    1.083   .     S
C241   C251    1.403   .     S
C241   O270    1.290   .     A
C242   C243    1.402   .     A
C242   C676    1.409   .     S
C242   C692    1.420   .     S
C243   C250    1.403   .     A
C243   C247    1.411   .     A
C244   C248    1.388   .     A
C244   C674    1.409   1_554 S
C244   C677    1.422   1_554 S
C245   C246    1.401   .     A
C245   C676    1.422   .     S
C245   C688    1.407   .     S
C246   C247    1.395   .     A
C246   O281    1.383   .     S
C247   H265    1.083   .     S
C248   C257    1.382   .     A
C248   H263    1.080   .     S
C249   C257    1.399   .     A
C249   C256    1.393   .     A
C249   H183    1.083   1_655 S
C250   C252    1.452   .     S
C250   C258    1.403   .     A
C251   C349    1.339   .     S
C251   H410    1.088   .     S
C252   O272    1.301   .     A
C253   C254    1.403   .     S
C253   C11     1.339   1_655 S
C254   O273    1.290   .     A
C254   O178    1.276   1_655 S
C255   O275    1.297   .     A
C255   C257    1.444   .     S
C255   O180    1.290   1_655 S
C256   C677    1.407   1_554 S
C256   H718    1.083   1_554 S
C258   C691    1.387   .     S
C259   H288    1.083   .     S
C259   C260    1.391   .     A
C259   C690    1.387   1_554 S
C260   H264    1.079   .     S
C260   C674    1.420   1_554 S
H261   C397    1.087   .     S
H262   N267    1.029   .     S
N267   Zn278   2.020   .     S
N267   N268    1.287   .     D
N268   Zn277   2.020   .     S
N268   H280    1.029   .     S
O269   Zn277   1.951   .     S
O269   C145    1.276   1_655 S
O270   Zn278   1.979   .     S
O271   Zn277   1.955   .     S
O271   C156    1.288   1_655 S
O272   Zn278   1.918   .     S
O273   Zn277   1.979   .     S
O274   Zn278   1.951   .     S
O275   Zn277   1.918   .     S
O276   Zn278   1.955   .     S
O281   C282    1.408   .     S
C282   H284    1.112   .     S
C282   H283    1.113   .     S
C282   H285    1.108   .     S
H286   C688    1.083   .     S
H287   C162    1.083   1_655 S
C289   C299    1.403   .     S
C289   O318    1.290   .     A
C289   O413    1.276   1_455 S
C290   C291    1.402   .     A
C290   C724    1.409   .     S
C290   C740    1.420   .     S
C291   C298    1.403   .     A
C291   C295    1.411   .     A
C292   C296    1.388   .     A
C292   C722    1.409   1_554 S
C292   C725    1.422   1_554 S
C293   C294    1.401   .     A
C293   C724    1.422   .     S
C293   C736    1.407   .     S
C294   C295    1.395   .     A
C294   O329    1.383   .     S
C295   H313    1.083   .     S
C296   C305    1.382   .     A
C296   H311    1.080   .     S
C297   C305    1.399   .     A
C297   C304    1.393   .     A
C297   H375    1.083   .     S
C298   C300    1.452   .     S
C298   C306    1.403   .     A
C299   C109    1.339   1_465 S
C299   H26     1.088   1_565 S
C300   O320    1.301   .     A
C300   O415    1.288   1_455 S
C301   C302    1.403   .     S
C302   O321    1.290   .     A
C302   O370    1.276   .     S
C303   O323    1.297   .     A
C303   C305    1.444   .     S
C303   O372    1.290   .     S
C304   C725    1.407   1_554 S
C304   H766    1.083   1_554 S
C306   C739    1.387   .     S
C306   H431    1.083   1_455 S
C307   H336    1.083   .     S
C307   C308    1.391   .     A
C307   C738    1.387   1_554 S
C308   H312    1.079   .     S
C308   C722    1.420   1_554 S
H309   C13     1.087   1_565 S
H310   N315    1.029   .     S
N315   Zn326   2.020   .     S
N315   N316    1.287   .     D
N316   Zn325   2.020   .     S
N316   H328    1.029   .     S
O317   Zn325   1.951   .     S
O317   C337    1.276   .     S
O318   Zn326   1.979   .     S
O319   Zn325   1.955   .     S
O319   C348    1.288   .     S
O320   Zn326   1.918   .     S
O321   Zn325   1.979   .     S
O322   Zn326   1.951   .     S
O322   C398    1.276   1_455 S
O323   Zn325   1.918   .     S
O324   Zn326   1.955   .     S
O324   C399    1.290   1_455 S
H327   C393    1.083   1_455 S
O329   C330    1.408   .     S
C330   H332    1.112   .     S
C330   H331    1.113   .     S
C330   H333    1.108   .     S
H334   C736    1.083   .     S
H335   C354    1.083   .     S
C337   C347    1.403   .     S
C337   O366    1.290   .     A
C338   C339    1.402   .     A
C338   C772    1.409   .     S
C338   C788    1.420   .     S
C339   C346    1.403   .     A
C339   C343    1.411   .     A
C340   C344    1.388   .     A
C340   C770    1.409   1_554 S
C340   C773    1.422   1_554 S
C341   C342    1.401   .     A
C341   C772    1.422   .     S
C341   C784    1.407   .     S
C342   C343    1.395   .     A
C342   O377    1.383   .     S
C343   H361    1.083   .     S
C344   C353    1.382   .     A
C344   H359    1.080   .     S
C345   C353    1.399   .     A
C345   C352    1.393   .     A
C345   H423    1.083   .     S
C346   C348    1.452   .     S
C346   C354    1.403   .     A
C347   C13     1.339   1_565 S
C347   H74     1.088   1_565 S
C348   O368    1.301   .     A
C349   C350    1.403   .     S
C350   O369    1.290   .     A
C350   O418    1.276   .     S
C351   O371    1.297   .     A
C351   C353    1.444   .     S
C351   O420    1.290   .     S
C352   C773    1.407   1_554 S
C352   H814    1.083   1_554 S
C354   C787    1.387   .     S
C355   H384    1.083   .     S
C355   C356    1.391   .     A
C355   C786    1.387   1_554 S
C356   H360    1.079   .     S
C356   C770    1.420   1_554 S
H357   C61     1.087   1_565 S
H358   N363    1.029   .     S
N363   Zn374   2.020   .     S
N363   N364    1.287   .     D
N364   Zn373   2.020   .     S
N364   H376    1.029   .     S
O365   Zn373   1.951   .     S
O365   C385    1.276   .     S
O366   Zn374   1.979   .     S
O367   Zn373   1.955   .     S
O367   C396    1.288   .     S
O368   Zn374   1.918   .     S
O369   Zn373   1.979   .     S
O370   Zn374   1.951   .     S
O371   Zn373   1.918   .     S
O372   Zn374   1.955   .     S
O377   C378    1.408   .     S
C378   H380    1.112   .     S
C378   H379    1.113   .     S
C378   H381    1.108   .     S
H382   C784    1.083   .     S
H383   C402    1.083   .     S
C385   C395    1.403   .     S
C385   O414    1.290   .     A
C386   C387    1.402   .     A
C386   C820    1.409   .     S
C386   C836    1.420   .     S
C387   C394    1.403   .     A
C387   C391    1.411   .     A
C388   C392    1.388   .     A
C388   C818    1.409   1_554 S
C388   C821    1.422   1_554 S
C389   C390    1.401   .     A
C389   C820    1.422   .     S
C389   C832    1.407   .     S
C390   C391    1.395   .     A
C390   O425    1.383   .     S
C391   H409    1.083   .     S
C392   C401    1.382   .     A
C392   H407    1.080   .     S
C393   C401    1.399   .     A
C393   C400    1.393   .     A
C393   H327    1.083   1_655 S
C394   C396    1.452   .     S
C394   C402    1.403   .     A
C395   C61     1.339   1_565 S
C395   H122    1.088   1_565 S
C396   O416    1.301   .     A
C397   C398    1.403   .     S
C397   C155    1.339   1_655 S
C398   O417    1.290   .     A
C398   O322    1.276   1_655 S
C399   O419    1.297   .     A
C399   C401    1.444   .     S
C399   O324    1.290   1_655 S
C400   C821    1.407   1_554 S
C400   H862    1.083   1_554 S
C402   C835    1.387   .     S
C403   H432    1.083   .     S
C403   C404    1.391   .     A
C403   C834    1.387   1_554 S
C404   H408    1.079   .     S
C404   C818    1.420   1_554 S
H405   C109    1.087   1_565 S
H406   N411    1.029   .     S
N411   Zn422   2.020   .     S
N411   N412    1.287   .     D
N412   Zn421   2.020   .     S
N412   H424    1.029   .     S
O413   Zn421   1.951   .     S
O413   C289    1.276   1_655 S
O414   Zn422   1.979   .     S
O415   Zn421   1.955   .     S
O415   C300    1.288   1_655 S
O416   Zn422   1.918   .     S
O417   Zn421   1.979   .     S
O418   Zn422   1.951   .     S
O419   Zn421   1.918   .     S
O420   Zn422   1.955   .     S
O425   C426    1.408   .     S
C426   H428    1.112   .     S
C426   H427    1.113   .     S
C426   H429    1.108   .     S
H430   C832    1.083   .     S
H431   C306    1.083   1_655 S
C433   C443    1.403   .     S
C433   O462    1.290   .     A
C433   O557    1.276   1_455 S
C434   C435    1.402   .     A
C434   C4      1.409   1_556 S
C434   C20     1.420   1_556 S
C435   C442    1.403   .     A
C435   C439    1.411   .     A
C436   C440    1.388   .     A
C437   C438    1.401   .     A
C437   C4      1.422   1_556 S
C437   C16     1.407   1_556 S
C438   C439    1.395   .     A
C438   O473    1.383   .     S
C439   H457    1.083   .     S
C440   C449    1.382   .     A
C440   H455    1.080   .     S
C441   C449    1.399   .     A
C441   C448    1.393   .     A
C441   H519    1.083   .     S
C442   C444    1.452   .     S
C442   C450    1.403   .     A
C443   C685    1.339   1_455 S
C443   H602    1.088   .     S
C444   O464    1.301   .     A
C444   O559    1.288   1_455 S
C445   C446    1.403   .     S
C445   C779    1.339   1_545 S
C445   H741    1.087   1_545 S
C446   O465    1.290   .     A
C446   O514    1.276   .     S
C447   O467    1.297   .     A
C447   C449    1.444   .     S
C447   O516    1.290   .     S
C450   C19     1.387   1_556 S
C450   H575    1.083   1_455 S
C451   H480    1.083   .     S
C451   C452    1.391   .     A
C452   H456    1.079   .     S
H453   C589    1.087   .     S
H454   N459    1.029   .     S
H458   C731    1.088   1_545 S
N459   Zn470   2.020   .     S
N459   N460    1.287   .     D
N460   Zn469   2.020   .     S
N460   H472    1.029   .     S
O461   Zn469   1.951   .     S
O461   C481    1.276   .     S
O462   Zn470   1.979   .     S
O463   Zn469   1.955   .     S
O463   C492    1.288   .     S
O464   Zn470   1.918   .     S
O465   Zn469   1.979   .     S
O466   Zn470   1.951   .     S
O466   C542    1.276   1_455 S
O467   Zn469   1.918   .     S
O468   Zn470   1.955   .     S
O468   C543    1.290   1_455 S
H471   C537    1.083   1_455 S
O473   C474    1.408   .     S
C474   H476    1.112   .     S
C474   H475    1.113   .     S
C474   H477    1.108   .     S
H478   C16     1.083   1_556 S
H479   C498    1.083   .     S
C481   C491    1.403   .     S
C481   O510    1.290   .     A
C482   C483    1.402   .     A
C482   C52     1.409   1_556 S
C482   C68     1.420   1_556 S
C483   C490    1.403   .     A
C483   C487    1.411   .     A
C484   C488    1.388   .     A
C485   C486    1.401   .     A
C485   C52     1.422   1_556 S
C485   C64     1.407   1_556 S
C486   C487    1.395   .     A
C486   O521    1.383   .     S
C487   H505    1.083   .     S
C488   C497    1.382   .     A
C488   H503    1.080   .     S
C489   C497    1.399   .     A
C489   C496    1.393   .     A
C489   H567    1.083   .     S
C490   C492    1.452   .     S
C490   C498    1.403   .     A
C491   C589    1.339   .     S
C491   H650    1.088   .     S
C492   O512    1.301   .     A
C493   C494    1.403   .     S
C493   C827    1.339   1_545 S
C493   H789    1.087   1_545 S
C494   O513    1.290   .     A
C494   O562    1.276   .     S
C495   O515    1.297   .     A
C495   C497    1.444   .     S
C495   O564    1.290   .     S
C498   C67     1.387   1_556 S
C499   H528    1.083   .     S
C499   C500    1.391   .     A
C500   H504    1.079   .     S
H501   C637    1.087   .     S
H502   N507    1.029   .     S
H506   C779    1.088   1_545 S
N507   Zn518   2.020   .     S
N507   N508    1.287   .     D
N508   Zn517   2.020   .     S
N508   H520    1.029   .     S
O509   Zn517   1.951   .     S
O509   C529    1.276   .     S
O510   Zn518   1.979   .     S
O511   Zn517   1.955   .     S
O511   C540    1.288   .     S
O512   Zn518   1.918   .     S
O513   Zn517   1.979   .     S
O514   Zn518   1.951   .     S
O515   Zn517   1.918   .     S
O516   Zn518   1.955   .     S
O521   C522    1.408   .     S
C522   H524    1.112   .     S
C522   H523    1.113   .     S
C522   H525    1.108   .     S
H526   C64     1.083   1_556 S
H527   C546    1.083   .     S
C529   C539    1.403   .     S
C529   O558    1.290   .     A
C530   C531    1.402   .     A
C530   C100    1.409   1_556 S
C530   C116    1.420   1_556 S
C531   C538    1.403   .     A
C531   C535    1.411   .     A
C532   C536    1.388   .     A
C533   C534    1.401   .     A
C533   C100    1.422   1_556 S
C533   C112    1.407   1_556 S
C534   C535    1.395   .     A
C534   O569    1.383   .     S
C535   H553    1.083   .     S
C536   C545    1.382   .     A
C536   H551    1.080   .     S
C537   C545    1.399   .     A
C537   C544    1.393   .     A
C537   H471    1.083   1_655 S
C538   C540    1.452   .     S
C538   C546    1.403   .     A
C539   C637    1.339   .     S
C539   H698    1.088   .     S
C540   O560    1.301   .     A
C541   C542    1.403   .     S
C541   C731    1.339   1_645 S
C541   H837    1.087   1_545 S
C542   O561    1.290   .     A
C542   O466    1.276   1_655 S
C543   O563    1.297   .     A
C543   C545    1.444   .     S
C543   O468    1.290   1_655 S
C546   C115    1.387   1_556 S
C547   H576    1.083   .     S
C547   C548    1.391   .     A
C548   H552    1.079   .     S
H549   C685    1.087   .     S
H550   N555    1.029   .     S
H554   C827    1.088   1_545 S
N555   Zn566   2.020   .     S
N555   N556    1.287   .     D
N556   Zn565   2.020   .     S
N556   H568    1.029   .     S
O557   Zn565   1.951   .     S
O557   C433    1.276   1_655 S
O558   Zn566   1.979   .     S
O559   Zn565   1.955   .     S
O559   C444    1.288   1_655 S
O560   Zn566   1.918   .     S
O561   Zn565   1.979   .     S
O562   Zn566   1.951   .     S
O563   Zn565   1.918   .     S
O564   Zn566   1.955   .     S
O569   C570    1.408   .     S
C570   H572    1.112   .     S
C570   H571    1.113   .     S
C570   H573    1.108   .     S
H574   C112    1.083   1_556 S
H575   C450    1.083   1_655 S
C577   C587    1.403   .     S
C577   O606    1.290   .     A
C577   O701    1.276   1_455 S
C578   C579    1.402   .     A
C578   C148    1.409   1_556 S
C578   C164    1.420   1_556 S
C579   C586    1.403   .     A
C579   C583    1.411   .     A
C580   C584    1.388   .     A
C581   C582    1.401   .     A
C581   C148    1.422   1_556 S
C581   C160    1.407   1_556 S
C582   C583    1.395   .     A
C582   O617    1.383   .     S
C583   H601    1.083   .     S
C584   C593    1.382   .     A
C584   H599    1.080   .     S
C585   C593    1.399   .     A
C585   C592    1.393   .     A
C585   H663    1.083   .     S
C586   C588    1.452   .     S
C586   C594    1.403   .     A
C587   C829    1.339   1_455 S
C587   H746    1.088   .     S
C588   O608    1.301   .     A
C588   O703    1.288   1_455 S
C589   C590    1.403   .     S
C590   O609    1.290   .     A
C590   O658    1.276   .     S
C591   O611    1.297   .     A
C591   C593    1.444   .     S
C591   O660    1.290   .     S
C594   C163    1.387   1_556 S
C594   H719    1.083   1_455 S
C595   H624    1.083   .     S
C595   C596    1.391   .     A
C596   H600    1.079   .     S
H597   C733    1.087   .     S
H598   N603    1.029   .     S
N603   Zn614   2.020   .     S
N603   N604    1.287   .     D
N604   Zn613   2.020   .     S
N604   H616    1.029   .     S
O605   Zn613   1.951   .     S
O605   C625    1.276   .     S
O606   Zn614   1.979   .     S
O607   Zn613   1.955   .     S
O607   C636    1.288   .     S
O608   Zn614   1.918   .     S
O609   Zn613   1.979   .     S
O610   Zn614   1.951   .     S
O610   C686    1.276   1_455 S
O611   Zn613   1.918   .     S
O612   Zn614   1.955   .     S
O612   C687    1.290   1_455 S
H615   C681    1.083   1_455 S
O617   C618    1.408   .     S
C618   H620    1.112   .     S
C618   H619    1.113   .     S
C618   H621    1.108   .     S
H622   C160    1.083   1_556 S
H623   C642    1.083   .     S
C625   C635    1.403   .     S
C625   O654    1.290   .     A
C626   C627    1.402   .     A
C626   C196    1.409   1_556 S
C626   C212    1.420   1_556 S
C627   C634    1.403   .     A
C627   C631    1.411   .     A
C628   C632    1.388   .     A
C629   C630    1.401   .     A
C629   C196    1.422   1_556 S
C629   C208    1.407   1_556 S
C630   C631    1.395   .     A
C630   O665    1.383   .     S
C631   H649    1.083   .     S
C632   C641    1.382   .     A
C632   H647    1.080   .     S
C633   C641    1.399   .     A
C633   C640    1.393   .     A
C633   H711    1.083   .     S
C634   C636    1.452   .     S
C634   C642    1.403   .     A
C635   C733    1.339   .     S
C635   H794    1.088   .     S
C636   O656    1.301   .     A
C637   C638    1.403   .     S
C638   O657    1.290   .     A
C638   O706    1.276   .     S
C639   O659    1.297   .     A
C639   C641    1.444   .     S
C639   O708    1.290   .     S
C642   C211    1.387   1_556 S
C643   H672    1.083   .     S
C643   C644    1.391   .     A
C644   H648    1.079   .     S
H645   C781    1.087   .     S
H646   N651    1.029   .     S
N651   Zn662   2.020   .     S
N651   N652    1.287   .     D
N652   Zn661   2.020   .     S
N652   H664    1.029   .     S
O653   Zn661   1.951   .     S
O653   C673    1.276   .     S
O654   Zn662   1.979   .     S
O655   Zn661   1.955   .     S
O655   C684    1.288   .     S
O656   Zn662   1.918   .     S
O657   Zn661   1.979   .     S
O658   Zn662   1.951   .     S
O659   Zn661   1.918   .     S
O660   Zn662   1.955   .     S
O665   C666    1.408   .     S
C666   H668    1.112   .     S
C666   H667    1.113   .     S
C666   H669    1.108   .     S
H670   C208    1.083   1_556 S
H671   C690    1.083   .     S
C673   C683    1.403   .     S
C673   O702    1.290   .     A
C674   C675    1.402   .     A
C674   C244    1.409   1_556 S
C674   C260    1.420   1_556 S
C675   C682    1.403   .     A
C675   C679    1.411   .     A
C676   C680    1.388   .     A
C677   C678    1.401   .     A
C677   C244    1.422   1_556 S
C677   C256    1.407   1_556 S
C678   C679    1.395   .     A
C678   O713    1.383   .     S
C679   H697    1.083   .     S
C680   C689    1.382   .     A
C680   H695    1.080   .     S
C681   C689    1.399   .     A
C681   C688    1.393   .     A
C681   H615    1.083   1_655 S
C682   C684    1.452   .     S
C682   C690    1.403   .     A
C683   C781    1.339   .     S
C683   H842    1.088   .     S
C684   O704    1.301   .     A
C685   C686    1.403   .     S
C685   C443    1.339   1_655 S
C686   O705    1.290   .     A
C686   O610    1.276   1_655 S
C687   O707    1.297   .     A
C687   C689    1.444   .     S
C687   O612    1.290   1_655 S
C690   C259    1.387   1_556 S
C691   H720    1.083   .     S
C691   C692    1.391   .     A
C692   H696    1.079   .     S
H693   C829    1.087   .     S
H694   N699    1.029   .     S
N699   Zn710   2.020   .     S
N699   N700    1.287   .     D
N700   Zn709   2.020   .     S
N700   H712    1.029   .     S
O701   Zn709   1.951   .     S
O701   C577    1.276   1_655 S
O702   Zn710   1.979   .     S
O703   Zn709   1.955   .     S
O703   C588    1.288   1_655 S
O704   Zn710   1.918   .     S
O705   Zn709   1.979   .     S
O706   Zn710   1.951   .     S
O707   Zn709   1.918   .     S
O708   Zn710   1.955   .     S
O713   C714    1.408   .     S
C714   H716    1.112   .     S
C714   H715    1.113   .     S
C714   H717    1.108   .     S
H718   C256    1.083   1_556 S
H719   C594    1.083   1_655 S
C721   C731    1.403   .     S
C721   O750    1.290   .     A
C721   O845    1.276   1_455 S
C722   C723    1.402   .     A
C722   C292    1.409   1_556 S
C722   C308    1.420   1_556 S
C723   C730    1.403   .     A
C723   C727    1.411   .     A
C724   C728    1.388   .     A
C725   C726    1.401   .     A
C725   C292    1.422   1_556 S
C725   C304    1.407   1_556 S
C726   C727    1.395   .     A
C726   O761    1.383   .     S
C727   H745    1.083   .     S
C728   C737    1.382   .     A
C728   H743    1.080   .     S
C729   C737    1.399   .     A
C729   C736    1.393   .     A
C729   H807    1.083   .     S
C730   C732    1.452   .     S
C730   C738    1.403   .     A
C731   C541    1.339   1_465 S
C731   H458    1.088   1_565 S
C732   O752    1.301   .     A
C732   O847    1.288   1_455 S
C733   C734    1.403   .     S
C734   O753    1.290   .     A
C734   O802    1.276   .     S
C735   O755    1.297   .     A
C735   C737    1.444   .     S
C735   O804    1.290   .     S
C738   C307    1.387   1_556 S
C738   H863    1.083   1_455 S
C739   H768    1.083   .     S
C739   C740    1.391   .     A
C740   H744    1.079   .     S
H741   C445    1.087   1_565 S
H742   N747    1.029   .     S
N747   Zn758   2.020   .     S
N747   N748    1.287   .     D
N748   Zn757   2.020   .     S
N748   H760    1.029   .     S
O749   Zn757   1.951   .     S
O749   C769    1.276   .     S
O750   Zn758   1.979   .     S
O751   Zn757   1.955   .     S
O751   C780    1.288   .     S
O752   Zn758   1.918   .     S
O753   Zn757   1.979   .     S
O754   Zn758   1.951   .     S
O754   C830    1.276   1_455 S
O755   Zn757   1.918   .     S
O756   Zn758   1.955   .     S
O756   C831    1.290   1_455 S
H759   C825    1.083   1_455 S
O761   C762    1.408   .     S
C762   H764    1.112   .     S
C762   H763    1.113   .     S
C762   H765    1.108   .     S
H766   C304    1.083   1_556 S
H767   C786    1.083   .     S
C769   C779    1.403   .     S
C769   O798    1.290   .     A
C770   C771    1.402   .     A
C770   C340    1.409   1_556 S
C770   C356    1.420   1_556 S
C771   C778    1.403   .     A
C771   C775    1.411   .     A
C772   C776    1.388   .     A
C773   C774    1.401   .     A
C773   C340    1.422   1_556 S
C773   C352    1.407   1_556 S
C774   C775    1.395   .     A
C774   O809    1.383   .     S
C775   H793    1.083   .     S
C776   C785    1.382   .     A
C776   H791    1.080   .     S
C777   C785    1.399   .     A
C777   C784    1.393   .     A
C777   H855    1.083   .     S
C778   C780    1.452   .     S
C778   C786    1.403   .     A
C779   C445    1.339   1_565 S
C779   H506    1.088   1_565 S
C780   O800    1.301   .     A
C781   C782    1.403   .     S
C782   O801    1.290   .     A
C782   O850    1.276   .     S
C783   O803    1.297   .     A
C783   C785    1.444   .     S
C783   O852    1.290   .     S
C786   C355    1.387   1_556 S
C787   H816    1.083   .     S
C787   C788    1.391   .     A
C788   H792    1.079   .     S
H789   C493    1.087   1_565 S
H790   N795    1.029   .     S
N795   Zn806   2.020   .     S
N795   N796    1.287   .     D
N796   Zn805   2.020   .     S
N796   H808    1.029   .     S
O797   Zn805   1.951   .     S
O797   C817    1.276   .     S
O798   Zn806   1.979   .     S
O799   Zn805   1.955   .     S
O799   C828    1.288   .     S
O800   Zn806   1.918   .     S
O801   Zn805   1.979   .     S
O802   Zn806   1.951   .     S
O803   Zn805   1.918   .     S
O804   Zn806   1.955   .     S
O809   C810    1.408   .     S
C810   H812    1.112   .     S
C810   H811    1.113   .     S
C810   H813    1.108   .     S
H814   C352    1.083   1_556 S
H815   C834    1.083   .     S
C817   C827    1.403   .     S
C817   O846    1.290   .     A
C818   C819    1.402   .     A
C818   C388    1.409   1_556 S
C818   C404    1.420   1_556 S
C819   C826    1.403   .     A
C819   C823    1.411   .     A
C820   C824    1.388   .     A
C821   C822    1.401   .     A
C821   C388    1.422   1_556 S
C821   C400    1.407   1_556 S
C822   C823    1.395   .     A
C822   O857    1.383   .     S
C823   H841    1.083   .     S
C824   C833    1.382   .     A
C824   H839    1.080   .     S
C825   C833    1.399   .     A
C825   C832    1.393   .     A
C825   H759    1.083   1_655 S
C826   C828    1.452   .     S
C826   C834    1.403   .     A
C827   C493    1.339   1_565 S
C827   H554    1.088   1_565 S
C828   O848    1.301   .     A
C829   C830    1.403   .     S
C829   C587    1.339   1_655 S
C830   O849    1.290   .     A
C830   O754    1.276   1_655 S
C831   O851    1.297   .     A
C831   C833    1.444   .     S
C831   O756    1.290   1_655 S
C834   C403    1.387   1_556 S
C835   H864    1.083   .     S
C835   C836    1.391   .     A
C836   H840    1.079   .     S
H837   C541    1.087   1_565 S
H838   N843    1.029   .     S
N843   Zn854   2.020   .     S
N843   N844    1.287   .     D
N844   Zn853   2.020   .     S
N844   H856    1.029   .     S
O845   Zn853   1.951   .     S
O845   C721    1.276   1_655 S
O846   Zn854   1.979   .     S
O847   Zn853   1.955   .     S
O847   C732    1.288   1_655 S
O848   Zn854   1.918   .     S
O849   Zn853   1.979   .     S
O850   Zn854   1.951   .     S
O851   Zn853   1.918   .     S
O852   Zn854   1.955   .     S
O857   C858    1.408   .     S
C858   H860    1.112   .     S
C858   H859    1.113   .     S
C858   H861    1.108   .     S
H862   C400    1.083   1_556 S
H863   C738    1.083   1_655 S
